MODEL 1
REMARK VINA RESULT:      -9.0      0.000      0.000
REMARK  6 active torsions:
REMARK  status: ('A' for Active; 'I' for Inactive)
REMARK    1  A    between atoms: C_2  and  O_3 
REMARK    2  A    between atoms: O_3  and  C_4 
REMARK    3  A    between atoms: C_5  and  C_6 
REMARK    4  A    between atoms: C_10  and  C_11 
REMARK       I    between atoms: C_11  and  N_12 
REMARK    5  A    between atoms: N_12  and  N_13 
REMARK    6  A    between atoms: C_14  and  C_15 
ROOT
HETATM    1  C   UNL     1      24.281  47.364  49.999  1.00  0.00     0.289 C 
HETATM    2  N   UNL     1      23.174  46.846  49.343  1.00  0.00    -0.242 N 
HETATM    3  O   UNL     1      24.677  48.521  49.887  1.00  0.00    -0.264 OA
HETATM    4  H   UNL     1      22.917  45.877  49.470  1.00  0.00     0.192 HD
ENDROOT
BRANCH   1   5
HETATM    5  C   UNL     1      24.963  46.423  50.852  1.00  0.00     0.121 A 
HETATM    6  N   UNL     1      24.330  45.312  51.333  1.00  0.00    -0.272 N 
HETATM    7  N   UNL     1      25.100  44.526  52.099  1.00  0.00    -0.174 NA
HETATM    8  H   UNL     1      23.367  45.040  51.158  1.00  0.00     0.189 HD
HETATM    9  C   UNL     1      26.288  45.154  52.146  1.00  0.00     0.092 A 
HETATM   10  C   UNL     1      26.243  46.341  51.360  1.00  0.00     0.071 A 
BRANCH   9  11
HETATM   11  C   UNL     1      27.425  44.592  52.893  1.00  0.00     0.028 A 
HETATM   12  C   UNL     1      27.735  44.970  54.218  1.00  0.00     0.081 A 
HETATM   13  C   UNL     1      28.854  44.404  54.849  1.00  0.00     0.038 A 
HETATM   14  C   UNL     1      29.650  43.464  54.190  1.00  0.00     0.003 A 
HETATM   15  C   UNL     1      29.340  43.076  52.892  1.00  0.00     0.001 A 
HETATM   16  C   UNL     1      28.235  43.636  52.251  1.00  0.00     0.017 A 
BRANCH  12  17
HETATM   17  O   UNL     1      26.911  45.885  54.826  1.00  0.00    -0.351 OA
BRANCH  17  18
HETATM   18  C   UNL     1      27.485  47.118  55.255  1.00  0.00     0.171 C 
HETATM   19  C   UNL     1      26.401  48.180  55.189  1.00  0.00     0.034 C 
ENDBRANCH  17  18
ENDBRANCH  12  17
ENDBRANCH   9  11
ENDBRANCH   1   5
BRANCH   2  20
HETATM   20  N   UNL     1      22.418  47.641  48.527  1.00  0.00    -0.183 NA
HETATM   21  C   UNL     1      21.144  47.626  48.756  1.00  0.00     0.152 C 
BRANCH  21  22
HETATM   22  C   UNL     1      20.260  48.445  47.954  1.00  0.00     0.011 A 
HETATM   23  C   UNL     1      19.840  49.788  48.220  1.00  0.00     0.004 A 
HETATM   24  C   UNL     1      18.999  50.175  47.175  1.00  0.00     0.043 A 
HETATM   25  C   UNL     1      20.096  50.717  49.252  1.00  0.00     0.014 A 
HETATM   26  C   UNL     1      18.403  51.441  47.109  1.00  0.00     0.030 A 
HETATM   27  N   UNL     1      18.908  49.110  46.310  1.00  0.00    -0.364 N 
HETATM   28  C   UNL     1      18.674  52.341  48.144  1.00  0.00     0.002 A 
HETATM   29  C   UNL     1      19.508  51.986  49.202  1.00  0.00     0.001 A 
HETATM   30  H   UNL     1      18.363  49.105  45.458  1.00  0.00     0.165 HD
HETATM   31  C   UNL     1      19.661  48.065  46.767  1.00  0.00     0.102 A 
ENDBRANCH  21  22
ENDBRANCH   2  20
TORSDOF 6
ENDMDL
MODEL 2
REMARK VINA RESULT:      -9.0      1.795      2.631
REMARK  6 active torsions:
REMARK  status: ('A' for Active; 'I' for Inactive)
REMARK    1  A    between atoms: C_2  and  O_3 
REMARK    2  A    between atoms: O_3  and  C_4 
REMARK    3  A    between atoms: C_5  and  C_6 
REMARK    4  A    between atoms: C_10  and  C_11 
REMARK       I    between atoms: C_11  and  N_12 
REMARK    5  A    between atoms: N_12  and  N_13 
REMARK    6  A    between atoms: C_14  and  C_15 
ROOT
HETATM    1  C   UNL     1      25.100  44.824  51.392  1.00  0.00     0.289 C 
HETATM    2  N   UNL     1      25.203  45.629  50.267  1.00  0.00    -0.242 N 
HETATM    3  O   UNL     1      24.048  44.353  51.815  1.00  0.00    -0.264 OA
HETATM    4  H   UNL     1      26.102  45.996  49.987  1.00  0.00     0.192 HD
ENDROOT
BRANCH   1   5
HETATM    5  C   UNL     1      26.352  44.566  52.057  1.00  0.00     0.121 A 
HETATM    6  N   UNL     1      27.398  43.982  51.402  1.00  0.00    -0.272 N 
HETATM    7  N   UNL     1      28.500  43.823  52.150  1.00  0.00    -0.174 NA
HETATM    8  H   UNL     1      27.413  43.679  50.432  1.00  0.00     0.189 HD
HETATM    9  C   UNL     1      28.161  44.302  53.360  1.00  0.00     0.092 A 
HETATM   10  C   UNL     1      26.825  44.792  53.334  1.00  0.00     0.071 A 
BRANCH   9  11
HETATM   11  C   UNL     1      29.121  44.316  54.477  1.00  0.00     0.028 A 
HETATM   12  C   UNL     1      29.354  45.457  55.274  1.00  0.00     0.081 A 
HETATM   13  C   UNL     1      30.306  45.393  56.303  1.00  0.00     0.038 A 
HETATM   14  C   UNL     1      31.010  44.213  56.556  1.00  0.00     0.003 A 
HETATM   15  C   UNL     1      30.772  43.081  55.786  1.00  0.00     0.001 A 
HETATM   16  C   UNL     1      29.834  43.134  54.755  1.00  0.00     0.017 A 
BRANCH  12  17
HETATM   17  O   UNL     1      28.625  46.587  54.994  1.00  0.00    -0.351 OA
BRANCH  17  18
HETATM   18  C   UNL     1      27.761  47.094  56.009  1.00  0.00     0.171 C 
HETATM   19  C   UNL     1      26.785  48.053  55.349  1.00  0.00     0.034 C 
ENDBRANCH  17  18
ENDBRANCH  12  17
ENDBRANCH   9  11
ENDBRANCH   1   5
BRANCH   2  20
HETATM   20  N   UNL     1      24.094  45.926  49.523  1.00  0.00    -0.183 NA
HETATM   21  C   UNL     1      23.808  47.184  49.426  1.00  0.00     0.152 C 
BRANCH  21  22
HETATM   22  C   UNL     1      22.660  47.601  48.649  1.00  0.00     0.011 A 
HETATM   23  C   UNL     1      22.040  48.892  48.639  1.00  0.00     0.004 A 
HETATM   24  C   UNL     1      20.976  48.836  47.736  1.00  0.00     0.043 A 
HETATM   25  C   UNL     1      22.282  50.110  49.312  1.00  0.00     0.014 A 
HETATM   26  C   UNL     1      20.145  49.931  47.471  1.00  0.00     0.030 A 
HETATM   27  N   UNL     1      20.948  47.561  47.219  1.00  0.00    -0.364 N 
HETATM   28  C   UNL     1      20.408  51.124  48.151  1.00  0.00     0.002 A 
HETATM   29  C   UNL     1      21.460  51.214  49.059  1.00  0.00     0.001 A 
HETATM   30  H   UNL     1      20.279  47.231  46.537  1.00  0.00     0.165 HD
HETATM   31  C   UNL     1      21.954  46.811  47.761  1.00  0.00     0.102 A 
ENDBRANCH  21  22
ENDBRANCH   2  20
TORSDOF 6
ENDMDL
MODEL 3
REMARK VINA RESULT:      -9.0      2.557     10.335
REMARK  6 active torsions:
REMARK  status: ('A' for Active; 'I' for Inactive)
REMARK    1  A    between atoms: C_2  and  O_3 
REMARK    2  A    between atoms: O_3  and  C_4 
REMARK    3  A    between atoms: C_5  and  C_6 
REMARK    4  A    between atoms: C_10  and  C_11 
REMARK       I    between atoms: C_11  and  N_12 
REMARK    5  A    between atoms: N_12  and  N_13 
REMARK    6  A    between atoms: C_14  and  C_15 
ROOT
HETATM    1  C   UNL     1      26.400  45.225  50.909  1.00  0.00     0.289 C 
HETATM    2  N   UNL     1      26.250  45.011  52.272  1.00  0.00    -0.242 N 
HETATM    3  O   UNL     1      27.373  44.869  50.253  1.00  0.00    -0.264 OA
HETATM    4  H   UNL     1      25.427  45.349  52.751  1.00  0.00     0.192 HD
ENDROOT
BRANCH   1   5
HETATM    5  C   UNL     1      25.298  45.920  50.291  1.00  0.00     0.121 A 
HETATM    6  N   UNL     1      24.294  45.242  49.661  1.00  0.00    -0.272 N 
HETATM    7  N   UNL     1      23.333  46.026  49.150  1.00  0.00    -0.174 NA
HETATM    8  H   UNL     1      24.214  44.234  49.559  1.00  0.00     0.189 HD
HETATM    9  C   UNL     1      23.730  47.279  49.434  1.00  0.00     0.092 A 
HETATM   10  C   UNL     1      24.952  47.250  50.165  1.00  0.00     0.071 A 
BRANCH   9  11
HETATM   11  C   UNL     1      22.924  48.447  49.043  1.00  0.00     0.028 A 
HETATM   12  C   UNL     1      23.465  49.746  48.919  1.00  0.00     0.081 A 
HETATM   13  C   UNL     1      22.620  50.811  48.567  1.00  0.00     0.038 A 
HETATM   14  C   UNL     1      21.261  50.596  48.323  1.00  0.00     0.003 A 
HETATM   15  C   UNL     1      20.728  49.318  48.426  1.00  0.00     0.001 A 
HETATM   16  C   UNL     1      21.554  48.253  48.783  1.00  0.00     0.017 A 
BRANCH  12  17
HETATM   17  O   UNL     1      24.808  49.899  49.155  1.00  0.00    -0.351 OA
BRANCH  17  18
HETATM   18  C   UNL     1      25.675  50.021  48.029  1.00  0.00     0.171 C 
HETATM   19  C   UNL     1      27.102  49.857  48.523  1.00  0.00     0.034 C 
ENDBRANCH  17  18
ENDBRANCH  12  17
ENDBRANCH   9  11
ENDBRANCH   1   5
BRANCH   2  20
HETATM   20  N   UNL     1      27.208  44.335  52.975  1.00  0.00    -0.183 NA
HETATM   21  C   UNL     1      28.021  45.071  53.662  1.00  0.00     0.152 C 
BRANCH  21  22
HETATM   22  C   UNL     1      29.062  44.449  54.452  1.00  0.00     0.011 A 
HETATM   23  C   UNL     1      29.539  44.858  55.739  1.00  0.00     0.004 A 
HETATM   24  C   UNL     1      30.539  43.959  56.117  1.00  0.00     0.043 A 
HETATM   25  C   UNL     1      29.215  45.909  56.624  1.00  0.00     0.014 A 
HETATM   26  C   UNL     1      31.229  44.058  57.332  1.00  0.00     0.030 A 
HETATM   27  N   UNL     1      30.667  43.042  55.100  1.00  0.00    -0.364 N 
HETATM   28  C   UNL     1      30.887  45.108  58.189  1.00  0.00     0.002 A 
HETATM   29  C   UNL     1      29.895  46.022  57.842  1.00  0.00     0.001 A 
HETATM   30  H   UNL     1      31.319  42.270  55.101  1.00  0.00     0.165 HD
HETATM   31  C   UNL     1      29.786  43.326  54.095  1.00  0.00     0.102 A 
ENDBRANCH  21  22
ENDBRANCH   2  20
TORSDOF 6
ENDMDL
MODEL 4
REMARK VINA RESULT:      -8.8      2.068     10.125
REMARK  6 active torsions:
REMARK  status: ('A' for Active; 'I' for Inactive)
REMARK    1  A    between atoms: C_2  and  O_3 
REMARK    2  A    between atoms: O_3  and  C_4 
REMARK    3  A    between atoms: C_5  and  C_6 
REMARK    4  A    between atoms: C_10  and  C_11 
REMARK       I    between atoms: C_11  and  N_12 
REMARK    5  A    between atoms: N_12  and  N_13 
REMARK    6  A    between atoms: C_14  and  C_15 
ROOT
HETATM    1  C   UNL     1      25.280  48.351  49.512  1.00  0.00     0.289 C 
HETATM    2  N   UNL     1      24.902  47.349  50.393  1.00  0.00    -0.242 N 
HETATM    3  O   UNL     1      26.443  48.636  49.242  1.00  0.00    -0.264 OA
HETATM    4  H   UNL     1      23.924  47.181  50.581  1.00  0.00     0.192 HD
ENDROOT
BRANCH   1   5
HETATM    5  C   UNL     1      24.180  49.063  48.912  1.00  0.00     0.121 A 
HETATM    6  N   UNL     1      24.350  49.819  47.788  1.00  0.00    -0.272 N 
HETATM    7  N   UNL     1      23.230  50.406  47.342  1.00  0.00    -0.174 NA
HETATM    8  H   UNL     1      25.218  49.960  47.278  1.00  0.00     0.189 HD
HETATM    9  C   UNL     1      22.281  50.042  48.221  1.00  0.00     0.092 A 
HETATM   10  C   UNL     1      22.838  49.184  49.212  1.00  0.00     0.071 A 
BRANCH   9  11
HETATM   11  C   UNL     1      20.884  50.481  48.070  1.00  0.00     0.028 A 
HETATM   12  C   UNL     1      19.900  49.701  47.424  1.00  0.00     0.081 A 
HETATM   13  C   UNL     1      18.596  50.206  47.299  1.00  0.00     0.038 A 
HETATM   14  C   UNL     1      18.260  51.458  47.820  1.00  0.00     0.003 A 
HETATM   15  C   UNL     1      19.220  52.222  48.472  1.00  0.00     0.001 A 
HETATM   16  C   UNL     1      20.521  51.735  48.595  1.00  0.00     0.017 A 
BRANCH  12  17
HETATM   17  O   UNL     1      20.279  48.472  46.945  1.00  0.00    -0.351 OA
BRANCH  17  18
HETATM   18  C   UNL     1      19.470  47.345  47.279  1.00  0.00     0.171 C 
HETATM   19  C   UNL     1      19.840  46.913  48.688  1.00  0.00     0.034 C 
ENDBRANCH  17  18
ENDBRANCH  12  17
ENDBRANCH   9  11
ENDBRANCH   1   5
BRANCH   2  20
HETATM   20  N   UNL     1      25.847  46.574  51.008  1.00  0.00    -0.183 NA
HETATM   21  C   UNL     1      25.428  45.873  52.012  1.00  0.00     0.152 C 
BRANCH  21  22
HETATM   22  C   UNL     1      26.350  45.011  52.720  1.00  0.00     0.011 A 
HETATM   23  C   UNL     1      27.275  45.384  53.748  1.00  0.00     0.004 A 
HETATM   24  C   UNL     1      27.948  44.227  54.143  1.00  0.00     0.043 A 
HETATM   25  C   UNL     1      27.605  46.601  54.384  1.00  0.00     0.014 A 
HETATM   26  C   UNL     1      28.931  44.222  55.140  1.00  0.00     0.030 A 
HETATM   27  N   UNL     1      27.455  43.190  53.385  1.00  0.00    -0.364 N 
HETATM   28  C   UNL     1      29.238  45.440  55.754  1.00  0.00     0.002 A 
HETATM   29  C   UNL     1      28.586  46.614  55.383  1.00  0.00     0.001 A 
HETATM   30  H   UNL     1      27.760  42.229  53.455  1.00  0.00     0.165 HD
HETATM   31  C   UNL     1      26.495  43.649  52.526  1.00  0.00     0.102 A 
ENDBRANCH  21  22
ENDBRANCH   2  20
TORSDOF 6
ENDMDL
MODEL 5
REMARK VINA RESULT:      -8.7      1.301      2.444
REMARK  6 active torsions:
REMARK  status: ('A' for Active; 'I' for Inactive)
REMARK    1  A    between atoms: C_2  and  O_3 
REMARK    2  A    between atoms: O_3  and  C_4 
REMARK    3  A    between atoms: C_5  and  C_6 
REMARK    4  A    between atoms: C_10  and  C_11 
REMARK       I    between atoms: C_11  and  N_12 
REMARK    5  A    between atoms: N_12  and  N_13 
REMARK    6  A    between atoms: C_14  and  C_15 
ROOT
HETATM    1  C   UNL     1      24.294  47.304  50.022  1.00  0.00     0.289 C 
HETATM    2  N   UNL     1      23.132  46.844  49.419  1.00  0.00    -0.242 N 
HETATM    3  O   UNL     1      24.756  48.431  49.871  1.00  0.00    -0.264 OA
HETATM    4  H   UNL     1      22.820  45.896  49.576  1.00  0.00     0.192 HD
ENDROOT
BRANCH   1   5
HETATM    5  C   UNL     1      24.947  46.337  50.869  1.00  0.00     0.121 A 
HETATM    6  N   UNL     1      24.253  45.313  51.446  1.00  0.00    -0.272 N 
HETATM    7  N   UNL     1      25.003  44.489  52.192  1.00  0.00    -0.174 NA
HETATM    8  H   UNL     1      23.259  45.127  51.353  1.00  0.00     0.189 HD
HETATM    9  C   UNL     1      26.244  45.003  52.126  1.00  0.00     0.092 A 
HETATM   10  C   UNL     1      26.249  46.155  51.289  1.00  0.00     0.071 A 
BRANCH   9  11
HETATM   11  C   UNL     1      27.377  44.366  52.816  1.00  0.00     0.028 A 
HETATM   12  C   UNL     1      28.043  43.228  52.310  1.00  0.00     0.081 A 
HETATM   13  C   UNL     1      29.099  42.667  53.045  1.00  0.00     0.038 A 
HETATM   14  C   UNL     1      29.506  43.229  54.258  1.00  0.00     0.003 A 
HETATM   15  C   UNL     1      28.866  44.359  54.752  1.00  0.00     0.001 A 
HETATM   16  C   UNL     1      27.810  44.922  54.035  1.00  0.00     0.017 A 
BRANCH  12  17
HETATM   17  O   UNL     1      27.614  42.725  51.107  1.00  0.00    -0.351 OA
BRANCH  17  18
HETATM   18  C   UNL     1      27.094  41.397  51.085  1.00  0.00     0.171 C 
HETATM   19  C   UNL     1      25.743  41.440  50.392  1.00  0.00     0.034 C 
ENDBRANCH  17  18
ENDBRANCH  12  17
ENDBRANCH   9  11
ENDBRANCH   1   5
BRANCH   2  20
HETATM   20  N   UNL     1      22.396  47.670  48.615  1.00  0.00    -0.183 NA
HETATM   21  C   UNL     1      21.112  47.532  48.699  1.00  0.00     0.152 C 
BRANCH  21  22
HETATM   22  C   UNL     1      20.245  48.370  47.898  1.00  0.00     0.011 A 
HETATM   23  C   UNL     1      19.864  49.726  48.158  1.00  0.00     0.004 A 
HETATM   24  C   UNL     1      19.027  50.130  47.116  1.00  0.00     0.043 A 
HETATM   25  C   UNL     1      20.153  50.654  49.182  1.00  0.00     0.014 A 
HETATM   26  C   UNL     1      18.466  51.412  47.045  1.00  0.00     0.030 A 
HETATM   27  N   UNL     1      18.901  49.063  46.258  1.00  0.00    -0.364 N 
HETATM   28  C   UNL     1      18.769  52.310  48.072  1.00  0.00     0.002 A 
HETATM   29  C   UNL     1      19.600  51.939  49.127  1.00  0.00     0.001 A 
HETATM   30  H   UNL     1      18.351  49.067  45.410  1.00  0.00     0.165 HD
HETATM   31  C   UNL     1      19.628  48.000  46.718  1.00  0.00     0.102 A 
ENDBRANCH  21  22
ENDBRANCH   2  20
TORSDOF 6
ENDMDL
MODEL 6
REMARK VINA RESULT:      -8.5      2.003     10.295
REMARK  6 active torsions:
REMARK  status: ('A' for Active; 'I' for Inactive)
REMARK    1  A    between atoms: C_2  and  O_3 
REMARK    2  A    between atoms: O_3  and  C_4 
REMARK    3  A    between atoms: C_5  and  C_6 
REMARK    4  A    between atoms: C_10  and  C_11 
REMARK       I    between atoms: C_11  and  N_12 
REMARK    5  A    between atoms: N_12  and  N_13 
REMARK    6  A    between atoms: C_14  and  C_15 
ROOT
HETATM    1  C   UNL     1      25.065  47.326  50.554  1.00  0.00     0.289 C 
HETATM    2  N   UNL     1      25.118  46.592  51.730  1.00  0.00    -0.242 N 
HETATM    3  O   UNL     1      25.911  48.144  50.207  1.00  0.00    -0.264 OA
HETATM    4  H   UNL     1      24.375  45.946  51.959  1.00  0.00     0.192 HD
ENDROOT
BRANCH   1   5
HETATM    5  C   UNL     1      23.910  47.055  49.734  1.00  0.00     0.121 A 
HETATM    6  N   UNL     1      23.431  45.786  49.578  1.00  0.00    -0.272 N 
HETATM    7  N   UNL     1      22.343  45.698  48.800  1.00  0.00    -0.174 NA
HETATM    8  H   UNL     1      23.811  44.939  49.992  1.00  0.00     0.189 HD
HETATM    9  C   UNL     1      22.104  46.961  48.404  1.00  0.00     0.092 A 
HETATM   10  C   UNL     1      23.059  47.842  48.986  1.00  0.00     0.071 A 
BRANCH   9  11
HETATM   11  C   UNL     1      20.965  47.290  47.532  1.00  0.00     0.028 A 
HETATM   12  C   UNL     1      19.988  48.250  47.875  1.00  0.00     0.081 A 
HETATM   13  C   UNL     1      18.919  48.485  46.996  1.00  0.00     0.038 A 
HETATM   14  C   UNL     1      18.821  47.795  45.785  1.00  0.00     0.003 A 
HETATM   15  C   UNL     1      19.789  46.863  45.435  1.00  0.00     0.001 A 
HETATM   16  C   UNL     1      20.852  46.614  46.302  1.00  0.00     0.017 A 
BRANCH  12  17
HETATM   17  O   UNL     1      20.140  48.911  49.068  1.00  0.00    -0.351 OA
BRANCH  17  18
HETATM   18  C   UNL     1      19.592  50.223  49.181  1.00  0.00     0.171 C 
HETATM   19  C   UNL     1      20.712  51.216  48.921  1.00  0.00     0.034 C 
ENDBRANCH  17  18
ENDBRANCH  12  17
ENDBRANCH   9  11
ENDBRANCH   1   5
BRANCH   2  20
HETATM   20  N   UNL     1      26.177  46.728  52.584  1.00  0.00    -0.183 NA
HETATM   21  C   UNL     1      26.285  45.811  53.491  1.00  0.00     0.152 C 
BRANCH  21  22
HETATM   22  C   UNL     1      27.382  45.860  54.435  1.00  0.00     0.011 A 
HETATM   23  C   UNL     1      28.444  44.911  54.583  1.00  0.00     0.004 A 
HETATM   24  C   UNL     1      29.273  45.370  55.608  1.00  0.00     0.043 A 
HETATM   25  C   UNL     1      28.784  43.700  53.940  1.00  0.00     0.014 A 
HETATM   26  C   UNL     1      30.421  44.684  56.022  1.00  0.00     0.030 A 
HETATM   27  N   UNL     1      28.735  46.550  56.068  1.00  0.00    -0.364 N 
HETATM   28  C   UNL     1      30.734  43.489  55.368  1.00  0.00     0.002 A 
HETATM   29  C   UNL     1      29.928  43.001  54.342  1.00  0.00     0.001 A 
HETATM   30  H   UNL     1      29.127  47.109  56.813  1.00  0.00     0.165 HD
HETATM   31  C   UNL     1      27.599  46.853  55.371  1.00  0.00     0.102 A 
ENDBRANCH  21  22
ENDBRANCH   2  20
TORSDOF 6
ENDMDL
MODEL 7
REMARK VINA RESULT:      -8.5      7.476     10.964
REMARK  6 active torsions:
REMARK  status: ('A' for Active; 'I' for Inactive)
REMARK    1  A    between atoms: C_2  and  O_3 
REMARK    2  A    between atoms: O_3  and  C_4 
REMARK    3  A    between atoms: C_5  and  C_6 
REMARK    4  A    between atoms: C_10  and  C_11 
REMARK       I    between atoms: C_11  and  N_12 
REMARK    5  A    between atoms: N_12  and  N_13 
REMARK    6  A    between atoms: C_14  and  C_15 
ROOT
HETATM    1  C   UNL     1      26.767  42.235  51.470  1.00  0.00     0.289 C 
HETATM    2  N   UNL     1      27.739  41.936  52.414  1.00  0.00    -0.242 N 
HETATM    3  O   UNL     1      25.968  43.162  51.565  1.00  0.00    -0.264 OA
HETATM    4  H   UNL     1      28.352  41.145  52.277  1.00  0.00     0.192 HD
ENDROOT
BRANCH   1   5
HETATM    5  C   UNL     1      26.756  41.355  50.328  1.00  0.00     0.121 A 
HETATM    6  N   UNL     1      25.585  40.914  49.782  1.00  0.00    -0.272 N 
HETATM    7  N   UNL     1      25.739  40.116  48.715  1.00  0.00    -0.174 NA
HETATM    8  H   UNL     1      24.646  41.138  50.099  1.00  0.00     0.189 HD
HETATM    9  C   UNL     1      27.070  40.005  48.562  1.00  0.00     0.092 A 
HETATM   10  C   UNL     1      27.740  40.784  49.547  1.00  0.00     0.071 A 
BRANCH   9  11
HETATM   11  C   UNL     1      27.654  39.205  47.473  1.00  0.00     0.028 A 
HETATM   12  C   UNL     1      28.479  38.083  47.702  1.00  0.00     0.081 A 
HETATM   13  C   UNL     1      29.017  37.391  46.605  1.00  0.00     0.038 A 
HETATM   14  C   UNL     1      28.732  37.790  45.296  1.00  0.00     0.003 A 
HETATM   15  C   UNL     1      27.906  38.883  45.065  1.00  0.00     0.001 A 
HETATM   16  C   UNL     1      27.372  39.583  46.146  1.00  0.00     0.017 A 
BRANCH  12  17
HETATM   17  O   UNL     1      28.715  37.724  49.006  1.00  0.00    -0.351 OA
BRANCH  17  18
HETATM   18  C   UNL     1      30.023  37.937  49.531  1.00  0.00     0.171 C 
HETATM   19  C   UNL     1      29.932  37.860  51.046  1.00  0.00     0.034 C 
ENDBRANCH  17  18
ENDBRANCH  12  17
ENDBRANCH   9  11
ENDBRANCH   1   5
BRANCH   2  20
HETATM   20  N   UNL     1      27.880  42.711  53.532  1.00  0.00    -0.183 NA
HETATM   21  C   UNL     1      28.832  43.586  53.488  1.00  0.00     0.152 C 
BRANCH  21  22
HETATM   22  C   UNL     1      29.053  44.464  54.617  1.00  0.00     0.011 A 
HETATM   23  C   UNL     1      29.987  44.285  55.688  1.00  0.00     0.004 A 
HETATM   24  C   UNL     1      29.857  45.382  56.542  1.00  0.00     0.043 A 
HETATM   25  C   UNL     1      30.937  43.292  56.015  1.00  0.00     0.014 A 
HETATM   26  C   UNL     1      30.626  45.537  57.703  1.00  0.00     0.030 A 
HETATM   27  N   UNL     1      28.881  46.195  56.014  1.00  0.00    -0.364 N 
HETATM   28  C   UNL     1      31.558  44.540  58.001  1.00  0.00     0.002 A 
HETATM   29  C   UNL     1      31.713  43.432  57.171  1.00  0.00     0.001 A 
HETATM   30  H   UNL     1      28.574  47.067  56.424  1.00  0.00     0.165 HD
HETATM   31  C   UNL     1      28.391  45.654  54.859  1.00  0.00     0.102 A 
ENDBRANCH  21  22
ENDBRANCH   2  20
TORSDOF 6
ENDMDL
MODEL 8
REMARK VINA RESULT:      -8.4      2.374     10.309
REMARK  6 active torsions:
REMARK  status: ('A' for Active; 'I' for Inactive)
REMARK    1  A    between atoms: C_2  and  O_3 
REMARK    2  A    between atoms: O_3  and  C_4 
REMARK    3  A    between atoms: C_5  and  C_6 
REMARK    4  A    between atoms: C_10  and  C_11 
REMARK       I    between atoms: C_11  and  N_12 
REMARK    5  A    between atoms: N_12  and  N_13 
REMARK    6  A    between atoms: C_14  and  C_15 
ROOT
HETATM    1  C   UNL     1      25.023  44.831  49.849  1.00  0.00     0.289 C 
HETATM    2  N   UNL     1      25.593  45.147  51.074  1.00  0.00    -0.242 N 
HETATM    3  O   UNL     1      25.270  43.812  49.211  1.00  0.00    -0.264 OA
HETATM    4  H   UNL     1      25.355  46.014  51.535  1.00  0.00     0.192 HD
ENDROOT
BRANCH   1   5
HETATM    5  C   UNL     1      24.089  45.811  49.356  1.00  0.00     0.121 A 
HETATM    6  N   UNL     1      23.177  45.501  48.388  1.00  0.00    -0.272 N 
HETATM    7  N   UNL     1      22.368  46.514  48.046  1.00  0.00    -0.174 NA
HETATM    8  H   UNL     1      23.061  44.601  47.931  1.00  0.00     0.189 HD
HETATM    9  C   UNL     1      22.776  47.547  48.804  1.00  0.00     0.092 A 
HETATM   10  C   UNL     1      23.845  47.137  49.651  1.00  0.00     0.071 A 
BRANCH   9  11
HETATM   11  C   UNL     1      22.118  48.862  48.730  1.00  0.00     0.028 A 
HETATM   12  C   UNL     1      20.748  49.051  49.015  1.00  0.00     0.081 A 
HETATM   13  C   UNL     1      20.193  50.335  48.894  1.00  0.00     0.038 A 
HETATM   14  C   UNL     1      20.981  51.424  48.514  1.00  0.00     0.003 A 
HETATM   15  C   UNL     1      22.333  51.246  48.249  1.00  0.00     0.001 A 
HETATM   16  C   UNL     1      22.895  49.974  48.358  1.00  0.00     0.017 A 
BRANCH  12  17
HETATM   17  O   UNL     1      20.022  47.951  49.400  1.00  0.00    -0.351 OA
BRANCH  17  18
HETATM   18  C   UNL     1      18.808  48.169  50.116  1.00  0.00     0.171 C 
HETATM   19  C   UNL     1      17.662  47.693  49.239  1.00  0.00     0.034 C 
ENDBRANCH  17  18
ENDBRANCH  12  17
ENDBRANCH   9  11
ENDBRANCH   1   5
BRANCH   2  20
HETATM   20  N   UNL     1      26.473  44.287  51.671  1.00  0.00    -0.183 NA
HETATM   21  C   UNL     1      27.278  44.820  52.533  1.00  0.00     0.152 C 
BRANCH  21  22
HETATM   22  C   UNL     1      28.238  43.990  53.229  1.00  0.00     0.011 A 
HETATM   23  C   UNL     1      29.023  44.343  54.374  1.00  0.00     0.004 A 
HETATM   24  C   UNL     1      29.799  43.230  54.704  1.00  0.00     0.043 A 
HETATM   25  C   UNL     1      29.149  45.505  55.165  1.00  0.00     0.014 A 
HETATM   26  C   UNL     1      30.692  43.219  55.784  1.00  0.00     0.030 A 
HETATM   27  N   UNL     1      29.501  42.241  53.796  1.00  0.00    -0.364 N 
HETATM   28  C   UNL     1      30.795  44.383  56.551  1.00  0.00     0.002 A 
HETATM   29  C   UNL     1      30.037  45.511  56.247  1.00  0.00     0.001 A 
HETATM   30  H   UNL     1      29.914  41.319  53.792  1.00  0.00     0.165 HD
HETATM   31  C   UNL     1      28.564  42.686  52.905  1.00  0.00     0.102 A 
ENDBRANCH  21  22
ENDBRANCH   2  20
TORSDOF 6
ENDMDL
MODEL 9
REMARK VINA RESULT:      -8.0      1.823      2.149
REMARK  6 active torsions:
REMARK  status: ('A' for Active; 'I' for Inactive)
REMARK    1  A    between atoms: C_2  and  O_3 
REMARK    2  A    between atoms: O_3  and  C_4 
REMARK    3  A    between atoms: C_5  and  C_6 
REMARK    4  A    between atoms: C_10  and  C_11 
REMARK       I    between atoms: C_11  and  N_12 
REMARK    5  A    between atoms: N_12  and  N_13 
REMARK    6  A    between atoms: C_14  and  C_15 
ROOT
HETATM    1  C   UNL     1      23.318  48.501  49.535  1.00  0.00     0.289 C 
HETATM    2  N   UNL     1      22.140  47.818  49.271  1.00  0.00    -0.242 N 
HETATM    3  O   UNL     1      23.442  49.721  49.476  1.00  0.00    -0.264 OA
HETATM    4  H   UNL     1      22.116  46.809  49.322  1.00  0.00     0.192 HD
ENDROOT
BRANCH   1   5
HETATM    5  C   UNL     1      24.428  47.655  49.896  1.00  0.00     0.121 A 
HETATM    6  N   UNL     1      25.701  47.941  49.491  1.00  0.00    -0.272 N 
HETATM    7  N   UNL     1      26.626  47.070  49.920  1.00  0.00    -0.174 NA
HETATM    8  H   UNL     1      25.993  48.731  48.923  1.00  0.00     0.189 HD
HETATM    9  C   UNL     1      25.933  46.155  50.620  1.00  0.00     0.092 A 
HETATM   10  C   UNL     1      24.552  46.500  50.640  1.00  0.00     0.071 A 
BRANCH   9  11
HETATM   11  C   UNL     1      26.604  45.019  51.274  1.00  0.00     0.028 A 
HETATM   12  C   UNL     1      26.999  45.039  52.629  1.00  0.00     0.081 A 
HETATM   13  C   UNL     1      27.658  43.922  53.168  1.00  0.00     0.038 A 
HETATM   14  C   UNL     1      27.909  42.792  52.387  1.00  0.00     0.003 A 
HETATM   15  C   UNL     1      27.507  42.761  51.057  1.00  0.00     0.001 A 
HETATM   16  C   UNL     1      26.859  43.866  50.508  1.00  0.00     0.017 A 
BRANCH  12  17
HETATM   17  O   UNL     1      26.714  46.167  53.357  1.00  0.00    -0.351 OA
BRANCH  17  18
HETATM   18  C   UNL     1      27.215  46.247  54.690  1.00  0.00     0.171 C 
HETATM   19  C   UNL     1      27.820  47.628  54.875  1.00  0.00     0.034 C 
ENDBRANCH  17  18
ENDBRANCH  12  17
ENDBRANCH   9  11
ENDBRANCH   1   5
BRANCH   2  20
HETATM   20  N   UNL     1      21.001  48.502  48.947  1.00  0.00    -0.183 NA
HETATM   21  C   UNL     1      19.890  47.916  49.259  1.00  0.00     0.152 C 
BRANCH  21  22
HETATM   22  C   UNL     1      18.629  48.565  48.970  1.00  0.00     0.011 A 
HETATM   23  C   UNL     1      18.279  49.933  49.215  1.00  0.00     0.004 A 
HETATM   24  C   UNL     1      16.968  50.113  48.770  1.00  0.00     0.043 A 
HETATM   25  C   UNL     1      18.954  51.040  49.773  1.00  0.00     0.014 A 
HETATM   26  C   UNL     1      16.299  51.341  48.853  1.00  0.00     0.030 A 
HETATM   27  N   UNL     1      16.536  48.904  48.276  1.00  0.00    -0.364 N 
HETATM   28  C   UNL     1      16.992  52.420  49.409  1.00  0.00     0.002 A 
HETATM   29  C   UNL     1      18.300  52.274  49.864  1.00  0.00     0.001 A 
HETATM   30  H   UNL     1      15.620  48.736  47.884  1.00  0.00     0.165 HD
HETATM   31  C   UNL     1      17.525  47.967  48.392  1.00  0.00     0.102 A 
ENDBRANCH  21  22
ENDBRANCH   2  20
TORSDOF 6
ENDMDL
MODEL 10
REMARK VINA RESULT:      -8.0      6.846      9.810
REMARK  6 active torsions:
REMARK  status: ('A' for Active; 'I' for Inactive)
REMARK    1  A    between atoms: C_2  and  O_3 
REMARK    2  A    between atoms: O_3  and  C_4 
REMARK    3  A    between atoms: C_5  and  C_6 
REMARK    4  A    between atoms: C_10  and  C_11 
REMARK       I    between atoms: C_11  and  N_12 
REMARK    5  A    between atoms: N_12  and  N_13 
REMARK    6  A    between atoms: C_14  and  C_15 
ROOT
HETATM    1  C   UNL     1      28.169  41.165  50.909  1.00  0.00     0.289 C 
HETATM    2  N   UNL     1      28.628  39.857  50.938  1.00  0.00    -0.242 N 
HETATM    3  O   UNL     1      27.689  41.711  49.920  1.00  0.00    -0.264 OA
HETATM    4  H   UNL     1      29.028  39.478  51.785  1.00  0.00     0.192 HD
ENDROOT
BRANCH   1   5
HETATM    5  C   UNL     1      28.297  41.869  52.160  1.00  0.00     0.121 A 
HETATM    6  N   UNL     1      27.258  41.942  53.044  1.00  0.00    -0.272 N 
HETATM    7  N   UNL     1      27.536  42.617  54.169  1.00  0.00    -0.174 NA
HETATM    8  H   UNL     1      26.334  41.536  52.928  1.00  0.00     0.189 HD
HETATM    9  C   UNL     1      28.807  43.029  54.014  1.00  0.00     0.092 A 
HETATM   10  C   UNL     1      29.321  42.563  52.771  1.00  0.00     0.071 A 
BRANCH   9  11
HETATM   11  C   UNL     1      29.495  43.807  55.057  1.00  0.00     0.028 A 
HETATM   12  C   UNL     1      29.079  45.097  55.453  1.00  0.00     0.081 A 
HETATM   13  C   UNL     1      29.808  45.781  56.438  1.00  0.00     0.038 A 
HETATM   14  C   UNL     1      30.925  45.196  57.039  1.00  0.00     0.003 A 
HETATM   15  C   UNL     1      31.328  43.920  56.667  1.00  0.00     0.001 A 
HETATM   16  C   UNL     1      30.617  43.232  55.683  1.00  0.00     0.017 A 
BRANCH  12  17
HETATM   17  O   UNL     1      27.966  45.620  54.841  1.00  0.00    -0.351 OA
BRANCH  17  18
HETATM   18  C   UNL     1      27.803  47.037  54.850  1.00  0.00     0.171 C 
HETATM   19  C   UNL     1      26.457  47.350  54.220  1.00  0.00     0.034 C 
ENDBRANCH  17  18
ENDBRANCH  12  17
ENDBRANCH   9  11
ENDBRANCH   1   5
BRANCH   2  20
HETATM   20  N   UNL     1      28.537  39.066  49.826  1.00  0.00    -0.183 NA
HETATM   21  C   UNL     1      27.379  38.526  49.618  1.00  0.00     0.152 C 
BRANCH  21  22
HETATM   22  C   UNL     1      27.177  37.683  48.459  1.00  0.00     0.011 A 
HETATM   23  C   UNL     1      27.452  38.005  47.091  1.00  0.00     0.004 A 
HETATM   24  C   UNL     1      27.110  36.889  46.324  1.00  0.00     0.043 A 
HETATM   25  C   UNL     1      27.962  39.142  46.427  1.00  0.00     0.014 A 
HETATM   26  C   UNL     1      27.253  36.852  44.931  1.00  0.00     0.030 A 
HETATM   27  N   UNL     1      26.643  35.928  47.190  1.00  0.00    -0.364 N 
HETATM   28  C   UNL     1      27.761  37.991  44.301  1.00  0.00     0.002 A 
HETATM   29  C   UNL     1      28.110  39.121  45.035  1.00  0.00     0.001 A 
HETATM   30  H   UNL     1      26.323  35.010  46.913  1.00  0.00     0.165 HD
HETATM   31  C   UNL     1      26.678  36.393  48.474  1.00  0.00     0.102 A 
ENDBRANCH  21  22
ENDBRANCH   2  20
TORSDOF 6
ENDMDL
