MODEL 1
REMARK VINA RESULT:      -8.2      0.000      0.000
REMARK  7 active torsions:
REMARK  status: ('A' for Active; 'I' for Inactive)
REMARK    1  A    between atoms: S_2  and  C_3 
REMARK    2  A    between atoms: C_3  and  C_4 
REMARK    3  A    between atoms: C_4  and  C_5 
REMARK    4  A    between atoms: C_5  and  N_6 
REMARK    5  A    between atoms: C_5  and  C_10 
REMARK       I    between atoms: N_6  and  C_7 
REMARK       I    between atoms: C_7  and  N_8 
REMARK       I    between atoms: C_10  and  N_11 
REMARK    6  A    between atoms: N_11  and  N_12 
REMARK       I    between atoms: N_12  and  C_13 
REMARK    7  A    between atoms: C_13  and  C_14 
ROOT
HETATM    1  C   UNL     1      24.311  47.919  49.680  1.00  0.00     0.259 C 
HETATM    2  N   UNL     1      24.260  46.774  50.446  1.00  0.00    -0.265 N 
HETATM    3  O   UNL     1      25.353  48.575  49.574  1.00  0.00    -0.269 OA
HETATM    4  H   UNL     1      23.440  46.179  50.558  1.00  0.00     0.190 HD
ENDROOT
BRANCH   2   5
HETATM    5  N   UNL     1      25.370  46.432  51.224  1.00  0.00    -0.263 N 
HETATM    6  C   UNL     1      25.279  45.343  52.076  1.00  0.00     0.278 C 
HETATM    7  O   UNL     1      24.261  44.647  52.060  1.00  0.00    -0.265 OA
HETATM    8  H   UNL     1      26.168  47.067  51.210  1.00  0.00     0.190 HD
BRANCH   6   9
HETATM    9  C   UNL     1      26.422  45.107  52.948  1.00  0.00     0.097 A 
HETATM   10  S   UNL     1      27.379  43.697  52.780  1.00  0.00    -0.082 SA
HETATM   11  C   UNL     1      28.465  44.166  54.023  1.00  0.00     0.017 A 
HETATM   12  C   UNL     1      28.095  45.388  54.591  1.00  0.00     0.004 A 
HETATM   13  C   UNL     1      29.599  43.456  54.463  1.00  0.00     0.020 A 
HETATM   14  C   UNL     1      26.910  45.914  53.958  1.00  0.00     0.068 A 
HETATM   15  C   UNL     1      28.903  45.896  55.642  1.00  0.00     0.014 A 
HETATM   16 CL   UNL     1      26.223  47.409  54.465  1.00  0.00    -0.082 Cl
HETATM   17  C   UNL     1      30.030  45.195  56.082  1.00  0.00     0.001 A 
HETATM   18  C   UNL     1      30.375  43.988  55.495  1.00  0.00     0.001 A 
ENDBRANCH   6   9
ENDBRANCH   2   5
BRANCH   1  19
HETATM   19  C   UNL     1      23.032  48.233  48.863  1.00  0.00     0.180 C 
BRANCH  19  20
HETATM   20  C   UNL     1      22.454  47.011  48.128  1.00  0.00     0.045 C 
BRANCH  20  21
HETATM   21  C   UNL     1      20.936  47.070  47.968  1.00  0.00     0.076 C 
BRANCH  21  22
HETATM   22  S   UNL     1      20.204  45.505  48.552  1.00  0.00    -0.173 SA
HETATM   23  C   UNL     1      21.730  44.589  48.866  1.00  0.00     0.089 C 
ENDBRANCH  21  22
ENDBRANCH  20  21
ENDBRANCH  19  20
BRANCH  19  24
HETATM   24  N   UNL     1      22.093  48.952  49.730  1.00  0.00    -0.330 N 
HETATM   25  C   UNL     1      22.131  50.308  49.877  1.00  0.00     0.314 C 
HETATM   26  N   UNL     1      21.082  50.786  50.589  1.00  0.00    -0.352 N 
HETATM   27  O   UNL     1      23.025  51.044  49.491  1.00  0.00    -0.248 OA
HETATM   28  H   UNL     1      20.181  50.346  50.486  1.00  0.00     0.160 HD
HETATM   29  H   UNL     1      21.060  51.798  50.638  1.00  0.00     0.160 HD
HETATM   30  H   UNL     1      21.158  48.572  49.740  1.00  0.00     0.165 HD
ENDBRANCH  19  24
ENDBRANCH   1  19
TORSDOF 7
ENDMDL
MODEL 2
REMARK VINA RESULT:      -8.0      1.441      1.907
REMARK  7 active torsions:
REMARK  status: ('A' for Active; 'I' for Inactive)
REMARK    1  A    between atoms: S_2  and  C_3 
REMARK    2  A    between atoms: C_3  and  C_4 
REMARK    3  A    between atoms: C_4  and  C_5 
REMARK    4  A    between atoms: C_5  and  N_6 
REMARK    5  A    between atoms: C_5  and  C_10 
REMARK       I    between atoms: N_6  and  C_7 
REMARK       I    between atoms: C_7  and  N_8 
REMARK       I    between atoms: C_10  and  N_11 
REMARK    6  A    between atoms: N_11  and  N_12 
REMARK       I    between atoms: N_12  and  C_13 
REMARK    7  A    between atoms: C_13  and  C_14 
ROOT
HETATM    1  C   UNL     1      24.316  47.869  49.707  1.00  0.00     0.259 C 
HETATM    2  N   UNL     1      24.323  46.672  50.392  1.00  0.00    -0.265 N 
HETATM    3  O   UNL     1      25.331  48.568  49.624  1.00  0.00    -0.269 OA
HETATM    4  H   UNL     1      23.526  46.042  50.479  1.00  0.00     0.190 HD
ENDROOT
BRANCH   2   5
HETATM    5  N   UNL     1      25.462  46.317  51.119  1.00  0.00    -0.263 N 
HETATM    6  C   UNL     1      25.375  45.277  52.031  1.00  0.00     0.278 C 
HETATM    7  O   UNL     1      24.328  44.631  52.112  1.00  0.00    -0.265 OA
HETATM    8  H   UNL     1      26.285  46.912  51.024  1.00  0.00     0.190 HD
BRANCH   6   9
HETATM    9  C   UNL     1      26.558  45.031  52.844  1.00  0.00     0.097 A 
HETATM   10  S   UNL     1      26.975  46.082  54.130  1.00  0.00    -0.082 SA
HETATM   11  C   UNL     1      28.335  45.142  54.590  1.00  0.00     0.017 A 
HETATM   12  C   UNL     1      28.495  44.033  53.756  1.00  0.00     0.004 A 
HETATM   13  C   UNL     1      29.215  45.400  55.659  1.00  0.00     0.020 A 
HETATM   14  C   UNL     1      27.460  43.987  52.752  1.00  0.00     0.068 A 
HETATM   15  C   UNL     1      29.590  43.167  54.017  1.00  0.00     0.014 A 
HETATM   16 CL   UNL     1      27.416  42.728  51.579  1.00  0.00    -0.082 Cl
HETATM   17  C   UNL     1      30.466  43.419  55.076  1.00  0.00     0.001 A 
HETATM   18  C   UNL     1      30.277  44.525  55.890  1.00  0.00     0.001 A 
ENDBRANCH   6   9
ENDBRANCH   2   5
BRANCH   1  19
HETATM   19  C   UNL     1      23.007  48.193  48.942  1.00  0.00     0.180 C 
BRANCH  19  20
HETATM   20  C   UNL     1      22.355  46.964  48.286  1.00  0.00     0.045 C 
BRANCH  20  21
HETATM   21  C   UNL     1      21.010  47.274  47.633  1.00  0.00     0.076 C 
BRANCH  21  22
HETATM   22  S   UNL     1      19.680  46.432  48.554  1.00  0.00    -0.173 SA
HETATM   23  C   UNL     1      18.775  47.891  49.121  1.00  0.00     0.089 C 
ENDBRANCH  21  22
ENDBRANCH  20  21
ENDBRANCH  19  20
BRANCH  19  24
HETATM   24  N   UNL     1      22.136  48.975  49.825  1.00  0.00    -0.330 N 
HETATM   25  C   UNL     1      22.052  50.334  49.745  1.00  0.00     0.314 C 
HETATM   26  N   UNL     1      21.075  50.845  50.535  1.00  0.00    -0.352 N 
HETATM   27  O   UNL     1      22.795  51.061  49.106  1.00  0.00    -0.248 OA
HETATM   28  H   UNL     1      20.220  50.323  50.651  1.00  0.00     0.160 HD
HETATM   29  H   UNL     1      20.953  51.844  50.424  1.00  0.00     0.160 HD
HETATM   30  H   UNL     1      21.258  48.530  50.048  1.00  0.00     0.165 HD
ENDBRANCH  19  24
ENDBRANCH   1  19
TORSDOF 7
ENDMDL
MODEL 3
REMARK VINA RESULT:      -7.9      2.155      2.667
REMARK  7 active torsions:
REMARK  status: ('A' for Active; 'I' for Inactive)
REMARK    1  A    between atoms: S_2  and  C_3 
REMARK    2  A    between atoms: C_3  and  C_4 
REMARK    3  A    between atoms: C_4  and  C_5 
REMARK    4  A    between atoms: C_5  and  N_6 
REMARK    5  A    between atoms: C_5  and  C_10 
REMARK       I    between atoms: N_6  and  C_7 
REMARK       I    between atoms: C_7  and  N_8 
REMARK       I    between atoms: C_10  and  N_11 
REMARK    6  A    between atoms: N_11  and  N_12 
REMARK       I    between atoms: N_12  and  C_13 
REMARK    7  A    between atoms: C_13  and  C_14 
ROOT
HETATM    1  C   UNL     1      24.939  45.907  49.698  1.00  0.00     0.259 C 
HETATM    2  N   UNL     1      24.948  46.190  51.047  1.00  0.00    -0.265 N 
HETATM    3  O   UNL     1      25.865  45.285  49.166  1.00  0.00    -0.269 OA
HETATM    4  H   UNL     1      24.207  46.680  51.548  1.00  0.00     0.190 HD
ENDROOT
BRANCH   2   5
HETATM    5  N   UNL     1      26.091  45.889  51.793  1.00  0.00    -0.263 N 
HETATM    6  C   UNL     1      25.977  45.021  52.868  1.00  0.00     0.278 C 
HETATM    7  O   UNL     1      24.898  44.465  53.083  1.00  0.00    -0.265 OA
HETATM    8  H   UNL     1      26.942  46.407  51.578  1.00  0.00     0.190 HD
BRANCH   6   9
HETATM    9  C   UNL     1      27.173  44.838  53.679  1.00  0.00     0.097 A 
HETATM   10  S   UNL     1      27.652  46.025  54.817  1.00  0.00    -0.082 SA
HETATM   11  C   UNL     1      28.996  45.105  55.359  1.00  0.00     0.017 A 
HETATM   12  C   UNL     1      29.103  43.898  54.664  1.00  0.00     0.004 A 
HETATM   13  C   UNL     1      29.910  45.464  56.368  1.00  0.00     0.020 A 
HETATM   14  C   UNL     1      28.042  43.764  53.695  1.00  0.00     0.068 A 
HETATM   15  C   UNL     1      30.178  43.036  55.005  1.00  0.00     0.014 A 
HETATM   16 CL   UNL     1      27.932  42.372  52.687  1.00  0.00    -0.082 Cl
HETATM   17  C   UNL     1      31.089  43.388  56.006  1.00  0.00     0.001 A 
HETATM   18  C   UNL     1      30.953  44.590  56.682  1.00  0.00     0.001 A 
ENDBRANCH   6   9
ENDBRANCH   2   5
BRANCH   1  19
HETATM   19  C   UNL     1      23.641  46.289  48.943  1.00  0.00     0.180 C 
BRANCH  19  20
HETATM   20  C   UNL     1      22.698  45.099  48.695  1.00  0.00     0.045 C 
BRANCH  20  21
HETATM   21  C   UNL     1      22.705  44.080  49.833  1.00  0.00     0.076 C 
BRANCH  21  22
HETATM   22  S   UNL     1      23.276  42.467  49.199  1.00  0.00    -0.173 SA
HETATM   23  C   UNL     1      24.673  42.214  50.319  1.00  0.00     0.089 C 
ENDBRANCH  21  22
ENDBRANCH  20  21
ENDBRANCH  19  20
BRANCH  19  24
HETATM   24  N   UNL     1      23.036  47.444  49.615  1.00  0.00    -0.330 N 
HETATM   25  C   UNL     1      22.592  48.535  48.927  1.00  0.00     0.314 C 
HETATM   26  N   UNL     1      21.925  49.414  49.715  1.00  0.00    -0.352 N 
HETATM   27  O   UNL     1      22.808  48.775  47.750  1.00  0.00    -0.248 OA
HETATM   28  H   UNL     1      21.349  49.059  50.462  1.00  0.00     0.160 HD
HETATM   29  H   UNL     1      21.525  50.189  49.200  1.00  0.00     0.160 HD
HETATM   30  H   UNL     1      22.465  47.212  50.414  1.00  0.00     0.165 HD
ENDBRANCH  19  24
ENDBRANCH   1  19
TORSDOF 7
ENDMDL
MODEL 4
REMARK VINA RESULT:      -7.9      1.742      2.046
REMARK  7 active torsions:
REMARK  status: ('A' for Active; 'I' for Inactive)
REMARK    1  A    between atoms: S_2  and  C_3 
REMARK    2  A    between atoms: C_3  and  C_4 
REMARK    3  A    between atoms: C_4  and  C_5 
REMARK    4  A    between atoms: C_5  and  N_6 
REMARK    5  A    between atoms: C_5  and  C_10 
REMARK       I    between atoms: N_6  and  C_7 
REMARK       I    between atoms: C_7  and  N_8 
REMARK       I    between atoms: C_10  and  N_11 
REMARK    6  A    between atoms: N_11  and  N_12 
REMARK       I    between atoms: N_12  and  C_13 
REMARK    7  A    between atoms: C_13  and  C_14 
ROOT
HETATM    1  C   UNL     1      24.769  45.908  49.696  1.00  0.00     0.259 C 
HETATM    2  N   UNL     1      24.760  46.151  51.052  1.00  0.00    -0.265 N 
HETATM    3  O   UNL     1      25.710  45.318  49.155  1.00  0.00    -0.269 OA
HETATM    4  H   UNL     1      24.007  46.614  51.560  1.00  0.00     0.190 HD
ENDROOT
BRANCH   2   5
HETATM    5  N   UNL     1      25.901  45.846  51.801  1.00  0.00    -0.263 N 
HETATM    6  C   UNL     1      25.822  44.854  52.765  1.00  0.00     0.278 C 
HETATM    7  O   UNL     1      24.781  44.202  52.877  1.00  0.00    -0.265 OA
HETATM    8  H   UNL     1      26.718  46.444  51.677  1.00  0.00     0.190 HD
BRANCH   6   9
HETATM    9  C   UNL     1      27.004  44.663  53.593  1.00  0.00     0.097 A 
HETATM   10  S   UNL     1      27.947  43.239  53.464  1.00  0.00    -0.082 SA
HETATM   11  C   UNL     1      29.093  43.774  54.624  1.00  0.00     0.017 A 
HETATM   12  C   UNL     1      28.756  45.029  55.135  1.00  0.00     0.004 A 
HETATM   13  C   UNL     1      30.244  43.084  55.050  1.00  0.00     0.020 A 
HETATM   14  C   UNL     1      27.544  45.525  54.529  1.00  0.00     0.068 A 
HETATM   15  C   UNL     1      29.615  45.594  56.114  1.00  0.00     0.014 A 
HETATM   16 CL   UNL     1      26.887  47.052  54.979  1.00  0.00    -0.082 Cl
HETATM   17  C   UNL     1      30.760  44.913  56.541  1.00  0.00     0.001 A 
HETATM   18  C   UNL     1      31.071  43.670  56.011  1.00  0.00     0.001 A 
ENDBRANCH   6   9
ENDBRANCH   2   5
BRANCH   1  19
HETATM   19  C   UNL     1      23.471  46.292  48.940  1.00  0.00     0.180 C 
BRANCH  19  20
HETATM   20  C   UNL     1      22.508  45.111  48.730  1.00  0.00     0.045 C 
BRANCH  20  21
HETATM   21  C   UNL     1      22.677  44.005  49.770  1.00  0.00     0.076 C 
BRANCH  21  22
HETATM   22  S   UNL     1      23.260  42.484  48.948  1.00  0.00    -0.173 SA
HETATM   23  C   UNL     1      24.653  42.104  50.034  1.00  0.00     0.089 C 
ENDBRANCH  21  22
ENDBRANCH  20  21
ENDBRANCH  19  20
BRANCH  19  24
HETATM   24  N   UNL     1      22.891  47.474  49.585  1.00  0.00    -0.330 N 
HETATM   25  C   UNL     1      22.556  48.594  48.882  1.00  0.00     0.314 C 
HETATM   26  N   UNL     1      21.890  49.504  49.635  1.00  0.00    -0.352 N 
HETATM   27  O   UNL     1      22.862  48.831  47.724  1.00  0.00    -0.248 OA
HETATM   28  H   UNL     1      21.247  49.176  50.339  1.00  0.00     0.160 HD
HETATM   29  H   UNL     1      21.569  50.305  49.104  1.00  0.00     0.160 HD
HETATM   30  H   UNL     1      22.256  47.269  50.341  1.00  0.00     0.165 HD
ENDBRANCH  19  24
ENDBRANCH   1  19
TORSDOF 7
ENDMDL
MODEL 5
REMARK VINA RESULT:      -7.7      2.031      2.812
REMARK  7 active torsions:
REMARK  status: ('A' for Active; 'I' for Inactive)
REMARK    1  A    between atoms: S_2  and  C_3 
REMARK    2  A    between atoms: C_3  and  C_4 
REMARK    3  A    between atoms: C_4  and  C_5 
REMARK    4  A    between atoms: C_5  and  N_6 
REMARK    5  A    between atoms: C_5  and  C_10 
REMARK       I    between atoms: N_6  and  C_7 
REMARK       I    between atoms: C_7  and  N_8 
REMARK       I    between atoms: C_10  and  N_11 
REMARK    6  A    between atoms: N_11  and  N_12 
REMARK       I    between atoms: N_12  and  C_13 
REMARK    7  A    between atoms: C_13  and  C_14 
ROOT
HETATM    1  C   UNL     1      24.047  48.339  49.626  1.00  0.00     0.259 C 
HETATM    2  N   UNL     1      23.931  47.150  50.313  1.00  0.00    -0.265 N 
HETATM    3  O   UNL     1      25.152  48.841  49.393  1.00  0.00    -0.269 OA
HETATM    4  H   UNL     1      23.052  46.675  50.519  1.00  0.00     0.190 HD
ENDROOT
BRANCH   2   5
HETATM    5  N   UNL     1      25.078  46.577  50.871  1.00  0.00    -0.263 N 
HETATM    6  C   UNL     1      24.994  45.302  51.408  1.00  0.00     0.278 C 
HETATM    7  O   UNL     1      23.943  44.668  51.297  1.00  0.00    -0.265 OA
HETATM    8  H   UNL     1      25.904  47.168  50.956  1.00  0.00     0.190 HD
BRANCH   6   9
HETATM    9  C   UNL     1      26.186  44.806  52.082  1.00  0.00     0.097 A 
HETATM   10  S   UNL     1      27.211  43.661  51.326  1.00  0.00    -0.082 SA
HETATM   11  C   UNL     1      28.324  43.647  52.632  1.00  0.00     0.017 A 
HETATM   12  C   UNL     1      27.914  44.496  53.662  1.00  0.00     0.004 A 
HETATM   13  C   UNL     1      29.514  42.898  52.716  1.00  0.00     0.020 A 
HETATM   14  C   UNL     1      26.675  45.154  53.327  1.00  0.00     0.068 A 
HETATM   15  C   UNL     1      28.739  44.578  54.815  1.00  0.00     0.014 A 
HETATM   16 CL   UNL     1      25.930  46.255  54.422  1.00  0.00    -0.082 Cl
HETATM   17  C   UNL     1      29.921  43.837  54.903  1.00  0.00     0.001 A 
HETATM   18  C   UNL     1      30.305  43.007  53.861  1.00  0.00     0.001 A 
ENDBRANCH   6   9
ENDBRANCH   2   5
BRANCH   1  19
HETATM   19  C   UNL     1      22.725  48.913  49.055  1.00  0.00     0.180 C 
BRANCH  19  20
HETATM   20  C   UNL     1      22.798  50.413  48.721  1.00  0.00     0.045 C 
BRANCH  20  21
HETATM   21  C   UNL     1      21.423  51.066  48.586  1.00  0.00     0.076 C 
BRANCH  21  22
HETATM   22  S   UNL     1      20.508  50.884  50.153  1.00  0.00    -0.173 SA
HETATM   23  C   UNL     1      18.863  50.570  49.473  1.00  0.00     0.089 C 
ENDBRANCH  21  22
ENDBRANCH  20  21
ENDBRANCH  19  20
BRANCH  19  24
HETATM   24  N   UNL     1      22.276  48.044  47.964  1.00  0.00    -0.330 N 
HETATM   25  C   UNL     1      21.048  47.448  47.968  1.00  0.00     0.314 C 
HETATM   26  N   UNL     1      20.767  46.821  46.799  1.00  0.00    -0.352 N 
HETATM   27  O   UNL     1      20.282  47.394  48.916  1.00  0.00    -0.248 OA
HETATM   28  H   UNL     1      21.093  47.230  45.936  1.00  0.00     0.160 HD
HETATM   29  H   UNL     1      19.829  46.442  46.764  1.00  0.00     0.160 HD
HETATM   30  H   UNL     1      22.579  48.333  47.046  1.00  0.00     0.165 HD
ENDBRANCH  19  24
ENDBRANCH   1  19
TORSDOF 7
ENDMDL
MODEL 6
REMARK VINA RESULT:      -7.5      2.593      3.629
REMARK  7 active torsions:
REMARK  status: ('A' for Active; 'I' for Inactive)
REMARK    1  A    between atoms: S_2  and  C_3 
REMARK    2  A    between atoms: C_3  and  C_4 
REMARK    3  A    between atoms: C_4  and  C_5 
REMARK    4  A    between atoms: C_5  and  N_6 
REMARK    5  A    between atoms: C_5  and  C_10 
REMARK       I    between atoms: N_6  and  C_7 
REMARK       I    between atoms: C_7  and  N_8 
REMARK       I    between atoms: C_10  and  N_11 
REMARK    6  A    between atoms: N_11  and  N_12 
REMARK       I    between atoms: N_12  and  C_13 
REMARK    7  A    between atoms: C_13  and  C_14 
ROOT
HETATM    1  C   UNL     1      24.172  45.594  49.736  1.00  0.00     0.259 C 
HETATM    2  N   UNL     1      23.983  45.586  51.101  1.00  0.00    -0.265 N 
HETATM    3  O   UNL     1      25.178  45.090  49.224  1.00  0.00    -0.269 OA
HETATM    4  H   UNL     1      23.168  45.967  51.582  1.00  0.00     0.190 HD
ENDROOT
BRANCH   2   5
HETATM    5  N   UNL     1      25.014  45.123  51.924  1.00  0.00    -0.263 N 
HETATM    6  C   UNL     1      25.784  46.045  52.613  1.00  0.00     0.278 C 
HETATM    7  O   UNL     1      25.487  47.241  52.559  1.00  0.00    -0.265 OA
HETATM    8  H   UNL     1      25.223  44.125  51.899  1.00  0.00     0.190 HD
BRANCH   6   9
HETATM    9  C   UNL     1      26.917  45.513  53.358  1.00  0.00     0.097 A 
HETATM   10  S   UNL     1      27.663  44.044  52.892  1.00  0.00    -0.082 SA
HETATM   11  C   UNL     1      28.851  44.140  54.126  1.00  0.00     0.017 A 
HETATM   12  C   UNL     1      28.676  45.279  54.916  1.00  0.00     0.004 A 
HETATM   13  C   UNL     1      29.893  43.223  54.366  1.00  0.00     0.020 A 
HETATM   14  C   UNL     1      27.552  46.058  54.459  1.00  0.00     0.068 A 
HETATM   15  C   UNL     1      29.587  45.484  55.986  1.00  0.00     0.014 A 
HETATM   16 CL   UNL     1      27.097  47.515  55.256  1.00  0.00    -0.082 Cl
HETATM   17  C   UNL     1      30.623  44.577  56.228  1.00  0.00     0.001 A 
HETATM   18  C   UNL     1      30.774  43.458  55.423  1.00  0.00     0.001 A 
ENDBRANCH   6   9
ENDBRANCH   2   5
BRANCH   1  19
HETATM   19  C   UNL     1      22.987  46.140  48.900  1.00  0.00     0.180 C 
BRANCH  19  20
HETATM   20  C   UNL     1      22.988  47.672  48.757  1.00  0.00     0.045 C 
BRANCH  20  21
HETATM   21  C   UNL     1      24.295  48.318  49.215  1.00  0.00     0.076 C 
BRANCH  21  22
HETATM   22  S   UNL     1      24.555  49.875  48.301  1.00  0.00    -0.173 SA
HETATM   23  C   UNL     1      26.360  49.834  48.201  1.00  0.00     0.089 C 
ENDBRANCH  21  22
ENDBRANCH  20  21
ENDBRANCH  19  20
BRANCH  19  24
HETATM   24  N   UNL     1      22.921  45.388  47.643  1.00  0.00    -0.330 N 
HETATM   25  C   UNL     1      22.107  44.305  47.486  1.00  0.00     0.314 C 
HETATM   26  N   UNL     1      22.074  43.855  46.208  1.00  0.00    -0.352 N 
HETATM   27  O   UNL     1      21.510  43.723  48.378  1.00  0.00    -0.248 OA
HETATM   28  H   UNL     1      22.122  44.524  45.455  1.00  0.00     0.160 HD
HETATM   29  H   UNL     1      21.414  43.101  46.065  1.00  0.00     0.160 HD
HETATM   30  H   UNL     1      23.001  45.954  46.811  1.00  0.00     0.165 HD
ENDBRANCH  19  24
ENDBRANCH   1  19
TORSDOF 7
ENDMDL
MODEL 7
REMARK VINA RESULT:      -7.5      2.698      3.634
REMARK  7 active torsions:
REMARK  status: ('A' for Active; 'I' for Inactive)
REMARK    1  A    between atoms: S_2  and  C_3 
REMARK    2  A    between atoms: C_3  and  C_4 
REMARK    3  A    between atoms: C_4  and  C_5 
REMARK    4  A    between atoms: C_5  and  N_6 
REMARK    5  A    between atoms: C_5  and  C_10 
REMARK       I    between atoms: N_6  and  C_7 
REMARK       I    between atoms: C_7  and  N_8 
REMARK       I    between atoms: C_10  and  N_11 
REMARK    6  A    between atoms: N_11  and  N_12 
REMARK       I    between atoms: N_12  and  C_13 
REMARK    7  A    between atoms: C_13  and  C_14 
ROOT
HETATM    1  C   UNL     1      24.358  46.071  49.688  1.00  0.00     0.259 C 
HETATM    2  N   UNL     1      24.490  46.448  51.008  1.00  0.00    -0.265 N 
HETATM    3  O   UNL     1      25.196  45.345  49.141  1.00  0.00    -0.269 OA
HETATM    4  H   UNL     1      23.826  47.026  51.521  1.00  0.00     0.190 HD
ENDROOT
BRANCH   2   5
HETATM    5  N   UNL     1      25.663  46.115  51.691  1.00  0.00    -0.263 N 
HETATM    6  C   UNL     1      25.613  45.130  52.665  1.00  0.00     0.278 C 
HETATM    7  O   UNL     1      24.563  44.508  52.840  1.00  0.00    -0.265 OA
HETATM    8  H   UNL     1      26.488  46.689  51.517  1.00  0.00     0.190 HD
BRANCH   6   9
HETATM    9  C   UNL     1      26.835  44.910  53.425  1.00  0.00     0.097 A 
HETATM   10  S   UNL     1      27.408  46.088  54.528  1.00  0.00    -0.082 SA
HETATM   11  C   UNL     1      28.739  45.124  55.021  1.00  0.00     0.017 A 
HETATM   12  C   UNL     1      28.770  43.907  54.335  1.00  0.00     0.004 A 
HETATM   13  C   UNL     1      29.710  45.457  55.986  1.00  0.00     0.020 A 
HETATM   14  C   UNL     1      27.664  43.804  53.415  1.00  0.00     0.068 A 
HETATM   15  C   UNL     1      29.828  43.009  54.638  1.00  0.00     0.014 A 
HETATM   16 CL   UNL     1      27.458  42.408  52.427  1.00  0.00    -0.082 Cl
HETATM   17  C   UNL     1      30.793  43.335  55.594  1.00  0.00     0.001 A 
HETATM   18  C   UNL     1      30.732  44.548  56.263  1.00  0.00     0.001 A 
ENDBRANCH   6   9
ENDBRANCH   2   5
BRANCH   1  19
HETATM   19  C   UNL     1      23.036  46.495  49.001  1.00  0.00     0.180 C 
BRANCH  19  20
HETATM   20  C   UNL     1      23.035  47.955  48.514  1.00  0.00     0.045 C 
BRANCH  20  21
HETATM   21  C   UNL     1      21.874  48.775  49.074  1.00  0.00     0.076 C 
BRANCH  21  22
HETATM   22  S   UNL     1      22.359  50.531  49.163  1.00  0.00    -0.173 SA
HETATM   23  C   UNL     1      20.802  51.271  48.618  1.00  0.00     0.089 C 
ENDBRANCH  21  22
ENDBRANCH  20  21
ENDBRANCH  19  20
BRANCH  19  24
HETATM   24  N   UNL     1      22.696  45.491  47.988  1.00  0.00    -0.330 N 
HETATM   25  C   UNL     1      21.601  44.686  48.101  1.00  0.00     0.314 C 
HETATM   26  N   UNL     1      21.379  43.945  46.988  1.00  0.00    -0.352 N 
HETATM   27  O   UNL     1      20.909  44.556  49.098  1.00  0.00    -0.248 OA
HETATM   28  H   UNL     1      21.578  44.350  46.086  1.00  0.00     0.160 HD
HETATM   29  H   UNL     1      20.525  43.402  47.032  1.00  0.00     0.160 HD
HETATM   30  H   UNL     1      22.893  45.771  47.038  1.00  0.00     0.165 HD
ENDBRANCH  19  24
ENDBRANCH   1  19
TORSDOF 7
ENDMDL
MODEL 8
REMARK VINA RESULT:      -7.3      5.947      7.645
REMARK  7 active torsions:
REMARK  status: ('A' for Active; 'I' for Inactive)
REMARK    1  A    between atoms: S_2  and  C_3 
REMARK    2  A    between atoms: C_3  and  C_4 
REMARK    3  A    between atoms: C_4  and  C_5 
REMARK    4  A    between atoms: C_5  and  N_6 
REMARK    5  A    between atoms: C_5  and  C_10 
REMARK       I    between atoms: N_6  and  C_7 
REMARK       I    between atoms: C_7  and  N_8 
REMARK       I    between atoms: C_10  and  N_11 
REMARK    6  A    between atoms: N_11  and  N_12 
REMARK       I    between atoms: N_12  and  C_13 
REMARK    7  A    between atoms: C_13  and  C_14 
ROOT
HETATM    1  C   UNL     1      27.320  40.289  50.456  1.00  0.00     0.259 C 
HETATM    2  N   UNL     1      26.595  40.488  51.611  1.00  0.00    -0.265 N 
HETATM    3  O   UNL     1      28.481  40.698  50.348  1.00  0.00    -0.269 OA
HETATM    4  H   UNL     1      25.643  40.159  51.769  1.00  0.00     0.190 HD
ENDROOT
BRANCH   2   5
HETATM    5  N   UNL     1      27.139  41.285  52.622  1.00  0.00    -0.263 N 
HETATM    6  C   UNL     1      27.025  42.663  52.521  1.00  0.00     0.278 C 
HETATM    7  O   UNL     1      26.369  43.148  51.596  1.00  0.00    -0.265 OA
HETATM    8  H   UNL     1      27.693  40.820  53.341  1.00  0.00     0.190 HD
BRANCH   6   9
HETATM    9  C   UNL     1      27.714  43.444  53.538  1.00  0.00     0.097 A 
HETATM   10  S   UNL     1      26.870  44.600  54.478  1.00  0.00    -0.082 SA
HETATM   11  C   UNL     1      28.256  45.003  55.408  1.00  0.00     0.017 A 
HETATM   12  C   UNL     1      29.375  44.277  54.996  1.00  0.00     0.004 A 
HETATM   13  C   UNL     1      28.322  45.935  56.462  1.00  0.00     0.020 A 
HETATM   14  C   UNL     1      29.043  43.384  53.912  1.00  0.00     0.068 A 
HETATM   15  C   UNL     1      30.600  44.514  55.675  1.00  0.00     0.014 A 
HETATM   16 CL   UNL     1      30.238  42.370  53.198  1.00  0.00    -0.082 Cl
HETATM   17  C   UNL     1      30.671  45.438  56.721  1.00  0.00     0.001 A 
HETATM   18  C   UNL     1      29.540  46.140  57.111  1.00  0.00     0.001 A 
ENDBRANCH   6   9
ENDBRANCH   2   5
BRANCH   1  19
HETATM   19  C   UNL     1      26.635  39.408  49.380  1.00  0.00     0.180 C 
BRANCH  19  20
HETATM   20  C   UNL     1      27.149  39.667  47.953  1.00  0.00     0.045 C 
BRANCH  20  21
HETATM   21  C   UNL     1      26.396  40.786  47.236  1.00  0.00     0.076 C 
BRANCH  21  22
HETATM   22  S   UNL     1      24.654  40.789  47.778  1.00  0.00    -0.173 SA
HETATM   23  C   UNL     1      24.019  39.515  46.663  1.00  0.00     0.089 C 
ENDBRANCH  21  22
ENDBRANCH  20  21
ENDBRANCH  19  20
BRANCH  19  24
HETATM   24  N   UNL     1      26.683  38.012  49.825  1.00  0.00    -0.330 N 
HETATM   25  C   UNL     1      27.847  37.303  49.873  1.00  0.00     0.314 C 
HETATM   26  N   UNL     1      27.698  36.092  50.463  1.00  0.00    -0.352 N 
HETATM   27  O   UNL     1      28.914  37.646  49.389  1.00  0.00    -0.248 OA
HETATM   28  H   UNL     1      27.057  36.001  51.235  1.00  0.00     0.160 HD
HETATM   29  H   UNL     1      28.572  35.591  50.573  1.00  0.00     0.160 HD
HETATM   30  H   UNL     1      26.046  37.790  50.576  1.00  0.00     0.165 HD
ENDBRANCH  19  24
ENDBRANCH   1  19
TORSDOF 7
ENDMDL
MODEL 9
REMARK VINA RESULT:      -7.3      6.180      8.692
REMARK  7 active torsions:
REMARK  status: ('A' for Active; 'I' for Inactive)
REMARK    1  A    between atoms: S_2  and  C_3 
REMARK    2  A    between atoms: C_3  and  C_4 
REMARK    3  A    between atoms: C_4  and  C_5 
REMARK    4  A    between atoms: C_5  and  N_6 
REMARK    5  A    between atoms: C_5  and  C_10 
REMARK       I    between atoms: N_6  and  C_7 
REMARK       I    between atoms: C_7  and  N_8 
REMARK       I    between atoms: C_10  and  N_11 
REMARK    6  A    between atoms: N_11  and  N_12 
REMARK       I    between atoms: N_12  and  C_13 
REMARK    7  A    between atoms: C_13  and  C_14 
ROOT
HETATM    1  C   UNL     1      28.043  39.587  49.944  1.00  0.00     0.259 C 
HETATM    2  N   UNL     1      27.303  39.889  51.066  1.00  0.00    -0.265 N 
HETATM    3  O   UNL     1      28.789  40.423  49.421  1.00  0.00    -0.269 OA
HETATM    4  H   UNL     1      26.686  39.240  51.554  1.00  0.00     0.190 HD
ENDROOT
BRANCH   2   5
HETATM    5  N   UNL     1      27.294  41.206  51.535  1.00  0.00    -0.263 N 
HETATM    6  C   UNL     1      27.923  41.492  52.736  1.00  0.00     0.278 C 
HETATM    7  O   UNL     1      28.553  40.603  53.314  1.00  0.00    -0.265 OA
HETATM    8  H   UNL     1      26.730  41.884  51.023  1.00  0.00     0.190 HD
BRANCH   6   9
HETATM    9  C   UNL     1      27.779  42.853  53.233  1.00  0.00     0.097 A 
HETATM   10  S   UNL     1      28.949  43.535  54.282  1.00  0.00    -0.082 SA
HETATM   11  C   UNL     1      28.152  45.053  54.347  1.00  0.00     0.017 A 
HETATM   12  C   UNL     1      26.978  45.047  53.589  1.00  0.00     0.004 A 
HETATM   13  C   UNL     1      28.573  46.196  55.053  1.00  0.00     0.020 A 
HETATM   14  C   UNL     1      26.778  43.766  52.956  1.00  0.00     0.068 A 
HETATM   15  C   UNL     1      26.209  46.240  53.558  1.00  0.00     0.014 A 
HETATM   16 CL   UNL     1      25.401  43.470  51.965  1.00  0.00    -0.082 Cl
HETATM   17  C   UNL     1      26.623  47.377  54.257  1.00  0.00     0.001 A 
HETATM   18  C   UNL     1      27.796  47.354  54.996  1.00  0.00     0.001 A 
ENDBRANCH   6   9
ENDBRANCH   2   5
BRANCH   1  19
HETATM   19  C   UNL     1      27.983  38.109  49.481  1.00  0.00     0.180 C 
BRANCH  19  20
HETATM   20  C   UNL     1      28.668  37.859  48.127  1.00  0.00     0.045 C 
BRANCH  20  21
HETATM   21  C   UNL     1      27.748  37.199  47.101  1.00  0.00     0.076 C 
BRANCH  21  22
HETATM   22  S   UNL     1      26.213  38.172  46.949  1.00  0.00    -0.173 SA
HETATM   23  C   UNL     1      26.658  39.160  45.502  1.00  0.00     0.089 C 
ENDBRANCH  21  22
ENDBRANCH  20  21
ENDBRANCH  19  20
BRANCH  19  24
HETATM   24  N   UNL     1      28.438  37.259  50.586  1.00  0.00    -0.330 N 
HETATM   25  C   UNL     1      29.733  37.253  51.013  1.00  0.00     0.314 C 
HETATM   26  N   UNL     1      29.908  36.524  52.142  1.00  0.00    -0.352 N 
HETATM   27  O   UNL     1      30.678  37.769  50.439  1.00  0.00    -0.248 OA
HETATM   28  H   UNL     1      29.180  36.522  52.839  1.00  0.00     0.160 HD
HETATM   29  H   UNL     1      30.850  36.576  52.510  1.00  0.00     0.160 HD
HETATM   30  H   UNL     1      27.768  37.148  51.332  1.00  0.00     0.165 HD
ENDBRANCH  19  24
ENDBRANCH   1  19
TORSDOF 7
ENDMDL
MODEL 10
REMARK VINA RESULT:      -7.3      3.093      8.609
REMARK  7 active torsions:
REMARK  status: ('A' for Active; 'I' for Inactive)
REMARK    1  A    between atoms: S_2  and  C_3 
REMARK    2  A    between atoms: C_3  and  C_4 
REMARK    3  A    between atoms: C_4  and  C_5 
REMARK    4  A    between atoms: C_5  and  N_6 
REMARK    5  A    between atoms: C_5  and  C_10 
REMARK       I    between atoms: N_6  and  C_7 
REMARK       I    between atoms: C_7  and  N_8 
REMARK       I    between atoms: C_10  and  N_11 
REMARK    6  A    between atoms: N_11  and  N_12 
REMARK       I    between atoms: N_12  and  C_13 
REMARK    7  A    between atoms: C_13  and  C_14 
ROOT
HETATM    1  C   UNL     1      26.533  44.013  52.490  1.00  0.00     0.259 C 
HETATM    2  N   UNL     1      26.906  44.815  51.432  1.00  0.00    -0.265 N 
HETATM    3  O   UNL     1      25.419  44.117  53.014  1.00  0.00    -0.269 OA
HETATM    4  H   UNL     1      27.800  44.765  50.945  1.00  0.00     0.190 HD
ENDROOT
BRANCH   2   5
HETATM    5  N   UNL     1      26.057  45.855  51.041  1.00  0.00    -0.263 N 
HETATM    6  C   UNL     1      25.431  45.778  49.808  1.00  0.00     0.278 C 
HETATM    7  O   UNL     1      25.561  44.758  49.127  1.00  0.00    -0.265 OA
HETATM    8  H   UNL     1      26.019  46.680  51.639  1.00  0.00     0.190 HD
BRANCH   6   9
HETATM    9  C   UNL     1      24.655  46.942  49.403  1.00  0.00     0.097 A 
HETATM   10  S   UNL     1      22.979  46.812  49.076  1.00  0.00    -0.082 SA
HETATM   11  C   UNL     1      22.809  48.490  48.760  1.00  0.00     0.017 A 
HETATM   12  C   UNL     1      24.030  49.159  48.879  1.00  0.00     0.004 A 
HETATM   13  C   UNL     1      21.622  49.167  48.418  1.00  0.00     0.020 A 
HETATM   14  C   UNL     1      25.085  48.247  49.249  1.00  0.00     0.068 A 
HETATM   15  C   UNL     1      24.039  50.558  48.636  1.00  0.00     0.014 A 
HETATM   16 CL   UNL     1      26.703  48.799  49.457  1.00  0.00    -0.082 Cl
HETATM   17  C   UNL     1      22.864  51.234  48.298  1.00  0.00     0.001 A 
HETATM   18  C   UNL     1      21.666  50.544  48.192  1.00  0.00     0.001 A 
ENDBRANCH   6   9
ENDBRANCH   2   5
BRANCH   1  19
HETATM   19  C   UNL     1      27.539  42.897  52.869  1.00  0.00     0.180 C 
BRANCH  19  20
HETATM   20  C   UNL     1      28.086  43.020  54.301  1.00  0.00     0.045 C 
BRANCH  20  21
HETATM   21  C   UNL     1      29.263  43.988  54.414  1.00  0.00     0.076 C 
BRANCH  21  22
HETATM   22  S   UNL     1      28.700  45.539  55.191  1.00  0.00    -0.173 SA
HETATM   23  C   UNL     1      29.959  45.671  56.481  1.00  0.00     0.089 C 
ENDBRANCH  21  22
ENDBRANCH  20  21
ENDBRANCH  19  20
BRANCH  19  24
HETATM   24  N   UNL     1      26.944  41.600  52.529  1.00  0.00    -0.330 N 
HETATM   25  C   UNL     1      26.822  41.172  51.239  1.00  0.00     0.314 C 
HETATM   26  N   UNL     1      26.397  39.888  51.153  1.00  0.00    -0.352 N 
HETATM   27  O   UNL     1      26.994  41.852  50.240  1.00  0.00    -0.248 OA
HETATM   28  H   UNL     1      26.708  39.224  51.845  1.00  0.00     0.160 HD
HETATM   29  H   UNL     1      26.378  39.536  50.203  1.00  0.00     0.160 HD
HETATM   30  H   UNL     1      27.154  40.859  53.181  1.00  0.00     0.165 HD
ENDBRANCH  19  24
ENDBRANCH   1  19
TORSDOF 7
ENDMDL
