MODEL 1
REMARK VINA RESULT:      -7.6      0.000      0.000
REMARK  12 active torsions:
REMARK  status: ('A' for Active; 'I' for Inactive)
REMARK    1  A    between atoms: C_2  and  O_3 
REMARK    2  A    between atoms: O_3  and  C_4 
REMARK    3  A    between atoms: C_5  and  N_6 
REMARK    4  A    between atoms: C_7  and  S_8 
REMARK    5  A    between atoms: S_8  and  C_9 
REMARK    6  A    between atoms: C_9  and  C_10 
REMARK       I    between atoms: C_10  and  N_11 
REMARK    7  A    between atoms: N_11  and  C_12 
REMARK    8  A    between atoms: C_12  and  C_13 
REMARK    9  A    between atoms: C_13  and  C_14 
REMARK   10  A    between atoms: C_17  and  S_18 
REMARK   11  A    between atoms: S_18  and  N_19 
REMARK   12  A    between atoms: C_28  and  N_29 
ROOT
HETATM    1  N   UNL     1      29.746  49.442  39.470  1.00  0.00    -0.273 N 
HETATM    2  C   UNL     1      30.018  48.301  40.160  1.00  0.00     0.177 A 
HETATM    3  N   UNL     1      29.130  47.313  40.418  1.00  0.00    -0.204 NA
HETATM    4  C   UNL     1      27.934  47.575  39.890  1.00  0.00     0.162 A 
HETATM    5  C   UNL     1      27.578  48.683  39.151  1.00  0.00     0.081 A 
HETATM    6  C   UNL     1      28.535  49.679  38.894  1.00  0.00     0.124 A 
HETATM    7  N   UNL     1      26.826  46.783  39.977  1.00  0.00    -0.260 N 
HETATM    8  H   UNL     1      26.736  45.888  40.446  1.00  0.00     0.191 HD
HETATM    9  N   UNL     1      25.760  47.298  39.349  1.00  0.00    -0.177 NA
HETATM   10  C   UNL     1      26.200  48.460  38.851  1.00  0.00     0.068 A 
HETATM   11  C   UNL     1      25.257  49.333  38.104  1.00  0.00     0.073 C 
ENDROOT
BRANCH   2  12
HETATM   12  S   UNL     1      31.668  47.958  40.800  1.00  0.00    -0.082 SA
BRANCH  12  13
HETATM   13  C   UNL     1      31.458  48.525  42.520  1.00  0.00     0.185 C 
BRANCH  13  14
HETATM   14  C   UNL     1      32.348  49.710  42.891  1.00  0.00     0.227 C 
HETATM   15  N   UNL     1      33.491  49.776  42.122  1.00  0.00    -0.360 N 
HETATM   16  H   UNL     1      33.678  49.049  41.440  1.00  0.00     0.162 HD
HETATM   17  O   UNL     1      32.064  50.540  43.754  1.00  0.00    -0.273 OA
BRANCH  15  18
HETATM   18  C   UNL     1      34.394  50.916  42.123  1.00  0.00     0.127 C 
BRANCH  18  19
HETATM   19  C   UNL     1      35.878  50.538  42.172  1.00  0.00     0.058 C 
BRANCH  19  20
HETATM   20  C   UNL     1      36.636  51.421  43.138  1.00  0.00    -0.057 A 
HETATM   21  C   UNL     1      37.983  51.164  43.439  1.00  0.00     0.009 A 
HETATM   22  C   UNL     1      38.658  51.939  44.386  1.00  0.00     0.025 A 
HETATM   23  C   UNL     1      37.992  52.989  45.021  1.00  0.00     0.074 A 
HETATM   24  C   UNL     1      36.656  53.265  44.724  1.00  0.00     0.025 A 
HETATM   25  C   UNL     1      35.984  52.484  43.781  1.00  0.00     0.009 A 
BRANCH  23  26
HETATM   26  S   UNL     1      38.822  53.913  46.283  1.00  0.00     0.239 S 
HETATM   27  O   UNL     1      40.227  53.994  45.963  1.00  0.00    -0.206 OA
HETATM   28  O   UNL     1      38.031  55.076  46.606  1.00  0.00    -0.206 OA
BRANCH  26  29
HETATM   29  N   UNL     1      38.707  52.887  47.606  1.00  0.00    -0.225 NA
HETATM   30  H   UNL     1      39.609  52.836  48.082  1.00  0.00     0.136 HD
HETATM   31  H   UNL     1      37.946  53.194  48.214  1.00  0.00     0.136 HD
ENDBRANCH  26  29
ENDBRANCH  23  26
ENDBRANCH  19  20
ENDBRANCH  18  19
ENDBRANCH  15  18
ENDBRANCH  13  14
ENDBRANCH  12  13
ENDBRANCH   2  12
BRANCH   1  32
HETATM   32  C   UNL     1      30.719  50.498  39.450  1.00  0.00     0.076 A 
HETATM   33  C   UNL     1      30.638  51.495  40.433  1.00  0.00     0.096 A 
HETATM   34  C   UNL     1      31.588  52.513  40.430  1.00  0.00     0.039 A 
HETATM   35  C   UNL     1      32.563  52.549  39.426  1.00  0.00     0.003 A 
HETATM   36  C   UNL     1      32.601  51.568  38.429  1.00  0.00     0.002 A 
HETATM   37  C   UNL     1      31.671  50.530  38.431  1.00  0.00     0.033 A 
BRANCH  33  38
HETATM   38  O   UNL     1      29.677  51.375  41.401  1.00  0.00    -0.349 OA
BRANCH  38  39
HETATM   39  C   UNL     1      28.925  52.571  41.653  1.00  0.00     0.171 C 
HETATM   40  C   UNL     1      27.470  52.340  41.292  1.00  0.00     0.034 C 
ENDBRANCH  38  39
ENDBRANCH  33  38
ENDBRANCH   1  32
BRANCH   6  41
HETATM   41  N   UNL     1      28.264  50.816  38.132  1.00  0.00    -0.384 N 
HETATM   42  H   UNL     1      27.311  50.945  37.809  1.00  0.00     0.157 HD
HETATM   43  H   UNL     1      28.966  51.171  37.493  1.00  0.00     0.157 HD
ENDBRANCH   6  41
TORSDOF 12
ENDMDL
MODEL 2
REMARK VINA RESULT:      -7.6      3.649      9.408
REMARK  12 active torsions:
REMARK  status: ('A' for Active; 'I' for Inactive)
REMARK    1  A    between atoms: C_2  and  O_3 
REMARK    2  A    between atoms: O_3  and  C_4 
REMARK    3  A    between atoms: C_5  and  N_6 
REMARK    4  A    between atoms: C_7  and  S_8 
REMARK    5  A    between atoms: S_8  and  C_9 
REMARK    6  A    between atoms: C_9  and  C_10 
REMARK       I    between atoms: C_10  and  N_11 
REMARK    7  A    between atoms: N_11  and  C_12 
REMARK    8  A    between atoms: C_12  and  C_13 
REMARK    9  A    between atoms: C_13  and  C_14 
REMARK   10  A    between atoms: C_17  and  S_18 
REMARK   11  A    between atoms: S_18  and  N_19 
REMARK   12  A    between atoms: C_28  and  N_29 
ROOT
HETATM    1  N   UNL     1      33.515  50.436  41.656  1.00  0.00    -0.273 N 
HETATM    2  C   UNL     1      32.978  51.143  42.688  1.00  0.00     0.177 A 
HETATM    3  N   UNL     1      33.670  51.941  43.533  1.00  0.00    -0.204 NA
HETATM    4  C   UNL     1      34.967  51.979  43.224  1.00  0.00     0.162 A 
HETATM    5  C   UNL     1      35.590  51.326  42.181  1.00  0.00     0.081 A 
HETATM    6  C   UNL     1      34.831  50.519  41.318  1.00  0.00     0.124 A 
HETATM    7  N   UNL     1      35.931  52.685  43.883  1.00  0.00    -0.260 N 
HETATM    8  H   UNL     1      35.819  53.280  44.698  1.00  0.00     0.191 HD
HETATM    9  N   UNL     1      37.151  52.536  43.349  1.00  0.00    -0.177 NA
HETATM   10  C   UNL     1      36.961  51.703  42.319  1.00  0.00     0.068 A 
HETATM   11  C   UNL     1      38.128  51.283  41.500  1.00  0.00     0.073 C 
ENDROOT
BRANCH   2  12
HETATM   12  S   UNL     1      31.208  51.114  43.030  1.00  0.00    -0.082 SA
BRANCH  12  13
HETATM   13  C   UNL     1      30.707  52.663  42.208  1.00  0.00     0.185 C 
BRANCH  13  14
HETATM   14  C   UNL     1      29.430  52.537  41.379  1.00  0.00     0.227 C 
HETATM   15  N   UNL     1      28.801  51.322  41.558  1.00  0.00    -0.360 N 
HETATM   16  H   UNL     1      29.230  50.618  42.148  1.00  0.00     0.162 HD
HETATM   17  O   UNL     1      28.986  53.430  40.660  1.00  0.00    -0.273 OA
BRANCH  15  18
HETATM   18  C   UNL     1      27.468  51.029  41.058  1.00  0.00     0.127 C 
BRANCH  18  19
HETATM   19  C   UNL     1      27.441  50.492  39.623  1.00  0.00     0.058 C 
BRANCH  19  20
HETATM   20  C   UNL     1      27.506  48.981  39.603  1.00  0.00    -0.057 A 
HETATM   21  C   UNL     1      27.559  48.249  40.799  1.00  0.00     0.009 A 
HETATM   22  C   UNL     1      27.690  46.858  40.775  1.00  0.00     0.025 A 
HETATM   23  C   UNL     1      27.750  46.191  39.550  1.00  0.00     0.074 A 
HETATM   24  C   UNL     1      27.686  46.904  38.350  1.00  0.00     0.025 A 
HETATM   25  C   UNL     1      27.561  48.294  38.380  1.00  0.00     0.009 A 
BRANCH  23  26
HETATM   26  S   UNL     1      28.005  44.439  39.521  1.00  0.00     0.239 S 
HETATM   27  O   UNL     1      28.010  43.940  40.875  1.00  0.00    -0.206 OA
HETATM   28  O   UNL     1      27.181  43.865  38.485  1.00  0.00    -0.206 OA
BRANCH  26  29
HETATM   29  N   UNL     1      29.589  44.322  38.978  1.00  0.00    -0.225 NA
HETATM   30  H   UNL     1      29.802  45.114  38.369  1.00  0.00     0.136 HD
HETATM   31  H   UNL     1      30.220  44.243  39.776  1.00  0.00     0.136 HD
ENDBRANCH  26  29
ENDBRANCH  23  26
ENDBRANCH  19  20
ENDBRANCH  18  19
ENDBRANCH  15  18
ENDBRANCH  13  14
ENDBRANCH  12  13
ENDBRANCH   2  12
BRANCH   1  32
HETATM   32  C   UNL     1      32.703  49.469  40.972  1.00  0.00     0.076 A 
HETATM   33  C   UNL     1      31.952  49.895  39.867  1.00  0.00     0.096 A 
HETATM   34  C   UNL     1      31.175  48.959  39.188  1.00  0.00     0.039 A 
HETATM   35  C   UNL     1      31.121  47.638  39.649  1.00  0.00     0.003 A 
HETATM   36  C   UNL     1      31.845  47.242  40.779  1.00  0.00     0.002 A 
HETATM   37  C   UNL     1      32.645  48.161  41.456  1.00  0.00     0.033 A 
BRANCH  33  38
HETATM   38  O   UNL     1      32.082  51.194  39.457  1.00  0.00    -0.349 OA
BRANCH  38  39
HETATM   39  C   UNL     1      31.882  51.403  38.051  1.00  0.00     0.171 C 
HETATM   40  C   UNL     1      30.445  51.820  37.800  1.00  0.00     0.034 C 
ENDBRANCH  38  39
ENDBRANCH  33  38
ENDBRANCH   1  32
BRANCH   6  41
HETATM   41  N   UNL     1      35.379  49.848  40.225  1.00  0.00    -0.384 N 
HETATM   42  H   UNL     1      34.868  49.884  39.350  1.00  0.00     0.157 HD
HETATM   43  H   UNL     1      35.885  48.981  40.370  1.00  0.00     0.157 HD
ENDBRANCH   6  41
TORSDOF 12
ENDMDL
MODEL 3
REMARK VINA RESULT:      -7.6      2.000      3.310
REMARK  12 active torsions:
REMARK  status: ('A' for Active; 'I' for Inactive)
REMARK    1  A    between atoms: C_2  and  O_3 
REMARK    2  A    between atoms: O_3  and  C_4 
REMARK    3  A    between atoms: C_5  and  N_6 
REMARK    4  A    between atoms: C_7  and  S_8 
REMARK    5  A    between atoms: S_8  and  C_9 
REMARK    6  A    between atoms: C_9  and  C_10 
REMARK       I    between atoms: C_10  and  N_11 
REMARK    7  A    between atoms: N_11  and  C_12 
REMARK    8  A    between atoms: C_12  and  C_13 
REMARK    9  A    between atoms: C_13  and  C_14 
REMARK   10  A    between atoms: C_17  and  S_18 
REMARK   11  A    between atoms: S_18  and  N_19 
REMARK   12  A    between atoms: C_28  and  N_29 
ROOT
HETATM    1  N   UNL     1      28.693  50.837  40.394  1.00  0.00    -0.273 N 
HETATM    2  C   UNL     1      28.808  51.422  39.170  1.00  0.00     0.177 A 
HETATM    3  N   UNL     1      28.002  51.181  38.110  1.00  0.00    -0.204 NA
HETATM    4  C   UNL     1      27.044  50.303  38.408  1.00  0.00     0.162 A 
HETATM    5  C   UNL     1      26.831  49.689  39.624  1.00  0.00     0.081 A 
HETATM    6  C   UNL     1      27.683  49.978  40.703  1.00  0.00     0.124 A 
HETATM    7  N   UNL     1      26.078  49.848  37.559  1.00  0.00    -0.260 N 
HETATM    8  H   UNL     1      25.937  50.097  36.585  1.00  0.00     0.191 HD
HETATM    9  N   UNL     1      25.245  48.967  38.131  1.00  0.00    -0.177 NA
HETATM   10  C   UNL     1      25.698  48.853  39.386  1.00  0.00     0.068 A 
HETATM   11  C   UNL     1      25.019  47.917  40.319  1.00  0.00     0.073 C 
ENDROOT
BRANCH   2  12
HETATM   12  S   UNL     1      30.079  52.654  38.831  1.00  0.00    -0.082 SA
BRANCH  12  13
HETATM   13  C   UNL     1      31.513  51.558  38.573  1.00  0.00     0.185 C 
BRANCH  13  14
HETATM   14  C   UNL     1      32.721  51.908  39.439  1.00  0.00     0.227 C 
HETATM   15  N   UNL     1      33.595  50.850  39.583  1.00  0.00    -0.360 N 
HETATM   16  H   UNL     1      33.363  49.951  39.174  1.00  0.00     0.162 HD
HETATM   17  O   UNL     1      32.919  53.020  39.926  1.00  0.00    -0.273 OA
BRANCH  15  18
HETATM   18  C   UNL     1      34.917  50.977  40.173  1.00  0.00     0.127 C 
BRANCH  18  19
HETATM   19  C   UNL     1      35.133  50.107  41.416  1.00  0.00     0.058 C 
BRANCH  19  20
HETATM   20  C   UNL     1      35.929  50.846  42.469  1.00  0.00    -0.057 A 
HETATM   21  C   UNL     1      35.357  51.907  43.189  1.00  0.00     0.009 A 
HETATM   22  C   UNL     1      36.117  52.632  44.110  1.00  0.00     0.025 A 
HETATM   23  C   UNL     1      37.452  52.286  44.328  1.00  0.00     0.074 A 
HETATM   24  C   UNL     1      38.033  51.226  43.629  1.00  0.00     0.025 A 
HETATM   25  C   UNL     1      37.271  50.508  42.706  1.00  0.00     0.009 A 
BRANCH  23  26
HETATM   26  S   UNL     1      38.438  53.261  45.428  1.00  0.00     0.239 S 
HETATM   27  O   UNL     1      38.450  52.638  46.730  1.00  0.00    -0.206 OA
HETATM   28  O   UNL     1      39.647  53.656  44.745  1.00  0.00    -0.206 OA
BRANCH  26  29
HETATM   29  N   UNL     1      37.515  54.654  45.590  1.00  0.00    -0.225 NA
HETATM   30  H   UNL     1      37.125  54.699  46.533  1.00  0.00     0.136 HD
HETATM   31  H   UNL     1      38.078  55.469  45.345  1.00  0.00     0.136 HD
ENDBRANCH  26  29
ENDBRANCH  23  26
ENDBRANCH  19  20
ENDBRANCH  18  19
ENDBRANCH  15  18
ENDBRANCH  13  14
ENDBRANCH  12  13
ENDBRANCH   2  12
BRANCH   1  32
HETATM   32  C   UNL     1      29.738  51.024  41.361  1.00  0.00     0.076 A 
HETATM   33  C   UNL     1      30.511  49.913  41.726  1.00  0.00     0.096 A 
HETATM   34  C   UNL     1      31.537  50.090  42.651  1.00  0.00     0.039 A 
HETATM   35  C   UNL     1      31.739  51.348  43.230  1.00  0.00     0.003 A 
HETATM   36  C   UNL     1      30.929  52.436  42.883  1.00  0.00     0.002 A 
HETATM   37  C   UNL     1      29.913  52.280  41.943  1.00  0.00     0.033 A 
BRANCH  33  38
HETATM   38  O   UNL     1      30.275  48.722  41.093  1.00  0.00    -0.349 OA
BRANCH  38  39
HETATM   39  C   UNL     1      31.293  48.325  40.161  1.00  0.00     0.171 C 
HETATM   40  C   UNL     1      30.654  47.986  38.828  1.00  0.00     0.034 C 
ENDBRANCH  38  39
ENDBRANCH  33  38
ENDBRANCH   1  32
BRANCH   6  41
HETATM   41  N   UNL     1      27.519  49.421  41.972  1.00  0.00    -0.384 N 
HETATM   42  H   UNL     1      27.581  50.047  42.768  1.00  0.00     0.157 HD
HETATM   43  H   UNL     1      27.861  48.485  42.157  1.00  0.00     0.157 HD
ENDBRANCH   6  41
TORSDOF 12
ENDMDL
MODEL 4
REMARK VINA RESULT:      -7.5      2.627      4.363
REMARK  12 active torsions:
REMARK  status: ('A' for Active; 'I' for Inactive)
REMARK    1  A    between atoms: C_2  and  O_3 
REMARK    2  A    between atoms: O_3  and  C_4 
REMARK    3  A    between atoms: C_5  and  N_6 
REMARK    4  A    between atoms: C_7  and  S_8 
REMARK    5  A    between atoms: S_8  and  C_9 
REMARK    6  A    between atoms: C_9  and  C_10 
REMARK       I    between atoms: C_10  and  N_11 
REMARK    7  A    between atoms: N_11  and  C_12 
REMARK    8  A    between atoms: C_12  and  C_13 
REMARK    9  A    between atoms: C_13  and  C_14 
REMARK   10  A    between atoms: C_17  and  S_18 
REMARK   11  A    between atoms: S_18  and  N_19 
REMARK   12  A    between atoms: C_28  and  N_29 
ROOT
HETATM    1  N   UNL     1      27.977  49.312  39.640  1.00  0.00    -0.273 N 
HETATM    2  C   UNL     1      27.986  50.312  38.718  1.00  0.00     0.177 A 
HETATM    3  N   UNL     1      26.901  50.770  38.051  1.00  0.00    -0.204 NA
HETATM    4  C   UNL     1      25.789  50.135  38.422  1.00  0.00     0.162 A 
HETATM    5  C   UNL     1      25.681  49.137  39.369  1.00  0.00     0.081 A 
HETATM    6  C   UNL     1      26.830  48.702  40.049  1.00  0.00     0.124 A 
HETATM    7  N   UNL     1      24.534  50.358  37.936  1.00  0.00    -0.260 N 
HETATM    8  H   UNL     1      24.251  51.029  37.228  1.00  0.00     0.191 HD
HETATM    9  N   UNL     1      23.604  49.570  38.494  1.00  0.00    -0.177 NA
HETATM   10  C   UNL     1      24.290  48.814  39.360  1.00  0.00     0.068 A 
HETATM   11  C   UNL     1      23.569  47.783  40.151  1.00  0.00     0.073 C 
ENDROOT
BRANCH   2  12
HETATM   12  S   UNL     1      29.503  51.189  38.294  1.00  0.00    -0.082 SA
BRANCH  12  13
HETATM   13  C   UNL     1      29.153  52.804  39.065  1.00  0.00     0.185 C 
BRANCH  13  14
HETATM   14  C   UNL     1      29.206  52.783  40.592  1.00  0.00     0.227 C 
HETATM   15  N   UNL     1      30.498  52.755  41.076  1.00  0.00    -0.360 N 
HETATM   16  H   UNL     1      31.275  52.700  40.427  1.00  0.00     0.162 HD
HETATM   17  O   UNL     1      28.213  52.824  41.316  1.00  0.00    -0.273 OA
BRANCH  15  18
HETATM   18  C   UNL     1      30.833  52.945  42.478  1.00  0.00     0.127 C 
BRANCH  18  19
HETATM   19  C   UNL     1      31.348  51.682  43.175  1.00  0.00     0.058 C 
BRANCH  19  20
HETATM   20  C   UNL     1      32.859  51.615  43.138  1.00  0.00    -0.057 A 
HETATM   21  C   UNL     1      33.624  52.078  44.220  1.00  0.00     0.009 A 
HETATM   22  C   UNL     1      35.020  52.080  44.153  1.00  0.00     0.025 A 
HETATM   23  C   UNL     1      35.657  51.598  43.007  1.00  0.00     0.074 A 
HETATM   24  C   UNL     1      34.910  51.122  41.927  1.00  0.00     0.025 A 
HETATM   25  C   UNL     1      33.516  51.128  41.997  1.00  0.00     0.009 A 
BRANCH  23  26
HETATM   26  S   UNL     1      37.421  51.683  42.888  1.00  0.00     0.239 S 
HETATM   27  O   UNL     1      37.865  50.812  41.826  1.00  0.00    -0.206 OA
HETATM   28  O   UNL     1      37.829  53.065  42.981  1.00  0.00    -0.206 OA
BRANCH  26  29
HETATM   29  N   UNL     1      37.908  50.955  44.320  1.00  0.00    -0.225 NA
HETATM   30  H   UNL     1      37.600  51.519  45.114  1.00  0.00     0.136 HD
HETATM   31  H   UNL     1      37.565  49.994  44.350  1.00  0.00     0.136 HD
ENDBRANCH  26  29
ENDBRANCH  23  26
ENDBRANCH  19  20
ENDBRANCH  18  19
ENDBRANCH  15  18
ENDBRANCH  13  14
ENDBRANCH  12  13
ENDBRANCH   2  12
BRANCH   1  32
HETATM   32  C   UNL     1      29.225  48.785  40.115  1.00  0.00     0.076 A 
HETATM   33  C   UNL     1      29.911  47.869  39.303  1.00  0.00     0.096 A 
HETATM   34  C   UNL     1      31.131  47.366  39.749  1.00  0.00     0.039 A 
HETATM   35  C   UNL     1      31.617  47.741  41.007  1.00  0.00     0.003 A 
HETATM   36  C   UNL     1      30.897  48.624  41.821  1.00  0.00     0.002 A 
HETATM   37  C   UNL     1      29.687  49.153  41.379  1.00  0.00     0.033 A 
BRANCH  33  38
HETATM   38  O   UNL     1      29.389  47.576  38.072  1.00  0.00    -0.349 OA
BRANCH  38  39
HETATM   39  C   UNL     1      28.879  46.240  37.938  1.00  0.00     0.171 C 
HETATM   40  C   UNL     1      27.488  46.288  37.335  1.00  0.00     0.034 C 
ENDBRANCH  38  39
ENDBRANCH  33  38
ENDBRANCH   1  32
BRANCH   6  41
HETATM   41  N   UNL     1      26.802  47.719  41.038  1.00  0.00    -0.384 N 
HETATM   42  H   UNL     1      26.396  46.822  40.794  1.00  0.00     0.157 HD
HETATM   43  H   UNL     1      26.659  47.985  42.006  1.00  0.00     0.157 HD
ENDBRANCH   6  41
TORSDOF 12
ENDMDL
MODEL 5
REMARK VINA RESULT:      -7.3      1.999      3.608
REMARK  12 active torsions:
REMARK  status: ('A' for Active; 'I' for Inactive)
REMARK    1  A    between atoms: C_2  and  O_3 
REMARK    2  A    between atoms: O_3  and  C_4 
REMARK    3  A    between atoms: C_5  and  N_6 
REMARK    4  A    between atoms: C_7  and  S_8 
REMARK    5  A    between atoms: S_8  and  C_9 
REMARK    6  A    between atoms: C_9  and  C_10 
REMARK       I    between atoms: C_10  and  N_11 
REMARK    7  A    between atoms: N_11  and  C_12 
REMARK    8  A    between atoms: C_12  and  C_13 
REMARK    9  A    between atoms: C_13  and  C_14 
REMARK   10  A    between atoms: C_17  and  S_18 
REMARK   11  A    between atoms: S_18  and  N_19 
REMARK   12  A    between atoms: C_28  and  N_29 
ROOT
HETATM    1  N   UNL     1      28.616  49.428  39.841  1.00  0.00    -0.273 N 
HETATM    2  C   UNL     1      28.710  50.325  38.821  1.00  0.00     0.177 A 
HETATM    3  N   UNL     1      27.684  50.731  38.040  1.00  0.00    -0.204 NA
HETATM    4  C   UNL     1      26.533  50.161  38.401  1.00  0.00     0.162 A 
HETATM    5  C   UNL     1      26.338  49.272  39.437  1.00  0.00     0.081 A 
HETATM    6  C   UNL     1      27.429  48.888  40.233  1.00  0.00     0.124 A 
HETATM    7  N   UNL     1      25.318  50.357  37.811  1.00  0.00    -0.260 N 
HETATM    8  H   UNL     1      25.099  50.954  37.020  1.00  0.00     0.191 HD
HETATM    9  N   UNL     1      24.334  49.651  38.385  1.00  0.00    -0.177 NA
HETATM   10  C   UNL     1      24.942  48.978  39.369  1.00  0.00     0.068 A 
HETATM   11  C   UNL     1      24.144  48.050  40.213  1.00  0.00     0.073 C 
ENDROOT
BRANCH   2  12
HETATM   12  S   UNL     1      30.274  51.122  38.410  1.00  0.00    -0.082 SA
BRANCH  12  13
HETATM   13  C   UNL     1      30.322  52.401  39.708  1.00  0.00     0.185 C 
BRANCH  13  14
HETATM   14  C   UNL     1      31.727  52.705  40.224  1.00  0.00     0.227 C 
HETATM   15  N   UNL     1      32.547  51.595  40.212  1.00  0.00    -0.360 N 
HETATM   16  H   UNL     1      32.169  50.697  39.929  1.00  0.00     0.162 HD
HETATM   17  O   UNL     1      32.104  53.821  40.577  1.00  0.00    -0.273 OA
BRANCH  15  18
HETATM   18  C   UNL     1      33.980  51.655  40.447  1.00  0.00     0.127 C 
BRANCH  18  19
HETATM   19  C   UNL     1      34.503  50.575  41.400  1.00  0.00     0.058 C 
BRANCH  19  20
HETATM   20  C   UNL     1      35.468  51.158  42.410  1.00  0.00    -0.057 A 
HETATM   21  C   UNL     1      35.014  52.018  43.422  1.00  0.00     0.009 A 
HETATM   22  C   UNL     1      35.917  52.610  44.309  1.00  0.00     0.025 A 
HETATM   23  C   UNL     1      37.280  52.327  44.197  1.00  0.00     0.074 A 
HETATM   24  C   UNL     1      37.747  51.464  43.203  1.00  0.00     0.025 A 
HETATM   25  C   UNL     1      36.840  50.880  42.316  1.00  0.00     0.009 A 
BRANCH  23  26
HETATM   26  S   UNL     1      38.432  53.146  45.264  1.00  0.00     0.239 S 
HETATM   27  O   UNL     1      38.547  52.401  46.495  1.00  0.00    -0.206 OA
HETATM   28  O   UNL     1      39.581  53.547  44.489  1.00  0.00    -0.206 OA
BRANCH  26  29
HETATM   29  N   UNL     1      37.612  54.558  45.651  1.00  0.00    -0.225 NA
HETATM   30  H   UNL     1      38.284  55.297  45.866  1.00  0.00     0.136 HD
HETATM   31  H   UNL     1      36.971  54.801  44.895  1.00  0.00     0.136 HD
ENDBRANCH  26  29
ENDBRANCH  23  26
ENDBRANCH  19  20
ENDBRANCH  18  19
ENDBRANCH  15  18
ENDBRANCH  13  14
ENDBRANCH  12  13
ENDBRANCH   2  12
BRANCH   1  32
HETATM   32  C   UNL     1      29.816  48.929  40.449  1.00  0.00     0.076 A 
HETATM   33  C   UNL     1      30.553  47.953  39.763  1.00  0.00     0.096 A 
HETATM   34  C   UNL     1      31.728  47.476  40.340  1.00  0.00     0.039 A 
HETATM   35  C   UNL     1      32.118  47.939  41.602  1.00  0.00     0.003 A 
HETATM   36  C   UNL     1      31.347  48.883  42.290  1.00  0.00     0.002 A 
HETATM   37  C   UNL     1      30.181  49.386  41.717  1.00  0.00     0.033 A 
BRANCH  33  38
HETATM   38  O   UNL     1      30.126  47.574  38.519  1.00  0.00    -0.349 OA
BRANCH  38  39
HETATM   39  C   UNL     1      29.535  46.267  38.458  1.00  0.00     0.171 C 
HETATM   40  C   UNL     1      28.215  46.343  37.716  1.00  0.00     0.034 C 
ENDBRANCH  38  39
ENDBRANCH  33  38
ENDBRANCH   1  32
BRANCH   6  41
HETATM   41  N   UNL     1      27.311  48.016  41.316  1.00  0.00    -0.384 N 
HETATM   42  H   UNL     1      26.676  48.281  42.061  1.00  0.00     0.157 HD
HETATM   43  H   UNL     1      28.121  47.495  41.632  1.00  0.00     0.157 HD
ENDBRANCH   6  41
TORSDOF 12
ENDMDL
MODEL 6
REMARK VINA RESULT:      -7.3      4.276      7.115
REMARK  12 active torsions:
REMARK  status: ('A' for Active; 'I' for Inactive)
REMARK    1  A    between atoms: C_2  and  O_3 
REMARK    2  A    between atoms: O_3  and  C_4 
REMARK    3  A    between atoms: C_5  and  N_6 
REMARK    4  A    between atoms: C_7  and  S_8 
REMARK    5  A    between atoms: S_8  and  C_9 
REMARK    6  A    between atoms: C_9  and  C_10 
REMARK       I    between atoms: C_10  and  N_11 
REMARK    7  A    between atoms: N_11  and  C_12 
REMARK    8  A    between atoms: C_12  and  C_13 
REMARK    9  A    between atoms: C_13  and  C_14 
REMARK   10  A    between atoms: C_17  and  S_18 
REMARK   11  A    between atoms: S_18  and  N_19 
REMARK   12  A    between atoms: C_28  and  N_29 
ROOT
HETATM    1  N   UNL     1      28.197  47.116  39.414  1.00  0.00    -0.273 N 
HETATM    2  C   UNL     1      27.172  47.772  40.024  1.00  0.00     0.177 A 
HETATM    3  N   UNL     1      27.309  48.746  40.953  1.00  0.00    -0.204 NA
HETATM    4  C   UNL     1      28.591  49.018  41.195  1.00  0.00     0.162 A 
HETATM    5  C   UNL     1      29.690  48.432  40.603  1.00  0.00     0.081 A 
HETATM    6  C   UNL     1      29.503  47.435  39.633  1.00  0.00     0.124 A 
HETATM    7  N   UNL     1      29.064  49.944  42.080  1.00  0.00    -0.260 N 
HETATM    8  H   UNL     1      28.527  50.559  42.683  1.00  0.00     0.191 HD
HETATM    9  N   UNL     1      30.402  50.003  42.117  1.00  0.00    -0.177 NA
HETATM   10  C   UNL     1      30.797  49.081  41.231  1.00  0.00     0.068 A 
HETATM   11  C   UNL     1      32.251  48.846  41.028  1.00  0.00     0.073 C 
ENDROOT
BRANCH   2  12
HETATM   12  S   UNL     1      25.452  47.416  39.616  1.00  0.00    -0.082 SA
BRANCH  12  13
HETATM   13  C   UNL     1      24.970  49.014  38.882  1.00  0.00     0.185 C 
BRANCH  13  14
HETATM   14  C   UNL     1      26.085  49.687  38.083  1.00  0.00     0.227 C 
HETATM   15  N   UNL     1      26.649  50.753  38.753  1.00  0.00    -0.360 N 
HETATM   16  H   UNL     1      26.272  51.034  39.651  1.00  0.00     0.162 HD
HETATM   17  O   UNL     1      26.469  49.301  36.980  1.00  0.00    -0.273 OA
BRANCH  15  18
HETATM   18  C   UNL     1      27.860  51.427  38.313  1.00  0.00     0.127 C 
BRANCH  18  19
HETATM   19  C   UNL     1      28.374  52.489  39.290  1.00  0.00     0.058 C 
BRANCH  19  20
HETATM   20  C   UNL     1      29.877  52.411  39.440  1.00  0.00    -0.057 A 
HETATM   21  C   UNL     1      30.536  53.136  40.445  1.00  0.00     0.009 A 
HETATM   22  C   UNL     1      31.930  53.118  40.536  1.00  0.00     0.025 A 
HETATM   23  C   UNL     1      32.671  52.355  39.631  1.00  0.00     0.074 A 
HETATM   24  C   UNL     1      32.030  51.618  38.633  1.00  0.00     0.025 A 
HETATM   25  C   UNL     1      30.637  51.645  38.543  1.00  0.00     0.009 A 
BRANCH  23  26
HETATM   26  S   UNL     1      34.440  52.402  39.692  1.00  0.00     0.239 S 
HETATM   27  O   UNL     1      34.867  52.337  41.069  1.00  0.00    -0.206 OA
HETATM   28  O   UNL     1      34.965  51.525  38.673  1.00  0.00    -0.206 OA
BRANCH  26  29
HETATM   29  N   UNL     1      34.770  53.966  39.178  1.00  0.00    -0.225 NA
HETATM   30  H   UNL     1      35.314  54.454  39.891  1.00  0.00     0.136 HD
HETATM   31  H   UNL     1      35.228  53.938  38.267  1.00  0.00     0.136 HD
ENDBRANCH  26  29
ENDBRANCH  23  26
ENDBRANCH  19  20
ENDBRANCH  18  19
ENDBRANCH  15  18
ENDBRANCH  13  14
ENDBRANCH  12  13
ENDBRANCH   2  12
BRANCH   1  32
HETATM   32  C   UNL     1      27.911  45.964  38.607  1.00  0.00     0.076 A 
HETATM   33  C   UNL     1      27.846  44.712  39.236  1.00  0.00     0.096 A 
HETATM   34  C   UNL     1      27.552  43.592  38.462  1.00  0.00     0.039 A 
HETATM   35  C   UNL     1      27.381  43.729  37.079  1.00  0.00     0.003 A 
HETATM   36  C   UNL     1      27.492  44.982  36.464  1.00  0.00     0.002 A 
HETATM   37  C   UNL     1      27.762  46.115  37.228  1.00  0.00     0.033 A 
BRANCH  33  38
HETATM   38  O   UNL     1      27.992  44.661  40.596  1.00  0.00    -0.349 OA
BRANCH  38  39
HETATM   39  C   UNL     1      26.974  43.918  41.282  1.00  0.00     0.171 C 
HETATM   40  C   UNL     1      26.293  44.813  42.300  1.00  0.00     0.034 C 
ENDBRANCH  38  39
ENDBRANCH  33  38
ENDBRANCH   1  32
BRANCH   6  41
HETATM   41  N   UNL     1      30.559  46.813  38.967  1.00  0.00    -0.384 N 
HETATM   42  H   UNL     1      31.489  46.930  39.355  1.00  0.00     0.157 HD
HETATM   43  H   UNL     1      30.542  46.739  37.956  1.00  0.00     0.157 HD
ENDBRANCH   6  41
TORSDOF 12
ENDMDL
MODEL 7
REMARK VINA RESULT:      -7.1     24.401     26.582
REMARK  12 active torsions:
REMARK  status: ('A' for Active; 'I' for Inactive)
REMARK    1  A    between atoms: C_2  and  O_3 
REMARK    2  A    between atoms: O_3  and  C_4 
REMARK    3  A    between atoms: C_5  and  N_6 
REMARK    4  A    between atoms: C_7  and  S_8 
REMARK    5  A    between atoms: S_8  and  C_9 
REMARK    6  A    between atoms: C_9  and  C_10 
REMARK       I    between atoms: C_10  and  N_11 
REMARK    7  A    between atoms: N_11  and  C_12 
REMARK    8  A    between atoms: C_12  and  C_13 
REMARK    9  A    between atoms: C_13  and  C_14 
REMARK   10  A    between atoms: C_17  and  S_18 
REMARK   11  A    between atoms: S_18  and  N_19 
REMARK   12  A    between atoms: C_28  and  N_29 
ROOT
HETATM    1  N   UNL     1      40.423  41.916  64.695  1.00  0.00    -0.273 N 
HETATM    2  C   UNL     1      39.470  41.303  63.942  1.00  0.00     0.177 A 
HETATM    3  N   UNL     1      39.495  40.007  63.552  1.00  0.00    -0.204 NA
HETATM    4  C   UNL     1      40.571  39.373  64.018  1.00  0.00     0.162 A 
HETATM    5  C   UNL     1      41.567  39.902  64.812  1.00  0.00     0.081 A 
HETATM    6  C   UNL     1      41.494  41.248  65.207  1.00  0.00     0.124 A 
HETATM    7  N   UNL     1      40.891  38.064  63.799  1.00  0.00    -0.260 N 
HETATM    8  H   UNL     1      40.374  37.379  63.259  1.00  0.00     0.191 HD
HETATM    9  N   UNL     1      42.036  37.696  64.392  1.00  0.00    -0.177 NA
HETATM   10  C   UNL     1      42.464  38.807  65.003  1.00  0.00     0.068 A 
HETATM   11  C   UNL     1      43.749  38.776  65.749  1.00  0.00     0.073 C 
ENDROOT
BRANCH   2  12
HETATM   12  S   UNL     1      37.996  42.182  63.389  1.00  0.00    -0.082 SA
BRANCH  12  13
HETATM   13  C   UNL     1      36.909  41.900  64.826  1.00  0.00     0.185 C 
BRANCH  13  14
HETATM   14  C   UNL     1      36.446  43.185  65.510  1.00  0.00     0.227 C 
HETATM   15  N   UNL     1      36.666  44.306  64.737  1.00  0.00    -0.360 N 
HETATM   16  H   UNL     1      37.140  44.213  63.845  1.00  0.00     0.162 HD
HETATM   17  O   UNL     1      35.901  43.220  66.612  1.00  0.00    -0.273 OA
BRANCH  15  18
HETATM   18  C   UNL     1      36.129  45.619  65.057  1.00  0.00     0.127 C 
BRANCH  18  19
HETATM   19  C   UNL     1      36.694  46.753  64.195  1.00  0.00     0.058 C 
BRANCH  19  20
HETATM   20  C   UNL     1      37.068  47.949  65.042  1.00  0.00    -0.057 A 
HETATM   21  C   UNL     1      37.957  48.921  64.559  1.00  0.00     0.009 A 
HETATM   22  C   UNL     1      38.355  49.986  65.371  1.00  0.00     0.025 A 
HETATM   23  C   UNL     1      37.847  50.093  66.667  1.00  0.00     0.074 A 
HETATM   24  C   UNL     1      36.952  49.141  67.160  1.00  0.00     0.025 A 
HETATM   25  C   UNL     1      36.563  48.076  66.346  1.00  0.00     0.009 A 
BRANCH  23  26
HETATM   26  S   UNL     1      38.420  51.393  67.725  1.00  0.00     0.239 S 
HETATM   27  O   UNL     1      37.283  52.122  68.234  1.00  0.00    -0.206 OA
HETATM   28  O   UNL     1      39.457  50.874  68.583  1.00  0.00    -0.206 OA
BRANCH  26  29
HETATM   29  N   UNL     1      39.182  52.422  66.639  1.00  0.00    -0.225 NA
HETATM   30  H   UNL     1      38.817  53.370  66.750  1.00  0.00     0.136 HD
HETATM   31  H   UNL     1      40.193  52.361  66.761  1.00  0.00     0.136 HD
ENDBRANCH  26  29
ENDBRANCH  23  26
ENDBRANCH  19  20
ENDBRANCH  18  19
ENDBRANCH  15  18
ENDBRANCH  13  14
ENDBRANCH  12  13
ENDBRANCH   2  12
BRANCH   1  32
HETATM   32  C   UNL     1      40.378  43.341  64.859  1.00  0.00     0.076 A 
HETATM   33  C   UNL     1      39.897  43.856  66.071  1.00  0.00     0.096 A 
HETATM   34  C   UNL     1      39.866  45.238  66.243  1.00  0.00     0.039 A 
HETATM   35  C   UNL     1      40.261  46.077  65.195  1.00  0.00     0.003 A 
HETATM   36  C   UNL     1      40.697  45.544  63.976  1.00  0.00     0.002 A 
HETATM   37  C   UNL     1      40.756  44.163  63.796  1.00  0.00     0.033 A 
BRANCH  33  38
HETATM   38  O   UNL     1      39.560  42.973  67.062  1.00  0.00    -0.349 OA
BRANCH  38  39
HETATM   39  C   UNL     1      39.587  43.520  68.389  1.00  0.00     0.171 C 
HETATM   40  C   UNL     1      40.791  42.980  69.135  1.00  0.00     0.034 C 
ENDBRANCH  38  39
ENDBRANCH  33  38
ENDBRANCH   1  32
BRANCH   6  41
HETATM   41  N   UNL     1      42.444  41.852  66.031  1.00  0.00    -0.384 N 
HETATM   42  H   UNL     1      43.236  42.298  65.582  1.00  0.00     0.157 HD
HETATM   43  H   UNL     1      42.661  41.440  66.932  1.00  0.00     0.157 HD
ENDBRANCH   6  41
TORSDOF 12
ENDMDL
MODEL 8
REMARK VINA RESULT:      -7.1     13.208     15.342
REMARK  12 active torsions:
REMARK  status: ('A' for Active; 'I' for Inactive)
REMARK    1  A    between atoms: C_2  and  O_3 
REMARK    2  A    between atoms: O_3  and  C_4 
REMARK    3  A    between atoms: C_5  and  N_6 
REMARK    4  A    between atoms: C_7  and  S_8 
REMARK    5  A    between atoms: S_8  and  C_9 
REMARK    6  A    between atoms: C_9  and  C_10 
REMARK       I    between atoms: C_10  and  N_11 
REMARK    7  A    between atoms: N_11  and  C_12 
REMARK    8  A    between atoms: C_12  and  C_13 
REMARK    9  A    between atoms: C_13  and  C_14 
REMARK   10  A    between atoms: C_17  and  S_18 
REMARK   11  A    between atoms: S_18  and  N_19 
REMARK   12  A    between atoms: C_28  and  N_29 
ROOT
HETATM    1  N   UNL     1      16.927  49.898  47.188  1.00  0.00    -0.273 N 
HETATM    2  C   UNL     1      16.395  48.752  47.692  1.00  0.00     0.177 A 
HETATM    3  N   UNL     1      15.205  48.218  47.332  1.00  0.00    -0.204 NA
HETATM    4  C   UNL     1      14.605  48.943  46.387  1.00  0.00     0.162 A 
HETATM    5  C   UNL     1      15.083  50.093  45.795  1.00  0.00     0.081 A 
HETATM    6  C   UNL     1      16.331  50.606  46.189  1.00  0.00     0.124 A 
HETATM    7  N   UNL     1      13.395  48.676  45.815  1.00  0.00    -0.260 N 
HETATM    8  H   UNL     1      12.771  47.901  46.013  1.00  0.00     0.191 HD
HETATM    9  N   UNL     1      13.039  49.578  44.890  1.00  0.00    -0.177 NA
HETATM   10  C   UNL     1      14.053  50.453  44.875  1.00  0.00     0.068 A 
HETATM   11  C   UNL     1      13.982  51.629  43.969  1.00  0.00     0.073 C 
ENDROOT
BRANCH   2  12
HETATM   12  S   UNL     1      17.271  47.767  48.922  1.00  0.00    -0.082 SA
BRANCH  12  13
HETATM   13  C   UNL     1      17.255  46.145  48.090  1.00  0.00     0.185 C 
BRANCH  13  14
HETATM   14  C   UNL     1      18.647  45.579  47.813  1.00  0.00     0.227 C 
HETATM   15  N   UNL     1      19.513  46.527  47.308  1.00  0.00    -0.360 N 
HETATM   16  H   UNL     1      19.173  47.463  47.116  1.00  0.00     0.162 HD
HETATM   17  O   UNL     1      18.977  44.418  48.049  1.00  0.00    -0.273 OA
BRANCH  15  18
HETATM   18  C   UNL     1      20.943  46.309  47.161  1.00  0.00     0.127 C 
BRANCH  18  19
HETATM   19  C   UNL     1      21.810  47.420  47.760  1.00  0.00     0.058 C 
BRANCH  19  20
HETATM   20  C   UNL     1      22.845  46.856  48.708  1.00  0.00    -0.057 A 
HETATM   21  C   UNL     1      22.995  45.469  48.864  1.00  0.00     0.009 A 
HETATM   22  C   UNL     1      23.903  44.952  49.792  1.00  0.00     0.025 A 
HETATM   23  C   UNL     1      24.681  45.825  50.556  1.00  0.00     0.074 A 
HETATM   24  C   UNL     1      24.553  47.207  50.404  1.00  0.00     0.025 A 
HETATM   25  C   UNL     1      23.640  47.718  49.480  1.00  0.00     0.009 A 
BRANCH  23  26
HETATM   26  S   UNL     1      25.766  45.171  51.793  1.00  0.00     0.239 S 
HETATM   27  O   UNL     1      26.523  44.080  51.229  1.00  0.00    -0.206 OA
HETATM   28  O   UNL     1      26.389  46.269  52.493  1.00  0.00    -0.206 OA
BRANCH  26  29
HETATM   29  N   UNL     1      24.688  44.477  52.877  1.00  0.00    -0.225 NA
HETATM   30  H   UNL     1      24.163  43.735  52.411  1.00  0.00     0.136 HD
HETATM   31  H   UNL     1      25.192  44.157  53.705  1.00  0.00     0.136 HD
ENDBRANCH  26  29
ENDBRANCH  23  26
ENDBRANCH  19  20
ENDBRANCH  18  19
ENDBRANCH  15  18
ENDBRANCH  13  14
ENDBRANCH  12  13
ENDBRANCH   2  12
BRANCH   1  32
HETATM   32  C   UNL     1      18.093  50.461  47.808  1.00  0.00     0.076 A 
HETATM   33  C   UNL     1      17.919  51.267  48.943  1.00  0.00     0.096 A 
HETATM   34  C   UNL     1      19.047  51.802  49.560  1.00  0.00     0.039 A 
HETATM   35  C   UNL     1      20.314  51.572  49.010  1.00  0.00     0.003 A 
HETATM   36  C   UNL     1      20.463  50.801  47.851  1.00  0.00     0.002 A 
HETATM   37  C   UNL     1      19.347  50.239  47.236  1.00  0.00     0.033 A 
BRANCH  33  38
HETATM   38  O   UNL     1      16.653  51.419  49.441  1.00  0.00    -0.349 OA
BRANCH  38  39
HETATM   39  C   UNL     1      16.131  52.754  49.356  1.00  0.00     0.171 C 
HETATM   40  C   UNL     1      14.834  52.841  50.137  1.00  0.00     0.034 C 
ENDBRANCH  38  39
ENDBRANCH  33  38
ENDBRANCH   1  32
BRANCH   6  41
HETATM   41  N   UNL     1      16.897  51.747  45.622  1.00  0.00    -0.384 N 
HETATM   42  H   UNL     1      17.636  51.612  44.939  1.00  0.00     0.157 HD
HETATM   43  H   UNL     1      17.003  52.586  46.180  1.00  0.00     0.157 HD
ENDBRANCH   6  41
TORSDOF 12
ENDMDL
MODEL 9
REMARK VINA RESULT:      -6.8      2.510      3.847
REMARK  12 active torsions:
REMARK  status: ('A' for Active; 'I' for Inactive)
REMARK    1  A    between atoms: C_2  and  O_3 
REMARK    2  A    between atoms: O_3  and  C_4 
REMARK    3  A    between atoms: C_5  and  N_6 
REMARK    4  A    between atoms: C_7  and  S_8 
REMARK    5  A    between atoms: S_8  and  C_9 
REMARK    6  A    between atoms: C_9  and  C_10 
REMARK       I    between atoms: C_10  and  N_11 
REMARK    7  A    between atoms: N_11  and  C_12 
REMARK    8  A    between atoms: C_12  and  C_13 
REMARK    9  A    between atoms: C_13  and  C_14 
REMARK   10  A    between atoms: C_17  and  S_18 
REMARK   11  A    between atoms: S_18  and  N_19 
REMARK   12  A    between atoms: C_28  and  N_29 
ROOT
HETATM    1  N   UNL     1      27.676  47.871  40.188  1.00  0.00    -0.273 N 
HETATM    2  C   UNL     1      28.727  47.072  39.855  1.00  0.00     0.177 A 
HETATM    3  N   UNL     1      28.789  45.736  40.059  1.00  0.00    -0.204 NA
HETATM    4  C   UNL     1      27.670  45.270  40.613  1.00  0.00     0.162 A 
HETATM    5  C   UNL     1      26.546  45.995  40.951  1.00  0.00     0.081 A 
HETATM    6  C   UNL     1      26.518  47.378  40.709  1.00  0.00     0.124 A 
HETATM    7  N   UNL     1      27.419  43.971  40.949  1.00  0.00    -0.260 N 
HETATM    8  H   UNL     1      28.030  43.169  40.833  1.00  0.00     0.191 HD
HETATM    9  N   UNL     1      26.206  43.791  41.492  1.00  0.00    -0.177 NA
HETATM   10  C   UNL     1      25.668  45.017  41.510  1.00  0.00     0.068 A 
HETATM   11  C   UNL     1      24.311  45.205  42.085  1.00  0.00     0.073 C 
ENDROOT
BRANCH   2  12
HETATM   12  S   UNL     1      30.195  47.736  39.046  1.00  0.00    -0.082 SA
BRANCH  12  13
HETATM   13  C   UNL     1      31.490  46.916  40.032  1.00  0.00     0.185 C 
BRANCH  13  14
HETATM   14  C   UNL     1      32.163  47.833  41.052  1.00  0.00     0.227 C 
HETATM   15  N   UNL     1      31.258  48.625  41.729  1.00  0.00    -0.360 N 
HETATM   16  H   UNL     1      30.275  48.586  41.481  1.00  0.00     0.162 HD
HETATM   17  O   UNL     1      33.371  47.842  41.278  1.00  0.00    -0.273 OA
BRANCH  15  18
HETATM   18  C   UNL     1      31.606  49.426  42.892  1.00  0.00     0.127 C 
BRANCH  18  19
HETATM   19  C   UNL     1      31.875  50.901  42.578  1.00  0.00     0.058 C 
BRANCH  19  20
HETATM   20  C   UNL     1      33.263  51.310  43.018  1.00  0.00    -0.057 A 
HETATM   21  C   UNL     1      33.469  51.926  44.263  1.00  0.00     0.009 A 
HETATM   22  C   UNL     1      34.742  52.366  44.635  1.00  0.00     0.025 A 
HETATM   23  C   UNL     1      35.821  52.172  43.769  1.00  0.00     0.074 A 
HETATM   24  C   UNL     1      35.635  51.549  42.533  1.00  0.00     0.025 A 
HETATM   25  C   UNL     1      34.360  51.117  42.163  1.00  0.00     0.009 A 
BRANCH  23  26
HETATM   26  S   UNL     1      37.415  52.808  44.204  1.00  0.00     0.239 S 
HETATM   27  O   UNL     1      37.503  54.187  43.785  1.00  0.00    -0.206 OA
HETATM   28  O   UNL     1      37.738  52.381  45.544  1.00  0.00    -0.206 OA
BRANCH  26  29
HETATM   29  N   UNL     1      38.429  51.948  43.181  1.00  0.00    -0.225 NA
HETATM   30  H   UNL     1      39.107  52.583  42.754  1.00  0.00     0.136 HD
HETATM   31  H   UNL     1      38.863  51.179  43.694  1.00  0.00     0.136 HD
ENDBRANCH  26  29
ENDBRANCH  23  26
ENDBRANCH  19  20
ENDBRANCH  18  19
ENDBRANCH  15  18
ENDBRANCH  13  14
ENDBRANCH  12  13
ENDBRANCH   2  12
BRANCH   1  32
HETATM   32  C   UNL     1      27.826  49.296  40.109  1.00  0.00     0.076 A 
HETATM   33  C   UNL     1      27.604  49.921  38.873  1.00  0.00     0.096 A 
HETATM   34  C   UNL     1      27.731  51.305  38.793  1.00  0.00     0.039 A 
HETATM   35  C   UNL     1      28.126  52.032  39.923  1.00  0.00     0.003 A 
HETATM   36  C   UNL     1      28.385  51.385  41.137  1.00  0.00     0.002 A 
HETATM   37  C   UNL     1      28.239  50.003  41.239  1.00  0.00     0.033 A 
BRANCH  33  38
HETATM   38  O   UNL     1      27.189  49.148  37.822  1.00  0.00    -0.349 OA
BRANCH  38  39
HETATM   39  C   UNL     1      25.792  49.260  37.509  1.00  0.00     0.171 C 
HETATM   40  C   UNL     1      25.224  47.882  37.229  1.00  0.00     0.034 C 
ENDBRANCH  38  39
ENDBRANCH  33  38
ENDBRANCH   1  32
BRANCH   6  41
HETATM   41  N   UNL     1      25.412  48.178  40.995  1.00  0.00    -0.384 N 
HETATM   42  H   UNL     1      24.549  47.709  41.249  1.00  0.00     0.157 HD
HETATM   43  H   UNL     1      25.274  49.045  40.487  1.00  0.00     0.157 HD
ENDBRANCH   6  41
TORSDOF 12
ENDMDL
MODEL 10
REMARK VINA RESULT:      -6.8      2.978      4.281
REMARK  12 active torsions:
REMARK  status: ('A' for Active; 'I' for Inactive)
REMARK    1  A    between atoms: C_2  and  O_3 
REMARK    2  A    between atoms: O_3  and  C_4 
REMARK    3  A    between atoms: C_5  and  N_6 
REMARK    4  A    between atoms: C_7  and  S_8 
REMARK    5  A    between atoms: S_8  and  C_9 
REMARK    6  A    between atoms: C_9  and  C_10 
REMARK       I    between atoms: C_10  and  N_11 
REMARK    7  A    between atoms: N_11  and  C_12 
REMARK    8  A    between atoms: C_12  and  C_13 
REMARK    9  A    between atoms: C_13  and  C_14 
REMARK   10  A    between atoms: C_17  and  S_18 
REMARK   11  A    between atoms: S_18  and  N_19 
REMARK   12  A    between atoms: C_28  and  N_29 
ROOT
HETATM    1  N   UNL     1      28.341  49.537  39.791  1.00  0.00    -0.273 N 
HETATM    2  C   UNL     1      28.351  50.458  38.789  1.00  0.00     0.177 A 
HETATM    3  N   UNL     1      27.280  50.813  38.042  1.00  0.00    -0.204 NA
HETATM    4  C   UNL     1      26.179  50.164  38.421  1.00  0.00     0.162 A 
HETATM    5  C   UNL     1      26.067  49.245  39.443  1.00  0.00     0.081 A 
HETATM    6  C   UNL     1      27.202  48.915  40.202  1.00  0.00     0.124 A 
HETATM    7  N   UNL     1      24.938  50.294  37.867  1.00  0.00    -0.260 N 
HETATM    8  H   UNL     1      24.660  50.891  37.095  1.00  0.00     0.191 HD
HETATM    9  N   UNL     1      24.016  49.516  38.451  1.00  0.00    -0.177 NA
HETATM   10  C   UNL     1      24.691  48.863  39.405  1.00  0.00     0.068 A 
HETATM   11  C   UNL     1      23.977  47.871  40.250  1.00  0.00     0.073 C 
ENDROOT
BRANCH   2  12
HETATM   12  S   UNL     1      29.850  51.360  38.354  1.00  0.00    -0.082 SA
BRANCH  12  13
HETATM   13  C   UNL     1      29.832  52.637  39.656  1.00  0.00     0.185 C 
BRANCH  13  14
HETATM   14  C   UNL     1      31.204  52.909  40.271  1.00  0.00     0.227 C 
HETATM   15  N   UNL     1      32.147  51.972  39.900  1.00  0.00    -0.360 N 
HETATM   16  H   UNL     1      31.870  51.185  39.323  1.00  0.00     0.162 HD
HETATM   17  O   UNL     1      31.457  53.876  40.988  1.00  0.00    -0.273 OA
BRANCH  15  18
HETATM   18  C   UNL     1      33.568  52.115  40.170  1.00  0.00     0.127 C 
BRANCH  18  19
HETATM   19  C   UNL     1      34.050  51.350  41.407  1.00  0.00     0.058 C 
BRANCH  19  20
HETATM   20  C   UNL     1      35.561  51.308  41.469  1.00  0.00    -0.057 A 
HETATM   21  C   UNL     1      36.338  51.938  40.484  1.00  0.00     0.009 A 
HETATM   22  C   UNL     1      37.731  51.837  40.506  1.00  0.00     0.025 A 
HETATM   23  C   UNL     1      38.355  51.118  41.528  1.00  0.00     0.074 A 
HETATM   24  C   UNL     1      37.597  50.495  42.523  1.00  0.00     0.025 A 
HETATM   25  C   UNL     1      36.205  50.596  42.492  1.00  0.00     0.009 A 
BRANCH  23  26
HETATM   26  S   UNL     1      40.114  50.916  41.505  1.00  0.00     0.239 S 
HETATM   27  O   UNL     1      40.740  52.210  41.634  1.00  0.00    -0.206 OA
HETATM   28  O   UNL     1      40.466  49.796  42.345  1.00  0.00    -0.206 OA
BRANCH  26  29
HETATM   29  N   UNL     1      40.392  50.421  39.926  1.00  0.00    -0.225 NA
HETATM   30  H   UNL     1      39.535  50.520  39.379  1.00  0.00     0.136 HD
HETATM   31  H   UNL     1      41.181  50.939  39.538  1.00  0.00     0.136 HD
ENDBRANCH  26  29
ENDBRANCH  23  26
ENDBRANCH  19  20
ENDBRANCH  18  19
ENDBRANCH  15  18
ENDBRANCH  13  14
ENDBRANCH  12  13
ENDBRANCH   2  12
BRANCH   1  32
HETATM   32  C   UNL     1      29.587  49.104  40.357  1.00  0.00     0.076 A 
HETATM   33  C   UNL     1      30.363  48.186  39.634  1.00  0.00     0.096 A 
HETATM   34  C   UNL     1      31.581  47.775  40.170  1.00  0.00     0.039 A 
HETATM   35  C   UNL     1      31.977  48.240  41.429  1.00  0.00     0.003 A 
HETATM   36  C   UNL     1      31.169  49.123  42.155  1.00  0.00     0.002 A 
HETATM   37  C   UNL     1      29.958  49.562  41.622  1.00  0.00     0.033 A 
BRANCH  33  38
HETATM   38  O   UNL     1      29.925  47.802  38.396  1.00  0.00    -0.349 OA
BRANCH  38  39
HETATM   39  C   UNL     1      29.481  46.439  38.311  1.00  0.00     0.171 C 
HETATM   40  C   UNL     1      28.126  46.389  37.631  1.00  0.00     0.034 C 
ENDBRANCH  38  39
ENDBRANCH  33  38
ENDBRANCH   1  32
BRANCH   6  41
HETATM   41  N   UNL     1      27.168  48.017  41.269  1.00  0.00    -0.384 N 
HETATM   42  H   UNL     1      27.160  48.405  42.206  1.00  0.00     0.157 HD
HETATM   43  H   UNL     1      27.656  47.131  41.195  1.00  0.00     0.157 HD
ENDBRANCH   6  41
TORSDOF 12
ENDMDL
