MODEL 1
REMARK VINA RESULT:      -8.5      0.000      0.000
REMARK  9 active torsions:
REMARK  status: ('A' for Active; 'I' for Inactive)
REMARK    1  A    between atoms: C_2  and  N_3 
REMARK    2  A    between atoms: C_6  and  C_7 
REMARK    3  A    between atoms: C_7  and  O_8 
REMARK    4  A    between atoms: O_8  and  C_9 
REMARK    5  A    between atoms: C_12  and  C_13 
REMARK    6  A    between atoms: C_14  and  C_15 
REMARK       I    between atoms: C_15  and  N_16 
REMARK    7  A    between atoms: N_16  and  C_17 
REMARK    8  A    between atoms: C_18  and  C_19 
REMARK       I    between atoms: C_19  and  N_20 
REMARK    9  A    between atoms: N_20  and  C_21 
ROOT
HETATM    1  C   UNL     1      24.983  45.295  51.381  1.00  0.00     0.245 C 
HETATM    2  N   UNL     1      25.034  45.972  50.173  1.00  0.00    -0.323 N 
HETATM    3  O   UNL     1      24.034  44.657  51.814  1.00  0.00    -0.268 OA
HETATM    4  H   UNL     1      25.971  46.108  49.812  1.00  0.00     0.169 HD
ENDROOT
BRANCH   1   5
HETATM    5  C   UNL     1      26.298  45.309  52.069  1.00  0.00     0.075 C 
HETATM    6  C   UNL     1      26.392  44.714  53.267  1.00  0.00     0.020 C 
BRANCH   6   7
HETATM    7  C   UNL     1      27.568  44.626  54.076  1.00  0.00     0.005 A 
HETATM    8  C   UNL     1      28.503  43.537  54.085  1.00  0.00     0.073 A 
HETATM    9  C   UNL     1      29.529  43.913  54.953  1.00  0.00     0.025 A 
HETATM   10  N   UNL     1      29.257  45.183  55.420  1.00  0.00    -0.353 N 
HETATM   11  C   UNL     1      30.750  43.131  55.325  1.00  0.00     0.069 C 
HETATM   12  C   UNL     1      28.041  45.618  54.922  1.00  0.00     0.019 A 
HETATM   13  C   UNL     1      27.490  46.966  55.255  1.00  0.00     0.069 C 
BRANCH   8  14
HETATM   14  C   UNL     1      28.462  42.261  53.352  1.00  0.00     0.296 C 
HETATM   15  O   UNL     1      28.220  41.182  53.883  1.00  0.00    -0.259 OA
BRANCH  14  16
HETATM   16  O   UNL     1      28.736  42.400  52.025  1.00  0.00    -0.318 OA
BRANCH  16  17
HETATM   17  C   UNL     1      28.137  41.445  51.141  1.00  0.00     0.174 C 
HETATM   18  C   UNL     1      26.727  41.876  50.785  1.00  0.00     0.034 C 
ENDBRANCH  16  17
ENDBRANCH  14  16
ENDBRANCH   8  14
BRANCH  10  19
HETATM   19  C   UNL     1      30.153  45.980  56.253  1.00  0.00     0.124 C 
HETATM   20  C   UNL     1      29.869  45.824  57.736  1.00  0.00     0.027 C 
ENDBRANCH  10  19
ENDBRANCH   6   7
ENDBRANCH   1   5
BRANCH   2  21
HETATM   21  C   UNL     1      24.008  45.852  49.198  1.00  0.00     0.050 A 
HETATM   22  C   UNL     1      23.052  46.836  48.881  1.00  0.00     0.058 A 
HETATM   23  C   UNL     1      22.005  46.511  47.995  1.00  0.00     0.019 A 
HETATM   24  C   UNL     1      21.930  45.253  47.396  1.00  0.00     0.001 A 
HETATM   25  C   UNL     1      22.914  44.308  47.658  1.00  0.00     0.002 A 
HETATM   26  C   UNL     1      23.951  44.608  48.542  1.00  0.00     0.030 A 
BRANCH  22  27
HETATM   27  C   UNL     1      23.107  48.273  49.287  1.00  0.00     0.254 C 
HETATM   28  N   UNL     1      21.970  49.023  49.047  1.00  0.00    -0.352 N 
HETATM   29  H   UNL     1      21.199  48.593  48.554  1.00  0.00     0.163 HD
HETATM   30  O   UNL     1      24.076  48.702  49.909  1.00  0.00    -0.268 OA
BRANCH  28  31
HETATM   31  C   UNL     1      21.868  50.391  49.437  1.00  0.00     0.084 A 
HETATM   32  C   UNL     1      20.984  51.337  48.674  1.00  0.00     0.027 A 
HETATM   33  C   UNL     1      20.611  50.925  50.068  1.00  0.00     0.027 A 
ENDBRANCH  28  31
ENDBRANCH  22  27
ENDBRANCH   2  21
TORSDOF 9
ENDMDL
MODEL 2
REMARK VINA RESULT:      -8.2      3.737      8.412
REMARK  9 active torsions:
REMARK  status: ('A' for Active; 'I' for Inactive)
REMARK    1  A    between atoms: C_2  and  N_3 
REMARK    2  A    between atoms: C_6  and  C_7 
REMARK    3  A    between atoms: C_7  and  O_8 
REMARK    4  A    between atoms: O_8  and  C_9 
REMARK    5  A    between atoms: C_12  and  C_13 
REMARK    6  A    between atoms: C_14  and  C_15 
REMARK       I    between atoms: C_15  and  N_16 
REMARK    7  A    between atoms: N_16  and  C_17 
REMARK    8  A    between atoms: C_18  and  C_19 
REMARK       I    between atoms: C_19  and  N_20 
REMARK    9  A    between atoms: N_20  and  C_21 
ROOT
HETATM    1  C   UNL     1      29.128  42.371  53.845  1.00  0.00     0.245 C 
HETATM    2  N   UNL     1      30.202  43.185  54.168  1.00  0.00    -0.323 N 
HETATM    3  O   UNL     1      28.228  42.027  54.596  1.00  0.00    -0.268 OA
HETATM    4  H   UNL     1      30.615  43.664  53.376  1.00  0.00     0.169 HD
ENDROOT
BRANCH   1   5
HETATM    5  C   UNL     1      29.105  42.051  52.396  1.00  0.00     0.075 C 
HETATM    6  C   UNL     1      28.222  41.139  51.963  1.00  0.00     0.020 C 
BRANCH   6   7
HETATM    7  C   UNL     1      28.054  40.702  50.611  1.00  0.00     0.005 A 
HETATM    8  C   UNL     1      27.375  41.425  49.573  1.00  0.00     0.073 A 
HETATM    9  C   UNL     1      27.527  40.669  48.410  1.00  0.00     0.025 A 
HETATM   10  N   UNL     1      28.294  39.562  48.711  1.00  0.00    -0.353 N 
HETATM   11  C   UNL     1      27.002  40.972  47.042  1.00  0.00     0.069 C 
HETATM   12  C   UNL     1      28.593  39.548  50.063  1.00  0.00     0.019 A 
HETATM   13  C   UNL     1      29.419  38.466  50.676  1.00  0.00     0.069 C 
BRANCH   8  14
HETATM   14  C   UNL     1      26.653  42.706  49.641  1.00  0.00     0.296 C 
HETATM   15  O   UNL     1      27.175  43.792  49.410  1.00  0.00    -0.259 OA
BRANCH  14  16
HETATM   16  O   UNL     1      25.346  42.562  50.001  1.00  0.00    -0.318 OA
BRANCH  16  17
HETATM   17  C   UNL     1      24.390  43.351  49.282  1.00  0.00     0.174 C 
HETATM   18  C   UNL     1      23.136  43.539  50.116  1.00  0.00     0.034 C 
ENDBRANCH  16  17
ENDBRANCH  14  16
ENDBRANCH   8  14
BRANCH  10  19
HETATM   19  C   UNL     1      28.784  38.590  47.738  1.00  0.00     0.124 C 
HETATM   20  C   UNL     1      27.837  37.418  47.551  1.00  0.00     0.027 C 
ENDBRANCH  10  19
ENDBRANCH   6   7
ENDBRANCH   1   5
BRANCH   2  21
HETATM   21  C   UNL     1      30.281  43.868  55.411  1.00  0.00     0.050 A 
HETATM   22  C   UNL     1      29.620  45.069  55.737  1.00  0.00     0.058 A 
HETATM   23  C   UNL     1      29.917  45.702  56.960  1.00  0.00     0.019 A 
HETATM   24  C   UNL     1      30.814  45.138  57.866  1.00  0.00     0.001 A 
HETATM   25  C   UNL     1      31.413  43.919  57.572  1.00  0.00     0.002 A 
HETATM   26  C   UNL     1      31.139  43.283  56.360  1.00  0.00     0.030 A 
BRANCH  22  27
HETATM   27  C   UNL     1      28.501  45.689  54.963  1.00  0.00     0.254 C 
HETATM   28  N   UNL     1      27.405  44.883  54.716  1.00  0.00    -0.352 N 
HETATM   29  H   UNL     1      27.440  43.914  55.000  1.00  0.00     0.163 HD
HETATM   30  O   UNL     1      28.533  46.885  54.685  1.00  0.00    -0.268 OA
BRANCH  28  31
HETATM   31  C   UNL     1      26.246  45.367  54.040  1.00  0.00     0.084 A 
HETATM   32  C   UNL     1      26.177  45.347  52.538  1.00  0.00     0.027 A 
HETATM   33  C   UNL     1      25.308  44.423  53.340  1.00  0.00     0.027 A 
ENDBRANCH  28  31
ENDBRANCH  22  27
ENDBRANCH   2  21
TORSDOF 9
ENDMDL
MODEL 3
REMARK VINA RESULT:      -7.9      2.023      9.225
REMARK  9 active torsions:
REMARK  status: ('A' for Active; 'I' for Inactive)
REMARK    1  A    between atoms: C_2  and  N_3 
REMARK    2  A    between atoms: C_6  and  C_7 
REMARK    3  A    between atoms: C_7  and  O_8 
REMARK    4  A    between atoms: O_8  and  C_9 
REMARK    5  A    between atoms: C_12  and  C_13 
REMARK    6  A    between atoms: C_14  and  C_15 
REMARK       I    between atoms: C_15  and  N_16 
REMARK    7  A    between atoms: N_16  and  C_17 
REMARK    8  A    between atoms: C_18  and  C_19 
REMARK       I    between atoms: C_19  and  N_20 
REMARK    9  A    between atoms: N_20  and  C_21 
ROOT
HETATM    1  C   UNL     1      25.901  45.849  50.862  1.00  0.00     0.245 C 
HETATM    2  N   UNL     1      25.819  45.009  51.961  1.00  0.00    -0.323 N 
HETATM    3  O   UNL     1      26.862  45.976  50.118  1.00  0.00    -0.268 OA
HETATM    4  H   UNL     1      24.873  44.749  52.216  1.00  0.00     0.169 HD
ENDROOT
BRANCH   1   5
HETATM    5  C   UNL     1      24.602  46.513  50.585  1.00  0.00     0.075 C 
HETATM    6  C   UNL     1      24.162  46.537  49.319  1.00  0.00     0.020 C 
BRANCH   6   7
HETATM    7  C   UNL     1      22.941  47.127  48.861  1.00  0.00     0.005 A 
HETATM    8  C   UNL     1      22.748  48.510  48.532  1.00  0.00     0.073 A 
HETATM    9  C   UNL     1      21.440  48.617  48.055  1.00  0.00     0.025 A 
HETATM   10  N   UNL     1      20.876  47.357  48.055  1.00  0.00    -0.353 N 
HETATM   11  C   UNL     1      20.731  49.848  47.584  1.00  0.00     0.069 C 
HETATM   12  C   UNL     1      21.770  46.440  48.581  1.00  0.00     0.019 A 
HETATM   13  C   UNL     1      21.432  44.990  48.699  1.00  0.00     0.069 C 
BRANCH   8  14
HETATM   14  C   UNL     1      23.686  49.639  48.638  1.00  0.00     0.296 C 
HETATM   15  O   UNL     1      23.630  50.486  49.525  1.00  0.00    -0.259 OA
BRANCH  14  16
HETATM   16  O   UNL     1      24.615  49.655  47.641  1.00  0.00    -0.318 OA
BRANCH  16  17
HETATM   17  C   UNL     1      25.899  50.201  47.967  1.00  0.00     0.174 C 
HETATM   18  C   UNL     1      26.723  49.179  48.728  1.00  0.00     0.034 C 
ENDBRANCH  16  17
ENDBRANCH  14  16
ENDBRANCH   8  14
BRANCH  10  19
HETATM   19  C   UNL     1      19.562  47.026  47.511  1.00  0.00     0.124 C 
HETATM   20  C   UNL     1      18.457  47.114  48.548  1.00  0.00     0.027 C 
ENDBRANCH  10  19
ENDBRANCH   6   7
ENDBRANCH   1   5
BRANCH   2  21
HETATM   21  C   UNL     1      26.822  44.047  52.250  1.00  0.00     0.050 A 
HETATM   22  C   UNL     1      27.879  44.206  53.167  1.00  0.00     0.058 A 
HETATM   23  C   UNL     1      28.881  43.218  53.234  1.00  0.00     0.019 A 
HETATM   24  C   UNL     1      28.817  42.071  52.443  1.00  0.00     0.001 A 
HETATM   25  C   UNL     1      27.737  41.883  51.589  1.00  0.00     0.002 A 
HETATM   26  C   UNL     1      26.742  42.858  51.502  1.00  0.00     0.030 A 
BRANCH  22  27
HETATM   27  C   UNL     1      27.982  45.275  54.207  1.00  0.00     0.254 C 
HETATM   28  N   UNL     1      29.057  45.189  55.072  1.00  0.00    -0.352 N 
HETATM   29  H   UNL     1      29.669  44.386  55.009  1.00  0.00     0.163 HD
HETATM   30  O   UNL     1      27.209  46.230  54.188  1.00  0.00    -0.268 OA
BRANCH  28  31
HETATM   31  C   UNL     1      29.305  46.174  56.073  1.00  0.00     0.084 A 
HETATM   32  C   UNL     1      28.618  46.094  57.407  1.00  0.00     0.027 A 
HETATM   33  C   UNL     1      30.093  45.840  57.309  1.00  0.00     0.027 A 
ENDBRANCH  28  31
ENDBRANCH  22  27
ENDBRANCH   2  21
TORSDOF 9
ENDMDL
MODEL 4
REMARK VINA RESULT:      -7.9      2.137      4.424
REMARK  9 active torsions:
REMARK  status: ('A' for Active; 'I' for Inactive)
REMARK    1  A    between atoms: C_2  and  N_3 
REMARK    2  A    between atoms: C_6  and  C_7 
REMARK    3  A    between atoms: C_7  and  O_8 
REMARK    4  A    between atoms: O_8  and  C_9 
REMARK    5  A    between atoms: C_12  and  C_13 
REMARK    6  A    between atoms: C_14  and  C_15 
REMARK       I    between atoms: C_15  and  N_16 
REMARK    7  A    between atoms: N_16  and  C_17 
REMARK    8  A    between atoms: C_18  and  C_19 
REMARK       I    between atoms: C_19  and  N_20 
REMARK    9  A    between atoms: N_20  and  C_21 
ROOT
HETATM    1  C   UNL     1      24.671  48.537  49.229  1.00  0.00     0.245 C 
HETATM    2  N   UNL     1      23.342  48.258  49.504  1.00  0.00    -0.323 N 
HETATM    3  O   UNL     1      25.089  49.421  48.496  1.00  0.00    -0.268 OA
HETATM    4  H   UNL     1      23.191  47.780  50.385  1.00  0.00     0.169 HD
ENDROOT
BRANCH   1   5
HETATM    5  C   UNL     1      25.583  47.705  50.053  1.00  0.00     0.075 C 
HETATM    6  C   UNL     1      25.063  47.033  51.091  1.00  0.00     0.020 C 
BRANCH   6   7
HETATM    7  C   UNL     1      25.781  46.186  51.993  1.00  0.00     0.005 A 
HETATM    8  C   UNL     1      26.366  44.917  51.667  1.00  0.00     0.073 A 
HETATM    9  C   UNL     1      27.032  44.489  52.817  1.00  0.00     0.025 A 
HETATM   10  N   UNL     1      26.894  45.465  53.784  1.00  0.00    -0.353 N 
HETATM   11  C   UNL     1      27.802  43.221  53.016  1.00  0.00     0.069 C 
HETATM   12  C   UNL     1      26.099  46.493  53.307  1.00  0.00     0.019 A 
HETATM   13  C   UNL     1      25.782  47.694  54.137  1.00  0.00     0.069 C 
BRANCH   8  14
HETATM   14  C   UNL     1      26.326  44.162  50.404  1.00  0.00     0.296 C 
HETATM   15  O   UNL     1      27.277  44.079  49.633  1.00  0.00    -0.259 OA
BRANCH  14  16
HETATM   16  O   UNL     1      25.118  43.576  50.172  1.00  0.00    -0.318 OA
BRANCH  16  17
HETATM   17  C   UNL     1      24.392  44.030  49.024  1.00  0.00     0.174 C 
HETATM   18  C   UNL     1      22.991  44.451  49.425  1.00  0.00     0.034 C 
ENDBRANCH  16  17
ENDBRANCH  14  16
ENDBRANCH   8  14
BRANCH  10  19
HETATM   19  C   UNL     1      27.552  45.453  55.088  1.00  0.00     0.124 C 
HETATM   20  C   UNL     1      28.903  46.146  55.069  1.00  0.00     0.027 C 
ENDBRANCH  10  19
ENDBRANCH   6   7
ENDBRANCH   1   5
BRANCH   2  21
HETATM   21  C   UNL     1      22.290  49.112  49.077  1.00  0.00     0.050 A 
HETATM   22  C   UNL     1      21.401  48.857  48.014  1.00  0.00     0.058 A 
HETATM   23  C   UNL     1      20.504  49.869  47.616  1.00  0.00     0.019 A 
HETATM   24  C   UNL     1      20.453  51.092  48.284  1.00  0.00     0.001 A 
HETATM   25  C   UNL     1      21.283  51.314  49.376  1.00  0.00     0.002 A 
HETATM   26  C   UNL     1      22.186  50.328  49.776  1.00  0.00     0.030 A 
BRANCH  22  27
HETATM   27  C   UNL     1      21.205  47.541  47.333  1.00  0.00     0.254 C 
HETATM   28  N   UNL     1      19.899  47.183  47.053  1.00  0.00    -0.352 N 
HETATM   29  H   UNL     1      19.151  47.779  47.379  1.00  0.00     0.163 HD
HETATM   30  O   UNL     1      22.177  46.895  46.947  1.00  0.00    -0.268 OA
BRANCH  28  31
HETATM   31  C   UNL     1      19.576  45.981  46.356  1.00  0.00     0.084 A 
HETATM   32  C   UNL     1      19.449  44.680  47.099  1.00  0.00     0.027 A 
HETATM   33  C   UNL     1      18.229  45.331  46.517  1.00  0.00     0.027 A 
ENDBRANCH  28  31
ENDBRANCH  22  27
ENDBRANCH   2  21
TORSDOF 9
ENDMDL
MODEL 5
REMARK VINA RESULT:      -7.6      3.760      8.032
REMARK  9 active torsions:
REMARK  status: ('A' for Active; 'I' for Inactive)
REMARK    1  A    between atoms: C_2  and  N_3 
REMARK    2  A    between atoms: C_6  and  C_7 
REMARK    3  A    between atoms: C_7  and  O_8 
REMARK    4  A    between atoms: O_8  and  C_9 
REMARK    5  A    between atoms: C_12  and  C_13 
REMARK    6  A    between atoms: C_14  and  C_15 
REMARK       I    between atoms: C_15  and  N_16 
REMARK    7  A    between atoms: N_16  and  C_17 
REMARK    8  A    between atoms: C_18  and  C_19 
REMARK       I    between atoms: C_19  and  N_20 
REMARK    9  A    between atoms: N_20  and  C_21 
ROOT
HETATM    1  C   UNL     1      28.289  42.698  53.320  1.00  0.00     0.245 C 
HETATM    2  N   UNL     1      29.425  43.467  53.521  1.00  0.00    -0.323 N 
HETATM    3  O   UNL     1      27.584  42.206  54.189  1.00  0.00    -0.268 OA
HETATM    4  H   UNL     1      29.649  44.087  52.751  1.00  0.00     0.169 HD
ENDROOT
BRANCH   1   5
HETATM    5  C   UNL     1      27.921  42.638  51.883  1.00  0.00     0.075 C 
HETATM    6  C   UNL     1      26.864  41.890  51.532  1.00  0.00     0.020 C 
BRANCH   6   7
HETATM    7  C   UNL     1      26.361  41.712  50.204  1.00  0.00     0.005 A 
HETATM    8  C   UNL     1      26.938  40.874  49.193  1.00  0.00     0.073 A 
HETATM    9  C   UNL     1      26.077  40.939  48.096  1.00  0.00     0.025 A 
HETATM   10  N   UNL     1      25.007  41.744  48.434  1.00  0.00    -0.353 N 
HETATM   11  C   UNL     1      26.220  40.254  46.773  1.00  0.00     0.069 C 
HETATM   12  C   UNL     1      25.185  42.255  49.708  1.00  0.00     0.019 A 
HETATM   13  C   UNL     1      24.178  43.157  50.343  1.00  0.00     0.069 C 
BRANCH   8  14
HETATM   14  C   UNL     1      28.172  40.073  49.231  1.00  0.00     0.296 C 
HETATM   15  O   UNL     1      29.160  40.317  48.545  1.00  0.00    -0.259 OA
BRANCH  14  16
HETATM   16  O   UNL     1      28.100  39.023  50.096  1.00  0.00    -0.318 OA
BRANCH  16  17
HETATM   17  C   UNL     1      28.155  37.711  49.522  1.00  0.00     0.174 C 
HETATM   18  C   UNL     1      26.762  37.111  49.457  1.00  0.00     0.034 C 
ENDBRANCH  16  17
ENDBRANCH  14  16
ENDBRANCH   8  14
BRANCH  10  19
HETATM   19  C   UNL     1      23.827  41.962  47.603  1.00  0.00     0.124 C 
HETATM   20  C   UNL     1      22.766  40.893  47.798  1.00  0.00     0.027 C 
ENDBRANCH  10  19
ENDBRANCH   6   7
ENDBRANCH   1   5
BRANCH   2  21
HETATM   21  C   UNL     1      29.807  43.921  54.811  1.00  0.00     0.050 A 
HETATM   22  C   UNL     1      29.397  45.125  55.417  1.00  0.00     0.058 A 
HETATM   23  C   UNL     1      29.981  45.507  56.642  1.00  0.00     0.019 A 
HETATM   24  C   UNL     1      30.917  44.694  57.280  1.00  0.00     0.001 A 
HETATM   25  C   UNL     1      31.268  43.475  56.714  1.00  0.00     0.002 A 
HETATM   26  C   UNL     1      30.709  43.086  55.495  1.00  0.00     0.030 A 
BRANCH  22  27
HETATM   27  C   UNL     1      28.275  45.999  54.957  1.00  0.00     0.254 C 
HETATM   28  N   UNL     1      27.128  45.352  54.531  1.00  0.00    -0.352 N 
HETATM   29  H   UNL     1      27.128  44.342  54.485  1.00  0.00     0.163 HD
HETATM   30  O   UNL     1      28.352  47.219  55.078  1.00  0.00    -0.268 OA
BRANCH  28  31
HETATM   31  C   UNL     1      25.964  46.067  54.121  1.00  0.00     0.084 A 
HETATM   32  C   UNL     1      25.931  46.770  52.793  1.00  0.00     0.027 A 
HETATM   33  C   UNL     1      25.089  45.549  53.013  1.00  0.00     0.027 A 
ENDBRANCH  28  31
ENDBRANCH  22  27
ENDBRANCH   2  21
TORSDOF 9
ENDMDL
MODEL 6
REMARK VINA RESULT:      -7.6      2.294      9.481
REMARK  9 active torsions:
REMARK  status: ('A' for Active; 'I' for Inactive)
REMARK    1  A    between atoms: C_2  and  N_3 
REMARK    2  A    between atoms: C_6  and  C_7 
REMARK    3  A    between atoms: C_7  and  O_8 
REMARK    4  A    between atoms: O_8  and  C_9 
REMARK    5  A    between atoms: C_12  and  C_13 
REMARK    6  A    between atoms: C_14  and  C_15 
REMARK       I    between atoms: C_15  and  N_16 
REMARK    7  A    between atoms: N_16  and  C_17 
REMARK    8  A    between atoms: C_18  and  C_19 
REMARK       I    between atoms: C_19  and  N_20 
REMARK    9  A    between atoms: N_20  and  C_21 
ROOT
HETATM    1  C   UNL     1      26.192  45.082  51.311  1.00  0.00     0.245 C 
HETATM    2  N   UNL     1      26.240  44.272  52.435  1.00  0.00    -0.323 N 
HETATM    3  O   UNL     1      27.150  45.542  50.708  1.00  0.00    -0.268 OA
HETATM    4  H   UNL     1      25.420  43.691  52.565  1.00  0.00     0.169 HD
ENDROOT
BRANCH   1   5
HETATM    5  C   UNL     1      24.803  45.234  50.810  1.00  0.00     0.075 C 
HETATM    6  C   UNL     1      24.601  46.001  49.729  1.00  0.00     0.020 C 
BRANCH   6   7
HETATM    7  C   UNL     1      23.341  46.264  49.104  1.00  0.00     0.005 A 
HETATM    8  C   UNL     1      22.848  47.555  48.718  1.00  0.00     0.073 A 
HETATM    9  C   UNL     1      21.629  47.331  48.076  1.00  0.00     0.025 A 
HETATM   10  N   UNL     1      21.407  45.969  48.036  1.00  0.00    -0.353 N 
HETATM   11  C   UNL     1      20.700  48.345  47.486  1.00  0.00     0.069 C 
HETATM   12  C   UNL     1      22.428  45.304  48.695  1.00  0.00     0.019 A 
HETATM   13  C   UNL     1      22.455  43.815  48.806  1.00  0.00     0.069 C 
BRANCH   8  14
HETATM   14  C   UNL     1      23.449  48.885  48.913  1.00  0.00     0.296 C 
HETATM   15  O   UNL     1      23.128  49.647  49.821  1.00  0.00    -0.259 OA
BRANCH  14  16
HETATM   16  O   UNL     1      24.388  49.189  47.974  1.00  0.00    -0.318 OA
BRANCH  16  17
HETATM   17  C   UNL     1      25.508  49.968  48.413  1.00  0.00     0.174 C 
HETATM   18  C   UNL     1      26.642  49.055  48.842  1.00  0.00     0.034 C 
ENDBRANCH  16  17
ENDBRANCH  14  16
ENDBRANCH   8  14
BRANCH  10  19
HETATM   19  C   UNL     1      20.302  45.319  47.337  1.00  0.00     0.124 C 
HETATM   20  C   UNL     1      19.040  45.242  48.177  1.00  0.00     0.027 C 
ENDBRANCH  10  19
ENDBRANCH   6   7
ENDBRANCH   1   5
BRANCH   2  21
HETATM   21  C   UNL     1      27.461  43.734  52.923  1.00  0.00     0.050 A 
HETATM   22  C   UNL     1      28.023  42.497  52.553  1.00  0.00     0.058 A 
HETATM   23  C   UNL     1      29.165  42.034  53.237  1.00  0.00     0.019 A 
HETATM   24  C   UNL     1      29.769  42.799  54.235  1.00  0.00     0.001 A 
HETATM   25  C   UNL     1      29.252  44.050  54.549  1.00  0.00     0.002 A 
HETATM   26  C   UNL     1      28.114  44.519  53.891  1.00  0.00     0.030 A 
BRANCH  22  27
HETATM   27  C   UNL     1      27.609  41.661  51.386  1.00  0.00     0.254 C 
HETATM   28  N   UNL     1      28.533  40.737  50.934  1.00  0.00    -0.352 N 
HETATM   29  H   UNL     1      29.451  40.719  51.357  1.00  0.00     0.163 HD
HETATM   30  O   UNL     1      26.461  41.729  50.954  1.00  0.00    -0.268 OA
BRANCH  28  31
HETATM   31  C   UNL     1      28.244  39.837  49.865  1.00  0.00     0.084 A 
HETATM   32  C   UNL     1      28.796  40.088  48.489  1.00  0.00     0.027 A 
HETATM   33  C   UNL     1      29.309  38.936  49.302  1.00  0.00     0.027 A 
ENDBRANCH  28  31
ENDBRANCH  22  27
ENDBRANCH   2  21
TORSDOF 9
ENDMDL
MODEL 7
REMARK VINA RESULT:      -7.3      2.908      8.600
REMARK  9 active torsions:
REMARK  status: ('A' for Active; 'I' for Inactive)
REMARK    1  A    between atoms: C_2  and  N_3 
REMARK    2  A    between atoms: C_6  and  C_7 
REMARK    3  A    between atoms: C_7  and  O_8 
REMARK    4  A    between atoms: O_8  and  C_9 
REMARK    5  A    between atoms: C_12  and  C_13 
REMARK    6  A    between atoms: C_14  and  C_15 
REMARK       I    between atoms: C_15  and  N_16 
REMARK    7  A    between atoms: N_16  and  C_17 
REMARK    8  A    between atoms: C_18  and  C_19 
REMARK       I    between atoms: C_19  and  N_20 
REMARK    9  A    between atoms: N_20  and  C_21 
ROOT
HETATM    1  C   UNL     1      25.388  44.052  53.053  1.00  0.00     0.245 C 
HETATM    2  N   UNL     1      26.519  44.833  52.871  1.00  0.00    -0.323 N 
HETATM    3  O   UNL     1      24.656  44.055  54.031  1.00  0.00    -0.268 OA
HETATM    4  H   UNL     1      26.767  44.985  51.900  1.00  0.00     0.169 HD
ENDROOT
BRANCH   1   5
HETATM    5  C   UNL     1      25.063  43.273  51.832  1.00  0.00     0.075 C 
HETATM    6  C   UNL     1      26.070  42.917  51.021  1.00  0.00     0.020 C 
BRANCH   6   7
HETATM    7  C   UNL     1      25.953  42.169  49.807  1.00  0.00     0.005 A 
HETATM    8  C   UNL     1      24.945  42.352  48.802  1.00  0.00     0.073 A 
HETATM    9  C   UNL     1      25.265  41.473  47.766  1.00  0.00     0.025 A 
HETATM   10  N   UNL     1      26.431  40.816  48.103  1.00  0.00    -0.353 N 
HETATM   11  C   UNL     1      24.529  41.260  46.481  1.00  0.00     0.069 C 
HETATM   12  C   UNL     1      26.844  41.204  49.366  1.00  0.00     0.019 A 
HETATM   13  C   UNL     1      28.087  40.658  49.991  1.00  0.00     0.069 C 
BRANCH   8  14
HETATM   14  C   UNL     1      23.788  43.262  48.789  1.00  0.00     0.296 C 
HETATM   15  O   UNL     1      22.632  42.892  48.970  1.00  0.00    -0.259 OA
BRANCH  14  16
HETATM   16  O   UNL     1      24.132  44.557  48.541  1.00  0.00    -0.318 OA
BRANCH  16  17
HETATM   17  C   UNL     1      23.432  45.562  49.284  1.00  0.00     0.174 C 
HETATM   18  C   UNL     1      24.418  46.428  50.046  1.00  0.00     0.034 C 
ENDBRANCH  16  17
ENDBRANCH  14  16
ENDBRANCH   8  14
BRANCH  10  19
HETATM   19  C   UNL     1      27.164  39.905  47.227  1.00  0.00     0.124 C 
HETATM   20  C   UNL     1      26.734  38.458  47.393  1.00  0.00     0.027 C 
ENDBRANCH  10  19
ENDBRANCH   6   7
ENDBRANCH   1   5
BRANCH   2  21
HETATM   21  C   UNL     1      26.863  45.880  53.767  1.00  0.00     0.050 A 
HETATM   22  C   UNL     1      27.924  45.858  54.693  1.00  0.00     0.058 A 
HETATM   23  C   UNL     1      28.046  46.915  55.617  1.00  0.00     0.019 A 
HETATM   24  C   UNL     1      27.166  47.996  55.598  1.00  0.00     0.001 A 
HETATM   25  C   UNL     1      26.162  48.048  54.639  1.00  0.00     0.002 A 
HETATM   26  C   UNL     1      26.019  47.005  53.723  1.00  0.00     0.030 A 
BRANCH  22  27
HETATM   27  C   UNL     1      29.050  44.875  54.711  1.00  0.00     0.254 C 
HETATM   28  N   UNL     1      29.926  44.965  55.776  1.00  0.00    -0.352 N 
HETATM   29  H   UNL     1      29.810  45.719  56.439  1.00  0.00     0.163 HD
HETATM   30  O   UNL     1      29.094  43.972  53.878  1.00  0.00    -0.268 OA
BRANCH  28  31
HETATM   31  C   UNL     1      31.010  44.052  55.945  1.00  0.00     0.084 A 
HETATM   32  C   UNL     1      31.736  43.967  57.258  1.00  0.00     0.027 A 
HETATM   33  C   UNL     1      30.865  42.831  56.810  1.00  0.00     0.027 A 
ENDBRANCH  28  31
ENDBRANCH  22  27
ENDBRANCH   2  21
TORSDOF 9
ENDMDL
MODEL 8
REMARK VINA RESULT:      -7.3      3.435      8.643
REMARK  9 active torsions:
REMARK  status: ('A' for Active; 'I' for Inactive)
REMARK    1  A    between atoms: C_2  and  N_3 
REMARK    2  A    between atoms: C_6  and  C_7 
REMARK    3  A    between atoms: C_7  and  O_8 
REMARK    4  A    between atoms: O_8  and  C_9 
REMARK    5  A    between atoms: C_12  and  C_13 
REMARK    6  A    between atoms: C_14  and  C_15 
REMARK       I    between atoms: C_15  and  N_16 
REMARK    7  A    between atoms: N_16  and  C_17 
REMARK    8  A    between atoms: C_18  and  C_19 
REMARK       I    between atoms: C_19  and  N_20 
REMARK    9  A    between atoms: N_20  and  C_21 
ROOT
HETATM    1  C   UNL     1      25.699  44.400  52.529  1.00  0.00     0.245 C 
HETATM    2  N   UNL     1      26.828  45.195  52.650  1.00  0.00    -0.323 N 
HETATM    3  O   UNL     1      24.841  44.225  53.382  1.00  0.00    -0.268 OA
HETATM    4  H   UNL     1      27.203  45.522  51.767  1.00  0.00     0.169 HD
ENDROOT
BRANCH   1   5
HETATM    5  C   UNL     1      25.559  43.860  51.154  1.00  0.00     0.075 C 
HETATM    6  C   UNL     1      24.635  42.913  50.937  1.00  0.00     0.020 C 
BRANCH   6   7
HETATM    7  C   UNL     1      24.355  42.277  49.686  1.00  0.00     0.005 A 
HETATM    8  C   UNL     1      25.025  41.121  49.163  1.00  0.00     0.073 A 
HETATM    9  C   UNL     1      24.376  40.802  47.969  1.00  0.00     0.025 A 
HETATM   10  N   UNL     1      23.337  41.693  47.791  1.00  0.00    -0.353 N 
HETATM   11  C   UNL     1      24.687  39.684  47.024  1.00  0.00     0.069 C 
HETATM   12  C   UNL     1      23.334  42.625  48.815  1.00  0.00     0.019 A 
HETATM   13  C   UNL     1      22.313  43.713  48.887  1.00  0.00     0.069 C 
BRANCH   8  14
HETATM   14  C   UNL     1      26.162  40.366  49.715  1.00  0.00     0.296 C 
HETATM   15  O   UNL     1      26.075  39.212  50.123  1.00  0.00    -0.259 OA
BRANCH  14  16
HETATM   16  O   UNL     1      27.318  41.087  49.739  1.00  0.00    -0.318 OA
BRANCH  16  17
HETATM   17  C   UNL     1      28.330  40.648  50.654  1.00  0.00     0.174 C 
HETATM   18  C   UNL     1      28.098  41.262  52.022  1.00  0.00     0.034 C 
ENDBRANCH  16  17
ENDBRANCH  14  16
ENDBRANCH   8  14
BRANCH  10  19
HETATM   19  C   UNL     1      22.341  41.618  46.726  1.00  0.00     0.124 C 
HETATM   20  C   UNL     1      22.756  42.380  45.480  1.00  0.00     0.027 C 
ENDBRANCH  10  19
ENDBRANCH   6   7
ENDBRANCH   1   5
BRANCH   2  21
HETATM   21  C   UNL     1      27.025  46.058  53.762  1.00  0.00     0.050 A 
HETATM   22  C   UNL     1      27.951  45.861  54.804  1.00  0.00     0.058 A 
HETATM   23  C   UNL     1      27.925  46.729  55.914  1.00  0.00     0.019 A 
HETATM   24  C   UNL     1      27.033  47.799  55.973  1.00  0.00     0.001 A 
HETATM   25  C   UNL     1      26.167  48.031  54.911  1.00  0.00     0.002 A 
HETATM   26  C   UNL     1      26.171  47.174  53.809  1.00  0.00     0.030 A 
BRANCH  22  27
HETATM   27  C   UNL     1      29.084  44.886  54.796  1.00  0.00     0.254 C 
HETATM   28  N   UNL     1      29.951  44.943  55.873  1.00  0.00    -0.352 N 
HETATM   29  H   UNL     1      29.822  45.671  56.562  1.00  0.00     0.163 HD
HETATM   30  O   UNL     1      29.144  44.016  53.931  1.00  0.00    -0.268 OA
BRANCH  28  31
HETATM   31  C   UNL     1      31.040  44.033  56.017  1.00  0.00     0.084 A 
HETATM   32  C   UNL     1      31.798  43.953  57.313  1.00  0.00     0.027 A 
HETATM   33  C   UNL     1      30.918  42.813  56.889  1.00  0.00     0.027 A 
ENDBRANCH  28  31
ENDBRANCH  22  27
ENDBRANCH   2  21
TORSDOF 9
ENDMDL
MODEL 9
REMARK VINA RESULT:      -7.2      2.570      9.039
REMARK  9 active torsions:
REMARK  status: ('A' for Active; 'I' for Inactive)
REMARK    1  A    between atoms: C_2  and  N_3 
REMARK    2  A    between atoms: C_6  and  C_7 
REMARK    3  A    between atoms: C_7  and  O_8 
REMARK    4  A    between atoms: O_8  and  C_9 
REMARK    5  A    between atoms: C_12  and  C_13 
REMARK    6  A    between atoms: C_14  and  C_15 
REMARK       I    between atoms: C_15  and  N_16 
REMARK    7  A    between atoms: N_16  and  C_17 
REMARK    8  A    between atoms: C_18  and  C_19 
REMARK       I    between atoms: C_19  and  N_20 
REMARK    9  A    between atoms: N_20  and  C_21 
ROOT
HETATM    1  C   UNL     1      25.439  47.706  50.162  1.00  0.00     0.245 C 
HETATM    2  N   UNL     1      25.036  46.828  51.155  1.00  0.00    -0.323 N 
HETATM    3  O   UNL     1      26.553  48.191  50.031  1.00  0.00    -0.268 OA
HETATM    4  H   UNL     1      24.242  46.250  50.903  1.00  0.00     0.169 HD
ENDROOT
BRANCH   1   5
HETATM    5  C   UNL     1      24.373  47.906  49.147  1.00  0.00     0.075 C 
HETATM    6  C   UNL     1      23.151  48.258  49.574  1.00  0.00     0.020 C 
BRANCH   6   7
HETATM    7  C   UNL     1      22.005  48.493  48.750  1.00  0.00     0.005 A 
HETATM    8  C   UNL     1      21.431  47.561  47.824  1.00  0.00     0.073 A 
HETATM    9  C   UNL     1      20.289  48.177  47.309  1.00  0.00     0.025 A 
HETATM   10  N   UNL     1      20.150  49.408  47.919  1.00  0.00    -0.353 N 
HETATM   11  C   UNL     1      19.329  47.636  46.297  1.00  0.00     0.069 C 
HETATM   12  C   UNL     1      21.214  49.632  48.777  1.00  0.00     0.019 A 
HETATM   13  C   UNL     1      21.327  50.885  49.581  1.00  0.00     0.069 C 
BRANCH   8  14
HETATM   14  C   UNL     1      21.886  46.212  47.447  1.00  0.00     0.296 C 
HETATM   15  O   UNL     1      22.393  45.947  46.362  1.00  0.00    -0.259 OA
BRANCH  14  16
HETATM   16  O   UNL     1      21.672  45.286  48.423  1.00  0.00    -0.318 OA
BRANCH  16  17
HETATM   17  C   UNL     1      22.661  44.258  48.562  1.00  0.00     0.174 C 
HETATM   18  C   UNL     1      22.975  44.032  50.029  1.00  0.00     0.034 C 
ENDBRANCH  16  17
ENDBRANCH  14  16
ENDBRANCH   8  14
BRANCH  10  19
HETATM   19  C   UNL     1      19.013  50.306  47.747  1.00  0.00     0.124 C 
HETATM   20  C   UNL     1      17.878  50.008  48.711  1.00  0.00     0.027 C 
ENDBRANCH  10  19
ENDBRANCH   6   7
ENDBRANCH   1   5
BRANCH   2  21
HETATM   21  C   UNL     1      25.959  46.246  52.065  1.00  0.00     0.050 A 
HETATM   22  C   UNL     1      26.679  45.053  51.860  1.00  0.00     0.058 A 
HETATM   23  C   UNL     1      27.444  44.527  52.920  1.00  0.00     0.019 A 
HETATM   24  C   UNL     1      27.536  45.190  54.143  1.00  0.00     0.001 A 
HETATM   25  C   UNL     1      26.880  46.402  54.319  1.00  0.00     0.002 A 
HETATM   26  C   UNL     1      26.107  46.932  53.285  1.00  0.00     0.030 A 
BRANCH  22  27
HETATM   27  C   UNL     1      26.833  44.337  50.557  1.00  0.00     0.254 C 
HETATM   28  N   UNL     1      26.338  43.047  50.504  1.00  0.00    -0.352 N 
HETATM   29  H   UNL     1      25.968  42.632  51.348  1.00  0.00     0.163 HD
HETATM   30  O   UNL     1      27.268  44.932  49.574  1.00  0.00    -0.268 OA
BRANCH  28  31
HETATM   31  C   UNL     1      26.369  42.273  49.306  1.00  0.00     0.084 A 
HETATM   32  C   UNL     1      26.719  40.812  49.352  1.00  0.00     0.027 A 
HETATM   33  C   UNL     1      25.317  41.235  49.027  1.00  0.00     0.027 A 
ENDBRANCH  28  31
ENDBRANCH  22  27
ENDBRANCH   2  21
TORSDOF 9
ENDMDL
MODEL 10
REMARK VINA RESULT:      -7.2      2.435      9.299
REMARK  9 active torsions:
REMARK  status: ('A' for Active; 'I' for Inactive)
REMARK    1  A    between atoms: C_2  and  N_3 
REMARK    2  A    between atoms: C_6  and  C_7 
REMARK    3  A    between atoms: C_7  and  O_8 
REMARK    4  A    between atoms: O_8  and  C_9 
REMARK    5  A    between atoms: C_12  and  C_13 
REMARK    6  A    between atoms: C_14  and  C_15 
REMARK       I    between atoms: C_15  and  N_16 
REMARK    7  A    between atoms: N_16  and  C_17 
REMARK    8  A    between atoms: C_18  and  C_19 
REMARK       I    between atoms: C_19  and  N_20 
REMARK    9  A    between atoms: N_20  and  C_21 
ROOT
HETATM    1  C   UNL     1      25.513  47.141  51.132  1.00  0.00     0.245 C 
HETATM    2  N   UNL     1      25.417  46.152  52.098  1.00  0.00    -0.323 N 
HETATM    3  O   UNL     1      26.498  47.823  50.889  1.00  0.00    -0.268 OA
HETATM    4  H   UNL     1      24.704  45.457  51.911  1.00  0.00     0.169 HD
ENDROOT
BRANCH   1   5
HETATM    5  C   UNL     1      24.290  47.203  50.293  1.00  0.00     0.075 C 
HETATM    6  C   UNL     1      23.997  46.145  49.522  1.00  0.00     0.020 C 
BRANCH   6   7
HETATM    7  C   UNL     1      22.868  46.022  48.652  1.00  0.00     0.005 A 
HETATM    8  C   UNL     1      22.111  47.108  48.099  1.00  0.00     0.073 A 
HETATM    9  C   UNL     1      21.166  46.531  47.250  1.00  0.00     0.025 A 
HETATM   10  N   UNL     1      21.361  45.164  47.253  1.00  0.00    -0.353 N 
HETATM   11  C   UNL     1      20.121  47.222  46.431  1.00  0.00     0.069 C 
HETATM   12  C   UNL     1      22.375  44.834  48.135  1.00  0.00     0.019 A 
HETATM   13  C   UNL     1      22.810  43.420  48.342  1.00  0.00     0.069 C 
BRANCH   8  14
HETATM   14  C   UNL     1      22.248  48.557  48.324  1.00  0.00     0.296 C 
HETATM   15  O   UNL     1      21.599  49.177  49.161  1.00  0.00    -0.259 OA
BRANCH  14  16
HETATM   16  O   UNL     1      23.159  49.141  47.496  1.00  0.00    -0.318 OA
BRANCH  16  17
HETATM   17  C   UNL     1      23.883  50.259  48.023  1.00  0.00     0.174 C 
HETATM   18  C   UNL     1      25.368  49.948  48.061  1.00  0.00     0.034 C 
ENDBRANCH  16  17
ENDBRANCH  14  16
ENDBRANCH   8  14
BRANCH  10  19
HETATM   19  C   UNL     1      20.656  44.215  46.396  1.00  0.00     0.124 C 
HETATM   20  C   UNL     1      21.323  44.039  45.043  1.00  0.00     0.027 C 
ENDBRANCH  10  19
ENDBRANCH   6   7
ENDBRANCH   1   5
BRANCH   2  21
HETATM   21  C   UNL     1      26.550  45.695  52.822  1.00  0.00     0.050 A 
HETATM   22  C   UNL     1      27.349  44.584  52.489  1.00  0.00     0.058 A 
HETATM   23  C   UNL     1      28.350  44.168  53.390  1.00  0.00     0.019 A 
HETATM   24  C   UNL     1      28.589  44.863  54.575  1.00  0.00     0.001 A 
HETATM   25  C   UNL     1      27.845  46.000  54.868  1.00  0.00     0.002 A 
HETATM   26  C   UNL     1      26.842  46.419  53.993  1.00  0.00     0.030 A 
BRANCH  22  27
HETATM   27  C   UNL     1      27.342  43.861  51.181  1.00  0.00     0.254 C 
HETATM   28  N   UNL     1      27.085  42.503  51.232  1.00  0.00    -0.352 N 
HETATM   29  H   UNL     1      26.989  42.060  52.135  1.00  0.00     0.163 HD
HETATM   30  O   UNL     1      27.439  44.488  50.129  1.00  0.00    -0.268 OA
BRANCH  28  31
HETATM   31  C   UNL     1      26.993  41.705  50.053  1.00  0.00     0.084 A 
HETATM   32  C   UNL     1      27.968  40.587  49.812  1.00  0.00     0.027 A 
HETATM   33  C   UNL     1      26.534  40.275  50.121  1.00  0.00     0.027 A 
ENDBRANCH  28  31
ENDBRANCH  22  27
ENDBRANCH   2  21
TORSDOF 9
ENDMDL
