MODEL 1
REMARK VINA RESULT:     -10.1      0.000      0.000
REMARK  4 active torsions:
REMARK  status: ('A' for Active; 'I' for Inactive)
REMARK    1  A    between atoms: C_5  and  N_6 
REMARK       I    between atoms: N_6  and  C_7 
REMARK    2  A    between atoms: C_7  and  C_8 
REMARK    3  A    between atoms: N_10  and  C_11 
REMARK    4  A    between atoms: C_21  and  O_22 
ROOT
HETATM    1  N   UNL     1      26.641  45.825  53.469  1.00  0.00    -0.346 N 
HETATM    2  C   UNL     1      25.507  45.241  52.964  1.00  0.00     0.255 C 
HETATM    3  O   UNL     1      24.928  44.323  53.535  1.00  0.00    -0.268 OA
HETATM    4  H   UNL     1      27.031  46.651  53.038  1.00  0.00     0.163 HD
ENDROOT
BRANCH   2   5
HETATM    5  C   UNL     1      25.006  45.812  51.728  1.00  0.00     0.068 A 
HETATM    6  C   UNL     1      24.958  47.132  51.317  1.00  0.00     0.137 A 
HETATM    7  N   UNL     1      24.324  47.182  50.089  1.00  0.00    -0.243 N 
HETATM    8  N   UNL     1      24.047  45.915  49.663  1.00  0.00    -0.179 NA
HETATM    9  C   UNL     1      24.433  45.114  50.653  1.00  0.00     0.157 A 
BRANCH   7  10
HETATM   10  C   UNL     1      23.945  48.293  49.266  1.00  0.00     0.079 A 
HETATM   11  C   UNL     1      24.823  49.230  48.695  1.00  0.00     0.062 A 
HETATM   12 CL   UNL     1      26.540  49.277  48.879  1.00  0.00    -0.082 Cl
HETATM   13  C   UNL     1      24.310  50.282  47.910  1.00  0.00     0.026 A 
HETATM   14  C   UNL     1      22.942  50.424  47.690  1.00  0.00     0.002 A 
HETATM   15  C   UNL     1      22.065  49.512  48.253  1.00  0.00     0.002 A 
HETATM   16  C   UNL     1      22.559  48.461  49.030  1.00  0.00     0.033 A 
ENDBRANCH   7  10
ENDBRANCH   2   5
BRANCH   1  17
HETATM   17  C   UNL     1      27.144  45.479  54.781  1.00  0.00     0.147 C 
HETATM   18  C   UNL     1      28.368  44.610  54.713  1.00  0.00    -0.027 A 
HETATM   19  C   UNL     1      29.340  45.041  55.621  1.00  0.00    -0.047 A 
HETATM   20  C   UNL     1      28.571  43.475  53.940  1.00  0.00     0.010 A 
HETATM   21  C   UNL     1      30.538  44.359  55.765  1.00  0.00     0.008 A 
HETATM   22  C   UNL     1      28.871  46.235  56.401  1.00  0.00     0.073 C 
HETATM   23  C   UNL     1      30.756  43.228  54.976  1.00  0.00     0.001 A 
HETATM   24  C   UNL     1      29.778  42.786  54.072  1.00  0.00     0.001 A 
HETATM   25  C   UNL     1      27.677  46.721  55.560  1.00  0.00     0.149 C 
BRANCH  25  26
HETATM   26  O   UNL     1      28.135  47.752  54.664  1.00  0.00    -0.393 OA
HETATM   27  H   UNL     1      27.360  48.019  54.141  1.00  0.00     0.210 HD
ENDBRANCH  25  26
ENDBRANCH   1  17
TORSDOF 4
ENDMDL
MODEL 2
REMARK VINA RESULT:      -9.0      3.338      5.114
REMARK  4 active torsions:
REMARK  status: ('A' for Active; 'I' for Inactive)
REMARK    1  A    between atoms: C_5  and  N_6 
REMARK       I    between atoms: N_6  and  C_7 
REMARK    2  A    between atoms: C_7  and  C_8 
REMARK    3  A    between atoms: N_10  and  C_11 
REMARK    4  A    between atoms: C_21  and  O_22 
ROOT
HETATM    1  N   UNL     1      24.753  47.081  50.288  1.00  0.00    -0.346 N 
HETATM    2  C   UNL     1      24.589  48.272  49.628  1.00  0.00     0.255 C 
HETATM    3  O   UNL     1      25.536  48.977  49.295  1.00  0.00    -0.268 OA
HETATM    4  H   UNL     1      23.967  46.467  50.448  1.00  0.00     0.163 HD
ENDROOT
BRANCH   2   5
HETATM    5  C   UNL     1      23.220  48.624  49.304  1.00  0.00     0.068 A 
HETATM    6  C   UNL     1      22.525  49.797  49.539  1.00  0.00     0.137 A 
HETATM    7  N   UNL     1      21.222  49.624  49.112  1.00  0.00    -0.243 N 
HETATM    8  N   UNL     1      21.088  48.398  48.526  1.00  0.00    -0.179 NA
HETATM    9  C   UNL     1      22.272  47.806  48.668  1.00  0.00     0.157 A 
BRANCH   7  10
HETATM   10  C   UNL     1      20.079  50.486  49.195  1.00  0.00     0.079 A 
HETATM   11  C   UNL     1      18.956  50.286  50.016  1.00  0.00     0.062 A 
HETATM   12 CL   UNL     1      18.682  48.952  51.078  1.00  0.00    -0.082 Cl
HETATM   13  C   UNL     1      17.896  51.214  49.990  1.00  0.00     0.026 A 
HETATM   14  C   UNL     1      17.929  52.331  49.159  1.00  0.00     0.002 A 
HETATM   15  C   UNL     1      19.026  52.537  48.339  1.00  0.00     0.002 A 
HETATM   16  C   UNL     1      20.087  51.627  48.356  1.00  0.00     0.033 A 
ENDBRANCH   7  10
ENDBRANCH   2   5
BRANCH   1  17
HETATM   17  C   UNL     1      26.069  46.519  50.510  1.00  0.00     0.147 C 
HETATM   18  C   UNL     1      26.241  46.007  51.912  1.00  0.00    -0.027 A 
HETATM   19  C   UNL     1      26.873  44.759  51.916  1.00  0.00    -0.047 A 
HETATM   20  C   UNL     1      25.916  46.642  53.104  1.00  0.00     0.010 A 
HETATM   21  C   UNL     1      27.177  44.114  53.105  1.00  0.00     0.008 A 
HETATM   22  C   UNL     1      27.200  44.307  50.523  1.00  0.00     0.073 C 
HETATM   23  C   UNL     1      26.835  44.739  54.305  1.00  0.00     0.001 A 
HETATM   24  C   UNL     1      26.211  45.996  54.305  1.00  0.00     0.001 A 
HETATM   25  C   UNL     1      26.316  45.231  49.666  1.00  0.00     0.149 C 
BRANCH  25  26
HETATM   26  O   UNL     1      25.084  44.545  49.372  1.00  0.00    -0.393 OA
HETATM   27  H   UNL     1      25.306  43.859  48.719  1.00  0.00     0.210 HD
ENDBRANCH  25  26
ENDBRANCH   1  17
TORSDOF 4
ENDMDL
MODEL 3
REMARK VINA RESULT:      -8.9      2.611      8.656
REMARK  4 active torsions:
REMARK  status: ('A' for Active; 'I' for Inactive)
REMARK    1  A    between atoms: C_5  and  N_6 
REMARK       I    between atoms: N_6  and  C_7 
REMARK    2  A    between atoms: C_7  and  C_8 
REMARK    3  A    between atoms: N_10  and  C_11 
REMARK    4  A    between atoms: C_21  and  O_22 
ROOT
HETATM    1  N   UNL     1      23.237  47.770  49.691  1.00  0.00    -0.346 N 
HETATM    2  C   UNL     1      23.663  46.474  49.540  1.00  0.00     0.255 C 
HETATM    3  O   UNL     1      23.512  45.848  48.496  1.00  0.00    -0.268 OA
HETATM    4  H   UNL     1      23.475  48.298  50.518  1.00  0.00     0.163 HD
ENDROOT
BRANCH   2   5
HETATM    5  C   UNL     1      24.349  45.905  50.684  1.00  0.00     0.068 A 
HETATM    6  C   UNL     1      25.331  46.449  51.491  1.00  0.00     0.137 A 
HETATM    7  N   UNL     1      25.722  45.491  52.407  1.00  0.00    -0.243 N 
HETATM    8  N   UNL     1      24.949  44.375  52.265  1.00  0.00    -0.179 NA
HETATM    9  C   UNL     1      24.156  44.624  51.225  1.00  0.00     0.157 A 
BRANCH   7  10
HETATM   10  C   UNL     1      26.749  45.505  53.408  1.00  0.00     0.079 A 
HETATM   11  C   UNL     1      26.939  46.503  54.379  1.00  0.00     0.062 A 
HETATM   12 CL   UNL     1      26.008  47.946  54.565  1.00  0.00    -0.082 Cl
HETATM   13  C   UNL     1      27.999  46.392  55.300  1.00  0.00     0.026 A 
HETATM   14  C   UNL     1      28.877  45.311  55.269  1.00  0.00     0.002 A 
HETATM   15  C   UNL     1      28.707  44.323  54.313  1.00  0.00     0.002 A 
HETATM   16  C   UNL     1      27.658  44.418  53.396  1.00  0.00     0.033 A 
ENDBRANCH   7  10
ENDBRANCH   2   5
BRANCH   1  17
HETATM   17  C   UNL     1      22.704  48.521  48.573  1.00  0.00     0.147 C 
HETATM   18  C   UNL     1      21.535  49.378  48.968  1.00  0.00    -0.027 A 
HETATM   19  C   UNL     1      21.637  50.655  48.405  1.00  0.00    -0.047 A 
HETATM   20  C   UNL     1      20.426  49.022  49.723  1.00  0.00     0.010 A 
HETATM   21  C   UNL     1      20.645  51.603  48.597  1.00  0.00     0.008 A 
HETATM   22  C   UNL     1      22.875  50.787  47.568  1.00  0.00     0.073 C 
HETATM   23  C   UNL     1      19.536  51.257  49.372  1.00  0.00     0.001 A 
HETATM   24  C   UNL     1      19.425  49.973  49.928  1.00  0.00     0.001 A 
HETATM   25  C   UNL     1      23.712  49.582  48.034  1.00  0.00     0.149 C 
BRANCH  25  26
HETATM   26  O   UNL     1      24.618  50.023  49.064  1.00  0.00    -0.393 OA
HETATM   27  H   UNL     1      24.205  49.778  49.910  1.00  0.00     0.210 HD
ENDBRANCH  25  26
ENDBRANCH   1  17
TORSDOF 4
ENDMDL
MODEL 4
REMARK VINA RESULT:      -8.5      1.949      2.568
REMARK  4 active torsions:
REMARK  status: ('A' for Active; 'I' for Inactive)
REMARK    1  A    between atoms: C_5  and  N_6 
REMARK       I    between atoms: N_6  and  C_7 
REMARK    2  A    between atoms: C_7  and  C_8 
REMARK    3  A    between atoms: N_10  and  C_11 
REMARK    4  A    between atoms: C_21  and  O_22 
ROOT
HETATM    1  N   UNL     1      26.676  45.670  53.512  1.00  0.00    -0.346 N 
HETATM    2  C   UNL     1      25.547  45.047  53.043  1.00  0.00     0.255 C 
HETATM    3  O   UNL     1      24.974  44.161  53.668  1.00  0.00    -0.268 OA
HETATM    4  H   UNL     1      27.059  46.472  53.033  1.00  0.00     0.163 HD
ENDROOT
BRANCH   2   5
HETATM    5  C   UNL     1      25.045  45.537  51.774  1.00  0.00     0.068 A 
HETATM    6  C   UNL     1      24.095  44.996  50.926  1.00  0.00     0.137 A 
HETATM    7  N   UNL     1      24.011  45.794  49.800  1.00  0.00    -0.243 N 
HETATM    8  N   UNL     1      24.819  46.884  49.948  1.00  0.00    -0.179 NA
HETATM    9  C   UNL     1      25.445  46.708  51.110  1.00  0.00     0.157 A 
BRANCH   7  10
HETATM   10  C   UNL     1      23.252  45.647  48.592  1.00  0.00     0.079 A 
HETATM   11  C   UNL     1      22.292  46.551  48.109  1.00  0.00     0.062 A 
HETATM   12 CL   UNL     1      21.784  48.017  48.869  1.00  0.00    -0.082 Cl
HETATM   13  C   UNL     1      21.613  46.274  46.905  1.00  0.00     0.026 A 
HETATM   14  C   UNL     1      21.866  45.114  46.179  1.00  0.00     0.002 A 
HETATM   15  C   UNL     1      22.806  44.209  46.648  1.00  0.00     0.002 A 
HETATM   16  C   UNL     1      23.489  44.472  47.837  1.00  0.00     0.033 A 
ENDBRANCH   7  10
ENDBRANCH   2   5
BRANCH   1  17
HETATM   17  C   UNL     1      27.179  45.411  54.845  1.00  0.00     0.147 C 
HETATM   18  C   UNL     1      28.438  44.590  54.829  1.00  0.00    -0.027 A 
HETATM   19  C   UNL     1      29.382  45.106  55.724  1.00  0.00    -0.047 A 
HETATM   20  C   UNL     1      28.696  43.428  54.115  1.00  0.00     0.010 A 
HETATM   21  C   UNL     1      30.606  44.481  55.911  1.00  0.00     0.008 A 
HETATM   22  C   UNL     1      28.856  46.315  56.440  1.00  0.00     0.073 C 
HETATM   23  C   UNL     1      30.879  43.323  55.180  1.00  0.00     0.001 A 
HETATM   24  C   UNL     1      29.929  42.798  54.291  1.00  0.00     0.001 A 
HETATM   25  C   UNL     1      27.651  46.710  55.566  1.00  0.00     0.149 C 
BRANCH  25  26
HETATM   26  O   UNL     1      28.076  47.714  54.625  1.00  0.00    -0.393 OA
HETATM   27  H   UNL     1      28.257  47.244  53.792  1.00  0.00     0.210 HD
ENDBRANCH  25  26
ENDBRANCH   1  17
TORSDOF 4
ENDMDL
MODEL 5
REMARK VINA RESULT:      -8.2      3.054      8.922
REMARK  4 active torsions:
REMARK  status: ('A' for Active; 'I' for Inactive)
REMARK    1  A    between atoms: C_5  and  N_6 
REMARK       I    between atoms: N_6  and  C_7 
REMARK    2  A    between atoms: C_7  and  C_8 
REMARK    3  A    between atoms: N_10  and  C_11 
REMARK    4  A    between atoms: C_21  and  O_22 
ROOT
HETATM    1  N   UNL     1      22.749  48.053  49.626  1.00  0.00    -0.346 N 
HETATM    2  C   UNL     1      24.116  47.935  49.600  1.00  0.00     0.255 C 
HETATM    3  O   UNL     1      24.816  48.562  48.813  1.00  0.00    -0.268 OA
HETATM    4  H   UNL     1      22.207  47.615  50.357  1.00  0.00     0.163 HD
ENDROOT
BRANCH   2   5
HETATM    5  C   UNL     1      24.686  47.054  50.601  1.00  0.00     0.068 A 
HETATM    6  C   UNL     1      25.608  47.320  51.597  1.00  0.00     0.137 A 
HETATM    7  N   UNL     1      25.894  46.137  52.252  1.00  0.00    -0.243 N 
HETATM    8  N   UNL     1      25.108  45.136  51.759  1.00  0.00    -0.179 NA
HETATM    9  C   UNL     1      24.415  45.686  50.765  1.00  0.00     0.157 A 
BRANCH   7  10
HETATM   10  C   UNL     1      26.830  45.839  53.297  1.00  0.00     0.079 A 
HETATM   11  C   UNL     1      27.617  44.679  53.390  1.00  0.00     0.062 A 
HETATM   12 CL   UNL     1      27.612  43.342  52.295  1.00  0.00    -0.082 Cl
HETATM   13  C   UNL     1      28.494  44.512  54.480  1.00  0.00     0.026 A 
HETATM   14  C   UNL     1      28.597  45.474  55.482  1.00  0.00     0.002 A 
HETATM   15  C   UNL     1      27.822  46.620  55.408  1.00  0.00     0.002 A 
HETATM   16  C   UNL     1      26.951  46.800  54.330  1.00  0.00     0.033 A 
ENDBRANCH   7  10
ENDBRANCH   2   5
BRANCH   1  17
HETATM   17  C   UNL     1      22.063  49.033  48.810  1.00  0.00     0.147 C 
HETATM   18  C   UNL     1      20.574  48.827  48.802  1.00  0.00    -0.027 A 
HETATM   19  C   UNL     1      19.900  50.044  48.951  1.00  0.00    -0.047 A 
HETATM   20  C   UNL     1      19.872  47.646  48.610  1.00  0.00     0.010 A 
HETATM   21  C   UNL     1      18.515  50.103  48.927  1.00  0.00     0.008 A 
HETATM   22  C   UNL     1      20.860  51.192  49.064  1.00  0.00     0.073 C 
HETATM   23  C   UNL     1      17.804  48.914  48.753  1.00  0.00     0.001 A 
HETATM   24  C   UNL     1      18.478  47.694  48.592  1.00  0.00     0.001 A 
HETATM   25  C   UNL     1      22.184  50.477  49.386  1.00  0.00     0.149 C 
BRANCH  25  26
HETATM   26  O   UNL     1      22.362  50.464  50.816  1.00  0.00    -0.393 OA
HETATM   27  H   UNL     1      22.252  49.538  51.093  1.00  0.00     0.210 HD
ENDBRANCH  25  26
ENDBRANCH   1  17
TORSDOF 4
ENDMDL
MODEL 6
REMARK VINA RESULT:      -8.1      1.762      2.184
REMARK  4 active torsions:
REMARK  status: ('A' for Active; 'I' for Inactive)
REMARK    1  A    between atoms: C_5  and  N_6 
REMARK       I    between atoms: N_6  and  C_7 
REMARK    2  A    between atoms: C_7  and  C_8 
REMARK    3  A    between atoms: N_10  and  C_11 
REMARK    4  A    between atoms: C_21  and  O_22 
ROOT
HETATM    1  N   UNL     1      25.256  44.683  51.956  1.00  0.00    -0.346 N 
HETATM    2  C   UNL     1      24.620  44.245  50.822  1.00  0.00     0.255 C 
HETATM    3  O   UNL     1      24.500  43.054  50.552  1.00  0.00    -0.268 OA
HETATM    4  H   UNL     1      25.241  45.661  52.210  1.00  0.00     0.163 HD
ENDROOT
BRANCH   2   5
HETATM    5  C   UNL     1      24.054  45.282  49.982  1.00  0.00     0.068 A 
HETATM    6  C   UNL     1      24.164  46.658  50.075  1.00  0.00     0.137 A 
HETATM    7  N   UNL     1      23.383  47.225  49.085  1.00  0.00    -0.243 N 
HETATM    8  N   UNL     1      22.848  46.243  48.302  1.00  0.00    -0.179 NA
HETATM    9  C   UNL     1      23.232  45.096  48.859  1.00  0.00     0.157 A 
BRANCH   7  10
HETATM   10  C   UNL     1      23.080  48.595  48.789  1.00  0.00     0.079 A 
HETATM   11  C   UNL     1      24.019  49.605  48.519  1.00  0.00     0.062 A 
HETATM   12 CL   UNL     1      25.739  49.437  48.516  1.00  0.00    -0.082 Cl
HETATM   13  C   UNL     1      23.579  50.917  48.252  1.00  0.00     0.026 A 
HETATM   14  C   UNL     1      22.225  51.243  48.254  1.00  0.00     0.002 A 
HETATM   15  C   UNL     1      21.289  50.259  48.526  1.00  0.00     0.002 A 
HETATM   16  C   UNL     1      21.710  48.953  48.789  1.00  0.00     0.033 A 
ENDBRANCH   7  10
ENDBRANCH   2   5
BRANCH   1  17
HETATM   17  C   UNL     1      25.706  43.756  52.973  1.00  0.00     0.147 C 
HETATM   18  C   UNL     1      27.200  43.601  52.983  1.00  0.00    -0.027 A 
HETATM   19  C   UNL     1      27.697  43.622  54.290  1.00  0.00    -0.047 A 
HETATM   20  C   UNL     1      28.048  43.389  51.904  1.00  0.00     0.010 A 
HETATM   21  C   UNL     1      29.049  43.449  54.545  1.00  0.00     0.008 A 
HETATM   22  C   UNL     1      26.593  43.783  55.294  1.00  0.00     0.073 C 
HETATM   23  C   UNL     1      29.909  43.255  53.463  1.00  0.00     0.001 A 
HETATM   24  C   UNL     1      29.412  43.222  52.151  1.00  0.00     0.001 A 
HETATM   25  C   UNL     1      25.428  44.276  54.417  1.00  0.00     0.149 C 
BRANCH  25  26
HETATM   26  O   UNL     1      25.394  45.715  54.464  1.00  0.00    -0.393 OA
HETATM   27  H   UNL     1      25.942  45.973  55.225  1.00  0.00     0.210 HD
ENDBRANCH  25  26
ENDBRANCH   1  17
TORSDOF 4
ENDMDL
MODEL 7
REMARK VINA RESULT:      -8.1      3.059      4.879
REMARK  4 active torsions:
REMARK  status: ('A' for Active; 'I' for Inactive)
REMARK    1  A    between atoms: C_5  and  N_6 
REMARK       I    between atoms: N_6  and  C_7 
REMARK    2  A    between atoms: C_7  and  C_8 
REMARK    3  A    between atoms: N_10  and  C_11 
REMARK    4  A    between atoms: C_21  and  O_22 
ROOT
HETATM    1  N   UNL     1      25.458  47.074  50.048  1.00  0.00    -0.346 N 
HETATM    2  C   UNL     1      25.633  48.299  49.455  1.00  0.00     0.255 C 
HETATM    3  O   UNL     1      26.717  48.872  49.436  1.00  0.00    -0.268 OA
HETATM    4  H   UNL     1      24.585  46.574  49.950  1.00  0.00     0.163 HD
ENDROOT
BRANCH   2   5
HETATM    5  C   UNL     1      24.460  48.854  48.809  1.00  0.00     0.068 A 
HETATM    6  C   UNL     1      23.133  48.473  48.898  1.00  0.00     0.137 A 
HETATM    7  N   UNL     1      22.395  49.262  48.036  1.00  0.00    -0.243 N 
HETATM    8  N   UNL     1      23.204  50.201  47.464  1.00  0.00    -0.179 NA
HETATM    9  C   UNL     1      24.429  49.932  47.910  1.00  0.00     0.157 A 
BRANCH   7  10
HETATM   10  C   UNL     1      21.005  49.233  47.686  1.00  0.00     0.079 A 
HETATM   11  C   UNL     1      20.089  50.284  47.865  1.00  0.00     0.062 A 
HETATM   12 CL   UNL     1      20.417  51.824  48.574  1.00  0.00    -0.082 Cl
HETATM   13  C   UNL     1      18.744  50.114  47.481  1.00  0.00     0.026 A 
HETATM   14  C   UNL     1      18.292  48.918  46.929  1.00  0.00     0.002 A 
HETATM   15  C   UNL     1      19.182  47.871  46.753  1.00  0.00     0.002 A 
HETATM   16  C   UNL     1      20.520  48.026  47.126  1.00  0.00     0.033 A 
ENDBRANCH   7  10
ENDBRANCH   2   5
BRANCH   1  17
HETATM   17  C   UNL     1      26.580  46.322  50.568  1.00  0.00     0.147 C 
HETATM   18  C   UNL     1      26.307  45.761  51.935  1.00  0.00    -0.027 A 
HETATM   19  C   UNL     1      26.741  44.434  52.028  1.00  0.00    -0.047 A 
HETATM   20  C   UNL     1      25.768  46.410  53.037  1.00  0.00     0.010 A 
HETATM   21  C   UNL     1      26.632  43.727  53.215  1.00  0.00     0.008 A 
HETATM   22  C   UNL     1      27.359  43.969  50.742  1.00  0.00     0.073 C 
HETATM   23  C   UNL     1      26.073  44.369  54.321  1.00  0.00     0.001 A 
HETATM   24  C   UNL     1      25.648  45.703  54.234  1.00  0.00     0.001 A 
HETATM   25  C   UNL     1      26.865  45.030  49.742  1.00  0.00     0.149 C 
BRANCH  25  26
HETATM   26  O   UNL     1      25.673  44.537  49.101  1.00  0.00    -0.393 OA
HETATM   27  H   UNL     1      25.495  43.665  49.494  1.00  0.00     0.210 HD
ENDBRANCH  25  26
ENDBRANCH   1  17
TORSDOF 4
ENDMDL
MODEL 8
REMARK VINA RESULT:      -8.1      5.490      7.142
REMARK  4 active torsions:
REMARK  status: ('A' for Active; 'I' for Inactive)
REMARK    1  A    between atoms: C_5  and  N_6 
REMARK       I    between atoms: N_6  and  C_7 
REMARK    2  A    between atoms: C_7  and  C_8 
REMARK    3  A    between atoms: N_10  and  C_11 
REMARK    4  A    between atoms: C_21  and  O_22 
ROOT
HETATM    1  N   UNL     1      27.946  42.464  52.573  1.00  0.00    -0.346 N 
HETATM    2  C   UNL     1      28.184  41.112  52.585  1.00  0.00     0.255 C 
HETATM    3  O   UNL     1      28.179  40.451  53.618  1.00  0.00    -0.268 OA
HETATM    4  H   UNL     1      27.842  42.961  51.700  1.00  0.00     0.163 HD
ENDROOT
BRANCH   2   5
HETATM    5  C   UNL     1      28.396  40.504  51.286  1.00  0.00     0.068 A 
HETATM    6  C   UNL     1      27.920  40.878  50.042  1.00  0.00     0.137 A 
HETATM    7  N   UNL     1      28.337  39.939  49.117  1.00  0.00    -0.243 N 
HETATM    8  N   UNL     1      29.145  39.022  49.723  1.00  0.00    -0.179 NA
HETATM    9  C   UNL     1      29.152  39.353  51.012  1.00  0.00     0.157 A 
BRANCH   7  10
HETATM   10  C   UNL     1      28.058  39.805  47.716  1.00  0.00     0.079 A 
HETATM   11  C   UNL     1      27.586  38.645  47.079  1.00  0.00     0.062 A 
HETATM   12 CL   UNL     1      27.271  37.118  47.823  1.00  0.00    -0.082 Cl
HETATM   13  C   UNL     1      27.362  38.652  45.687  1.00  0.00     0.026 A 
HETATM   14  C   UNL     1      27.604  39.788  44.919  1.00  0.00     0.002 A 
HETATM   15  C   UNL     1      28.076  40.937  45.533  1.00  0.00     0.002 A 
HETATM   16  C   UNL     1      28.299  40.946  46.912  1.00  0.00     0.033 A 
ENDBRANCH   7  10
ENDBRANCH   2   5
BRANCH   1  17
HETATM   17  C   UNL     1      27.538  43.166  53.771  1.00  0.00     0.147 C 
HETATM   18  C   UNL     1      28.706  43.744  54.519  1.00  0.00    -0.027 A 
HETATM   19  C   UNL     1      28.434  45.050  54.940  1.00  0.00    -0.047 A 
HETATM   20  C   UNL     1      29.901  43.124  54.856  1.00  0.00     0.010 A 
HETATM   21  C   UNL     1      29.354  45.766  55.690  1.00  0.00     0.008 A 
HETATM   22  C   UNL     1      27.057  45.482  54.531  1.00  0.00     0.073 C 
HETATM   23  C   UNL     1      30.566  45.154  56.015  1.00  0.00     0.001 A 
HETATM   24  C   UNL     1      30.837  43.840  55.604  1.00  0.00     0.001 A 
HETATM   25  C   UNL     1      26.696  44.441  53.457  1.00  0.00     0.149 C 
BRANCH  25  26
HETATM   26  O   UNL     1      27.021  44.984  52.163  1.00  0.00    -0.393 OA
HETATM   27  H   UNL     1      27.566  44.313  51.717  1.00  0.00     0.210 HD
ENDBRANCH  25  26
ENDBRANCH   1  17
TORSDOF 4
ENDMDL
MODEL 9
REMARK VINA RESULT:      -8.0      2.633      3.977
REMARK  4 active torsions:
REMARK  status: ('A' for Active; 'I' for Inactive)
REMARK    1  A    between atoms: C_5  and  N_6 
REMARK       I    between atoms: N_6  and  C_7 
REMARK    2  A    between atoms: C_7  and  C_8 
REMARK    3  A    between atoms: N_10  and  C_11 
REMARK    4  A    between atoms: C_21  and  O_22 
ROOT
HETATM    1  N   UNL     1      26.084  44.331  50.427  1.00  0.00    -0.346 N 
HETATM    2  C   UNL     1      26.469  45.483  49.791  1.00  0.00     0.255 C 
HETATM    3  O   UNL     1      27.580  45.621  49.291  1.00  0.00    -0.268 OA
HETATM    4  H   UNL     1      25.128  44.202  50.727  1.00  0.00     0.163 HD
ENDROOT
BRANCH   2   5
HETATM    5  C   UNL     1      25.455  46.517  49.703  1.00  0.00     0.068 A 
HETATM    6  C   UNL     1      24.214  46.494  49.095  1.00  0.00     0.137 A 
HETATM    7  N   UNL     1      23.644  47.747  49.219  1.00  0.00    -0.243 N 
HETATM    8  N   UNL     1      24.454  48.548  49.972  1.00  0.00    -0.179 NA
HETATM    9  C   UNL     1      25.534  47.816  50.232  1.00  0.00     0.157 A 
BRANCH   7  10
HETATM   10  C   UNL     1      22.417  48.282  48.704  1.00  0.00     0.079 A 
HETATM   11  C   UNL     1      22.252  49.553  48.127  1.00  0.00     0.062 A 
HETATM   12 CL   UNL     1      23.469  50.763  47.939  1.00  0.00    -0.082 Cl
HETATM   13  C   UNL     1      20.981  49.954  47.669  1.00  0.00     0.026 A 
HETATM   14  C   UNL     1      19.872  49.118  47.780  1.00  0.00     0.002 A 
HETATM   15  C   UNL     1      20.019  47.866  48.353  1.00  0.00     0.002 A 
HETATM   16  C   UNL     1      21.274  47.453  48.809  1.00  0.00     0.033 A 
ENDBRANCH   7  10
ENDBRANCH   2   5
BRANCH   1  17
HETATM   17  C   UNL     1      26.927  43.154  50.427  1.00  0.00     0.147 C 
HETATM   18  C   UNL     1      27.688  42.997  51.713  1.00  0.00    -0.027 A 
HETATM   19  C   UNL     1      27.655  41.671  52.156  1.00  0.00    -0.047 A 
HETATM   20  C   UNL     1      28.414  43.959  52.403  1.00  0.00     0.010 A 
HETATM   21  C   UNL     1      28.332  41.282  53.302  1.00  0.00     0.008 A 
HETATM   22  C   UNL     1      26.880  40.797  51.214  1.00  0.00     0.073 C 
HETATM   23  C   UNL     1      29.047  42.249  54.011  1.00  0.00     0.001 A 
HETATM   24  C   UNL     1      29.091  43.578  53.562  1.00  0.00     0.001 A 
HETATM   25  C   UNL     1      26.102  41.831  50.380  1.00  0.00     0.149 C 
BRANCH  25  26
HETATM   26  O   UNL     1      24.795  42.000  50.962  1.00  0.00    -0.393 OA
HETATM   27  H   UNL     1      24.869  41.700  51.884  1.00  0.00     0.210 HD
ENDBRANCH  25  26
ENDBRANCH   1  17
TORSDOF 4
ENDMDL
MODEL 10
REMARK VINA RESULT:      -8.0      5.838      9.139
REMARK  4 active torsions:
REMARK  status: ('A' for Active; 'I' for Inactive)
REMARK    1  A    between atoms: C_5  and  N_6 
REMARK       I    between atoms: N_6  and  C_7 
REMARK    2  A    between atoms: C_7  and  C_8 
REMARK    3  A    between atoms: N_10  and  C_11 
REMARK    4  A    between atoms: C_21  and  O_22 
ROOT
HETATM    1  N   UNL     1      27.476  39.588  50.336  1.00  0.00    -0.346 N 
HETATM    2  C   UNL     1      26.930  40.716  50.896  1.00  0.00     0.255 C 
HETATM    3  O   UNL     1      25.847  41.170  50.542  1.00  0.00    -0.268 OA
HETATM    4  H   UNL     1      28.310  39.172  50.724  1.00  0.00     0.163 HD
ENDROOT
BRANCH   2   5
HETATM    5  C   UNL     1      27.697  41.312  51.973  1.00  0.00     0.068 A 
HETATM    6  C   UNL     1      27.548  42.538  52.596  1.00  0.00     0.137 A 
HETATM    7  N   UNL     1      28.568  42.686  53.517  1.00  0.00    -0.243 N 
HETATM    8  N   UNL     1      29.314  41.543  53.564  1.00  0.00    -0.179 NA
HETATM    9  C   UNL     1      28.803  40.747  52.627  1.00  0.00     0.157 A 
BRANCH   7  10
HETATM   10  C   UNL     1      28.925  43.787  54.363  1.00  0.00     0.079 A 
HETATM   11  C   UNL     1      28.221  44.997  54.478  1.00  0.00     0.062 A 
HETATM   12 CL   UNL     1      26.797  45.446  53.609  1.00  0.00    -0.082 Cl
HETATM   13  C   UNL     1      28.692  46.002  55.347  1.00  0.00     0.026 A 
HETATM   14  C   UNL     1      29.853  45.827  56.097  1.00  0.00     0.002 A 
HETATM   15  C   UNL     1      30.561  44.642  55.988  1.00  0.00     0.002 A 
HETATM   16  C   UNL     1      30.104  43.636  55.133  1.00  0.00     0.033 A 
ENDBRANCH   7  10
ENDBRANCH   2   5
BRANCH   1  17
HETATM   17  C   UNL     1      26.736  38.789  49.382  1.00  0.00     0.147 C 
HETATM   18  C   UNL     1      27.246  38.957  47.979  1.00  0.00    -0.027 A 
HETATM   19  C   UNL     1      27.345  37.721  47.331  1.00  0.00    -0.047 A 
HETATM   20  C   UNL     1      27.539  40.137  47.308  1.00  0.00     0.010 A 
HETATM   21  C   UNL     1      27.752  37.638  46.008  1.00  0.00     0.008 A 
HETATM   22  C   UNL     1      26.904  36.598  48.222  1.00  0.00     0.073 C 
HETATM   23  C   UNL     1      28.067  38.820  45.335  1.00  0.00     0.001 A 
HETATM   24  C   UNL     1      27.957  40.061  45.979  1.00  0.00     0.001 A 
HETATM   25  C   UNL     1      26.929  37.258  49.612  1.00  0.00     0.149 C 
BRANCH  25  26
HETATM   26  O   UNL     1      28.196  36.972  50.234  1.00  0.00    -0.393 OA
HETATM   27  H   UNL     1      28.868  37.437  49.706  1.00  0.00     0.210 HD
ENDBRANCH  25  26
ENDBRANCH   1  17
TORSDOF 4
ENDMDL
