MODEL 1
REMARK VINA RESULT:      -9.8      0.000      0.000
REMARK  11 active torsions:
REMARK  status: ('A' for Active; 'I' for Inactive)
REMARK    1  A    between atoms: C_2  and  C_3 
REMARK    2  A    between atoms: C_3  and  C_4 
REMARK    3  A    between atoms: C_4  and  O_5 
REMARK    4  A    between atoms: O_5  and  C_6 
REMARK    5  A    between atoms: C_8  and  C_9 
REMARK       I    between atoms: C_9  and  N_10 
REMARK    6  A    between atoms: N_10  and  C_11 
REMARK    7  A    between atoms: C_11  and  N_12 
REMARK    8  A    between atoms: N_12  and  C_13 
REMARK    9  A    between atoms: C_15  and  C_16 
REMARK   10  A    between atoms: C_23  and  C_24 
REMARK   11  A    between atoms: C_27  and  O_28 
ROOT
HETATM    1  C   UNL     1      24.996  42.669  50.239  1.00  0.00     0.035 A 
HETATM    2  C   UNL     1      25.912  43.062  51.218  1.00  0.00     0.048 A 
HETATM    3  C   UNL     1      27.183  42.476  51.316  1.00  0.00     0.052 A 
HETATM    4  C   UNL     1      27.527  41.480  50.399  1.00  0.00     0.080 A 
HETATM    5  C   UNL     1      26.655  41.139  49.363  1.00  0.00     0.040 A 
HETATM    6  C   UNL     1      25.397  41.747  49.271  1.00  0.00     0.032 A 
ENDROOT
BRANCH   1   7
HETATM    7  N   UNL     1      23.696  43.213  50.176  1.00  0.00    -0.333 N 
HETATM    8  H   UNL     1      23.019  42.867  50.856  1.00  0.00     0.168 HD
BRANCH   7   9
HETATM    9  C   UNL     1      23.276  44.315  49.466  1.00  0.00     0.179 C 
HETATM   10  S   UNL     1      21.785  44.596  48.755  1.00  0.00    -0.040 SA
BRANCH   9  11
HETATM   11  N   UNL     1      24.203  45.322  49.316  1.00  0.00    -0.299 N 
HETATM   12  C   UNL     1      24.604  46.294  50.218  1.00  0.00     0.257 C 
HETATM   13  O   UNL     1      24.549  46.177  51.435  1.00  0.00    -0.267 OA
HETATM   14  H   UNL     1      24.523  45.411  48.359  1.00  0.00     0.171 HD
BRANCH  12  15
HETATM   15  C   UNL     1      25.244  47.472  49.575  1.00  0.00     0.035 A 
HETATM   16  C   UNL     1      24.457  48.373  48.848  1.00  0.00     0.053 A 
HETATM   17  C   UNL     1      25.045  49.521  48.316  1.00  0.00     0.069 A 
HETATM   18  C   UNL     1      26.416  49.741  48.490  1.00  0.00     0.037 A 
HETATM   19  C   UNL     1      27.208  48.827  49.183  1.00  0.00     0.004 A 
HETATM   20  C   UNL     1      26.622  47.689  49.728  1.00  0.00     0.017 A 
BRANCH  17  21
HETATM   21  O   UNL     1      24.407  50.516  47.633  1.00  0.00    -0.351 OA
BRANCH  21  22
HETATM   22  C   UNL     1      22.981  50.525  47.647  1.00  0.00     0.175 C 
BRANCH  22  23
HETATM   23  C   UNL     1      22.518  51.304  48.878  1.00  0.00     0.026 C 
BRANCH  23  24
HETATM   24  C   UNL     1      21.095  50.933  49.305  1.00  0.00    -0.002 C 
HETATM   25  C   UNL     1      20.060  51.779  48.581  1.00  0.00     0.005 C 
ENDBRANCH  23  24
ENDBRANCH  22  23
ENDBRANCH  21  22
ENDBRANCH  17  21
ENDBRANCH  12  15
ENDBRANCH   9  11
ENDBRANCH   7   9
ENDBRANCH   1   7
BRANCH   3  26
HETATM   26  C   UNL     1      28.084  42.902  52.377  1.00  0.00     0.183 A 
HETATM   27  O   UNL     1      27.774  44.091  52.982  1.00  0.00    -0.289 OA
HETATM   28  C   UNL     1      28.698  44.205  53.973  1.00  0.00     0.106 A 
HETATM   29  C   UNL     1      29.521  43.094  53.917  1.00  0.00     0.094 A 
HETATM   30  C   UNL     1      28.802  45.227  54.903  1.00  0.00     0.040 A 
HETATM   31  N   UNL     1      29.161  42.298  52.851  1.00  0.00    -0.221 NA
HETATM   32  C   UNL     1      30.513  42.947  54.897  1.00  0.00     0.041 A 
HETATM   33  C   UNL     1      30.629  43.928  55.910  1.00  0.00    -0.056 A 
HETATM   34  C   UNL     1      29.796  45.064  55.876  1.00  0.00     0.010 A 
BRANCH  33  35
HETATM   35  C   UNL     1      31.674  43.716  56.986  1.00  0.00     0.034 C 
HETATM   36  C   UNL     1      31.538  44.576  58.239  1.00  0.00     0.010 C 
ENDBRANCH  33  35
ENDBRANCH   3  26
BRANCH   4  37
HETATM   37  O   UNL     1      28.716  40.802  50.452  1.00  0.00    -0.360 OA
HETATM   38  H   UNL     1      28.816  40.287  49.625  1.00  0.00     0.217 HD
ENDBRANCH   4  37
TORSDOF 11
ENDMDL
MODEL 2
REMARK VINA RESULT:      -9.7      2.791      4.608
REMARK  11 active torsions:
REMARK  status: ('A' for Active; 'I' for Inactive)
REMARK    1  A    between atoms: C_2  and  C_3 
REMARK    2  A    between atoms: C_3  and  C_4 
REMARK    3  A    between atoms: C_4  and  O_5 
REMARK    4  A    between atoms: O_5  and  C_6 
REMARK    5  A    between atoms: C_8  and  C_9 
REMARK       I    between atoms: C_9  and  N_10 
REMARK    6  A    between atoms: N_10  and  C_11 
REMARK    7  A    between atoms: C_11  and  N_12 
REMARK    8  A    between atoms: N_12  and  C_13 
REMARK    9  A    between atoms: C_15  and  C_16 
REMARK   10  A    between atoms: C_23  and  C_24 
REMARK   11  A    between atoms: C_27  and  O_28 
ROOT
HETATM    1  C   UNL     1      24.396  46.741  50.113  1.00  0.00     0.035 A 
HETATM    2  C   UNL     1      25.364  46.376  51.053  1.00  0.00     0.048 A 
HETATM    3  C   UNL     1      25.821  45.055  51.166  1.00  0.00     0.052 A 
HETATM    4  C   UNL     1      25.288  44.092  50.304  1.00  0.00     0.080 A 
HETATM    5  C   UNL     1      24.385  44.459  49.305  1.00  0.00     0.040 A 
HETATM    6  C   UNL     1      23.954  45.787  49.196  1.00  0.00     0.032 A 
ENDROOT
BRANCH   1   7
HETATM    7  N   UNL     1      23.892  48.056  50.038  1.00  0.00    -0.333 N 
HETATM    8  H   UNL     1      23.363  48.392  50.843  1.00  0.00     0.168 HD
BRANCH   7   9
HETATM    9  C   UNL     1      24.209  49.030  49.119  1.00  0.00     0.179 C 
HETATM   10  S   UNL     1      25.712  49.437  48.501  1.00  0.00    -0.040 SA
BRANCH   9  11
HETATM   11  N   UNL     1      23.153  49.774  48.644  1.00  0.00    -0.299 N 
HETATM   12  C   UNL     1      22.200  50.500  49.342  1.00  0.00     0.257 C 
HETATM   13  O   UNL     1      22.371  50.979  50.455  1.00  0.00    -0.267 OA
HETATM   14  H   UNL     1      23.008  49.646  47.650  1.00  0.00     0.171 HD
BRANCH  12  15
HETATM   15  C   UNL     1      20.966  50.767  48.557  1.00  0.00     0.035 A 
HETATM   16  C   UNL     1      20.614  49.906  47.510  1.00  0.00     0.053 A 
HETATM   17  C   UNL     1      19.413  50.112  46.830  1.00  0.00     0.069 A 
HETATM   18  C   UNL     1      18.593  51.190  47.181  1.00  0.00     0.037 A 
HETATM   19  C   UNL     1      18.960  52.070  48.198  1.00  0.00     0.004 A 
HETATM   20  C   UNL     1      20.150  51.859  48.889  1.00  0.00     0.017 A 
BRANCH  17  21
HETATM   21  O   UNL     1      18.906  49.334  45.830  1.00  0.00    -0.351 OA
BRANCH  21  22
HETATM   22  C   UNL     1      18.822  47.928  46.056  1.00  0.00     0.175 C 
BRANCH  22  23
HETATM   23  C   UNL     1      17.699  47.671  47.061  1.00  0.00     0.026 C 
BRANCH  23  24
HETATM   24  C   UNL     1      18.219  47.108  48.387  1.00  0.00    -0.002 C 
HETATM   25  C   UNL     1      17.914  48.046  49.545  1.00  0.00     0.005 C 
ENDBRANCH  23  24
ENDBRANCH  22  23
ENDBRANCH  21  22
ENDBRANCH  17  21
ENDBRANCH  12  15
ENDBRANCH   9  11
ENDBRANCH   7   9
ENDBRANCH   1   7
BRANCH   3  26
HETATM   26  C   UNL     1      26.805  44.726  52.186  1.00  0.00     0.183 A 
HETATM   27  O   UNL     1      27.732  43.778  51.838  1.00  0.00    -0.289 OA
HETATM   28  C   UNL     1      28.568  43.728  52.909  1.00  0.00     0.106 A 
HETATM   29  C   UNL     1      28.107  44.631  53.850  1.00  0.00     0.094 A 
HETATM   30  C   UNL     1      29.699  42.940  53.048  1.00  0.00     0.040 A 
HETATM   31  N   UNL     1      26.941  45.218  53.406  1.00  0.00    -0.221 NA
HETATM   32  C   UNL     1      28.855  44.816  55.022  1.00  0.00     0.041 A 
HETATM   33  C   UNL     1      30.054  44.084  55.194  1.00  0.00    -0.056 A 
HETATM   34  C   UNL     1      30.436  43.138  54.223  1.00  0.00     0.010 A 
BRANCH  33  35
HETATM   35  C   UNL     1      30.869  44.343  56.445  1.00  0.00     0.034 C 
HETATM   36  C   UNL     1      31.586  43.137  57.045  1.00  0.00     0.010 C 
ENDBRANCH  33  35
ENDBRANCH   3  26
BRANCH   4  37
HETATM   37  O   UNL     1      25.619  42.766  50.380  1.00  0.00    -0.360 OA
HETATM   38  H   UNL     1      25.914  42.573  51.294  1.00  0.00     0.217 HD
ENDBRANCH   4  37
TORSDOF 11
ENDMDL
MODEL 3
REMARK VINA RESULT:      -9.6      2.925      4.833
REMARK  11 active torsions:
REMARK  status: ('A' for Active; 'I' for Inactive)
REMARK    1  A    between atoms: C_2  and  C_3 
REMARK    2  A    between atoms: C_3  and  C_4 
REMARK    3  A    between atoms: C_4  and  O_5 
REMARK    4  A    between atoms: O_5  and  C_6 
REMARK    5  A    between atoms: C_8  and  C_9 
REMARK       I    between atoms: C_9  and  N_10 
REMARK    6  A    between atoms: N_10  and  C_11 
REMARK    7  A    between atoms: C_11  and  N_12 
REMARK    8  A    between atoms: N_12  and  C_13 
REMARK    9  A    between atoms: C_15  and  C_16 
REMARK   10  A    between atoms: C_23  and  C_24 
REMARK   11  A    between atoms: C_27  and  O_28 
ROOT
HETATM    1  C   UNL     1      24.295  46.469  50.035  1.00  0.00     0.035 A 
HETATM    2  C   UNL     1      25.271  46.137  50.977  1.00  0.00     0.048 A 
HETATM    3  C   UNL     1      25.820  44.847  51.047  1.00  0.00     0.052 A 
HETATM    4  C   UNL     1      25.371  43.885  50.139  1.00  0.00     0.080 A 
HETATM    5  C   UNL     1      24.460  44.227  49.138  1.00  0.00     0.040 A 
HETATM    6  C   UNL     1      23.937  45.524  49.073  1.00  0.00     0.032 A 
ENDROOT
BRANCH   1   7
HETATM    7  N   UNL     1      23.699  47.747  50.002  1.00  0.00    -0.333 N 
HETATM    8  H   UNL     1      23.037  47.965  50.747  1.00  0.00     0.168 HD
BRANCH   7   9
HETATM    9  C   UNL     1      24.058  48.826  49.226  1.00  0.00     0.179 C 
HETATM   10  S   UNL     1      25.593  49.331  48.783  1.00  0.00    -0.040 SA
BRANCH   9  11
HETATM   11  N   UNL     1      23.021  49.597  48.752  1.00  0.00    -0.299 N 
HETATM   12  C   UNL     1      22.204  50.489  49.429  1.00  0.00     0.257 C 
HETATM   13  O   UNL     1      22.524  51.088  50.447  1.00  0.00    -0.267 OA
HETATM   14  H   UNL     1      22.767  49.358  47.802  1.00  0.00     0.171 HD
BRANCH  12  15
HETATM   15  C   UNL     1      20.922  50.767  48.730  1.00  0.00     0.035 A 
HETATM   16  C   UNL     1      19.954  51.562  49.354  1.00  0.00     0.053 A 
HETATM   17  C   UNL     1      18.787  51.889  48.662  1.00  0.00     0.069 A 
HETATM   18  C   UNL     1      18.586  51.394  47.369  1.00  0.00     0.037 A 
HETATM   19  C   UNL     1      19.533  50.572  46.760  1.00  0.00     0.004 A 
HETATM   20  C   UNL     1      20.705  50.256  47.441  1.00  0.00     0.017 A 
BRANCH  17  21
HETATM   21  O   UNL     1      17.779  52.694  49.109  1.00  0.00    -0.351 OA
BRANCH  21  22
HETATM   22  C   UNL     1      16.763  52.103  49.917  1.00  0.00     0.175 C 
BRANCH  22  23
HETATM   23  C   UNL     1      15.414  52.338  49.239  1.00  0.00     0.026 C 
BRANCH  23  24
HETATM   24  C   UNL     1      14.794  53.686  49.618  1.00  0.00    -0.002 C 
HETATM   25  C   UNL     1      14.193  53.647  51.014  1.00  0.00     0.005 C 
ENDBRANCH  23  24
ENDBRANCH  22  23
ENDBRANCH  21  22
ENDBRANCH  17  21
ENDBRANCH  12  15
ENDBRANCH   9  11
ENDBRANCH   7   9
ENDBRANCH   1   7
BRANCH   3  26
HETATM   26  C   UNL     1      26.810  44.549  52.072  1.00  0.00     0.183 A 
HETATM   27  O   UNL     1      27.757  43.618  51.734  1.00  0.00    -0.289 OA
HETATM   28  C   UNL     1      28.591  43.595  52.807  1.00  0.00     0.106 A 
HETATM   29  C   UNL     1      28.109  44.497  53.739  1.00  0.00     0.094 A 
HETATM   30  C   UNL     1      29.739  42.833  52.955  1.00  0.00     0.040 A 
HETATM   31  N   UNL     1      26.932  45.054  53.287  1.00  0.00    -0.221 NA
HETATM   32  C   UNL     1      28.851  44.707  54.910  1.00  0.00     0.041 A 
HETATM   33  C   UNL     1      30.065  44.003  55.091  1.00  0.00    -0.056 A 
HETATM   34  C   UNL     1      30.470  43.058  54.129  1.00  0.00     0.010 A 
BRANCH  33  35
HETATM   35  C   UNL     1      30.872  44.291  56.341  1.00  0.00     0.034 C 
HETATM   36  C   UNL     1      31.457  43.079  57.061  1.00  0.00     0.010 C 
ENDBRANCH  33  35
ENDBRANCH   3  26
BRANCH   4  37
HETATM   37  O   UNL     1      25.796  42.583  50.169  1.00  0.00    -0.360 OA
HETATM   38  H   UNL     1      26.389  42.470  50.940  1.00  0.00     0.217 HD
ENDBRANCH   4  37
TORSDOF 11
ENDMDL
MODEL 4
REMARK VINA RESULT:      -9.6      1.494      2.271
REMARK  11 active torsions:
REMARK  status: ('A' for Active; 'I' for Inactive)
REMARK    1  A    between atoms: C_2  and  C_3 
REMARK    2  A    between atoms: C_3  and  C_4 
REMARK    3  A    between atoms: C_4  and  O_5 
REMARK    4  A    between atoms: O_5  and  C_6 
REMARK    5  A    between atoms: C_8  and  C_9 
REMARK       I    between atoms: C_9  and  N_10 
REMARK    6  A    between atoms: N_10  and  C_11 
REMARK    7  A    between atoms: C_11  and  N_12 
REMARK    8  A    between atoms: N_12  and  C_13 
REMARK    9  A    between atoms: C_15  and  C_16 
REMARK   10  A    between atoms: C_23  and  C_24 
REMARK   11  A    between atoms: C_27  and  O_28 
ROOT
HETATM    1  C   UNL     1      25.528  43.337  49.508  1.00  0.00     0.035 A 
HETATM    2  C   UNL     1      26.390  43.741  50.530  1.00  0.00     0.048 A 
HETATM    3  C   UNL     1      26.975  42.817  51.410  1.00  0.00     0.052 A 
HETATM    4  C   UNL     1      26.680  41.462  51.241  1.00  0.00     0.080 A 
HETATM    5  C   UNL     1      25.889  41.037  50.171  1.00  0.00     0.040 A 
HETATM    6  C   UNL     1      25.329  41.973  49.293  1.00  0.00     0.032 A 
ENDROOT
BRANCH   1   7
HETATM    7  N   UNL     1      24.893  44.269  48.661  1.00  0.00    -0.333 N 
HETATM    8  H   UNL     1      25.336  44.448  47.760  1.00  0.00     0.168 HD
BRANCH   7   9
HETATM    9  C   UNL     1      23.631  44.804  48.791  1.00  0.00     0.179 C 
HETATM   10  S   UNL     1      22.210  44.036  49.237  1.00  0.00    -0.040 SA
BRANCH   9  11
HETATM   11  N   UNL     1      23.517  46.147  48.515  1.00  0.00    -0.299 N 
HETATM   12  C   UNL     1      24.078  47.233  49.168  1.00  0.00     0.257 C 
HETATM   13  O   UNL     1      25.115  47.192  49.818  1.00  0.00    -0.267 OA
HETATM   14  H   UNL     1      22.817  46.337  47.808  1.00  0.00     0.171 HD
BRANCH  12  15
HETATM   15  C   UNL     1      23.372  48.514  48.903  1.00  0.00     0.035 A 
HETATM   16  C   UNL     1      22.014  48.633  49.221  1.00  0.00     0.053 A 
HETATM   17  C   UNL     1      21.375  49.861  49.049  1.00  0.00     0.069 A 
HETATM   18  C   UNL     1      22.090  50.948  48.534  1.00  0.00     0.037 A 
HETATM   19  C   UNL     1      23.433  50.822  48.182  1.00  0.00     0.004 A 
HETATM   20  C   UNL     1      24.078  49.603  48.367  1.00  0.00     0.017 A 
BRANCH  17  21
HETATM   21  O   UNL     1      20.078  50.150  49.361  1.00  0.00    -0.351 OA
BRANCH  21  22
HETATM   22  C   UNL     1      19.829  51.283  50.190  1.00  0.00     0.175 C 
BRANCH  22  23
HETATM   23  C   UNL     1      18.608  52.020  49.640  1.00  0.00     0.026 C 
BRANCH  23  24
HETATM   24  C   UNL     1      18.821  52.518  48.207  1.00  0.00    -0.002 C 
HETATM   25  C   UNL     1      17.707  52.047  47.286  1.00  0.00     0.005 C 
ENDBRANCH  23  24
ENDBRANCH  22  23
ENDBRANCH  21  22
ENDBRANCH  17  21
ENDBRANCH  12  15
ENDBRANCH   9  11
ENDBRANCH   7   9
ENDBRANCH   1   7
BRANCH   3  26
HETATM   26  C   UNL     1      27.839  43.298  52.478  1.00  0.00     0.183 A 
HETATM   27  O   UNL     1      27.493  44.505  53.028  1.00  0.00    -0.289 OA
HETATM   28  C   UNL     1      28.387  44.672  54.039  1.00  0.00     0.106 A 
HETATM   29  C   UNL     1      29.229  43.574  54.047  1.00  0.00     0.094 A 
HETATM   30  C   UNL     1      28.448  45.730  54.931  1.00  0.00     0.040 A 
HETATM   31  N   UNL     1      28.912  42.732  53.003  1.00  0.00    -0.221 NA
HETATM   32  C   UNL     1      30.196  43.482  55.059  1.00  0.00     0.041 A 
HETATM   33  C   UNL     1      30.268  44.503  56.036  1.00  0.00    -0.056 A 
HETATM   34  C   UNL     1      29.418  45.621  55.936  1.00  0.00     0.010 A 
BRANCH  33  35
HETATM   35  C   UNL     1      31.287  44.350  57.147  1.00  0.00     0.034 C 
HETATM   36  C   UNL     1      32.033  43.021  57.201  1.00  0.00     0.010 C 
ENDBRANCH  33  35
ENDBRANCH   3  26
BRANCH   4  37
HETATM   37  O   UNL     1      27.147  40.491  52.087  1.00  0.00    -0.360 OA
HETATM   38  H   UNL     1      27.361  39.696  51.556  1.00  0.00     0.217 HD
ENDBRANCH   4  37
TORSDOF 11
ENDMDL
MODEL 5
REMARK VINA RESULT:      -9.6      2.180      9.981
REMARK  11 active torsions:
REMARK  status: ('A' for Active; 'I' for Inactive)
REMARK    1  A    between atoms: C_2  and  C_3 
REMARK    2  A    between atoms: C_3  and  C_4 
REMARK    3  A    between atoms: C_4  and  O_5 
REMARK    4  A    between atoms: O_5  and  C_6 
REMARK    5  A    between atoms: C_8  and  C_9 
REMARK       I    between atoms: C_9  and  N_10 
REMARK    6  A    between atoms: N_10  and  C_11 
REMARK    7  A    between atoms: C_11  and  N_12 
REMARK    8  A    between atoms: N_12  and  C_13 
REMARK    9  A    between atoms: C_15  and  C_16 
REMARK   10  A    between atoms: C_23  and  C_24 
REMARK   11  A    between atoms: C_27  and  O_28 
ROOT
HETATM    1  C   UNL     1      24.941  45.306  50.055  1.00  0.00     0.035 A 
HETATM    2  C   UNL     1      23.970  46.246  49.703  1.00  0.00     0.048 A 
HETATM    3  C   UNL     1      24.303  47.580  49.420  1.00  0.00     0.052 A 
HETATM    4  C   UNL     1      25.646  47.957  49.492  1.00  0.00     0.080 A 
HETATM    5  C   UNL     1      26.635  47.009  49.759  1.00  0.00     0.040 A 
HETATM    6  C   UNL     1      26.285  45.678  50.021  1.00  0.00     0.032 A 
ENDROOT
BRANCH   1   7
HETATM    7  N   UNL     1      24.601  43.980  50.399  1.00  0.00    -0.333 N 
HETATM    8  H   UNL     1      23.691  43.643  50.085  1.00  0.00     0.168 HD
BRANCH   7   9
HETATM    9  C   UNL     1      25.425  43.003  50.908  1.00  0.00     0.179 C 
HETATM   10  S   UNL     1      25.668  41.442  50.348  1.00  0.00    -0.040 SA
BRANCH   9  11
HETATM   11  N   UNL     1      26.145  43.348  52.029  1.00  0.00    -0.299 N 
HETATM   12  C   UNL     1      25.747  44.065  53.147  1.00  0.00     0.257 C 
HETATM   13  O   UNL     1      24.594  44.137  53.551  1.00  0.00    -0.267 OA
HETATM   14  H   UNL     1      27.132  43.144  51.931  1.00  0.00     0.171 HD
BRANCH  12  15
HETATM   15  C   UNL     1      26.881  44.648  53.912  1.00  0.00     0.035 A 
HETATM   16  C   UNL     1      27.962  43.834  54.271  1.00  0.00     0.053 A 
HETATM   17  C   UNL     1      29.061  44.402  54.916  1.00  0.00     0.069 A 
HETATM   18  C   UNL     1      29.056  45.767  55.222  1.00  0.00     0.037 A 
HETATM   19  C   UNL     1      27.965  46.571  54.898  1.00  0.00     0.004 A 
HETATM   20  C   UNL     1      26.873  46.012  54.241  1.00  0.00     0.017 A 
BRANCH  17  21
HETATM   21  O   UNL     1      30.208  43.758  55.280  1.00  0.00    -0.351 OA
BRANCH  21  22
HETATM   22  C   UNL     1      31.185  44.497  56.012  1.00  0.00     0.175 C 
BRANCH  22  23
HETATM   23  C   UNL     1      31.406  43.801  57.354  1.00  0.00     0.026 C 
BRANCH  23  24
HETATM   24  C   UNL     1      31.299  44.766  58.539  1.00  0.00    -0.002 C 
HETATM   25  C   UNL     1      30.520  46.018  58.166  1.00  0.00     0.005 C 
ENDBRANCH  23  24
ENDBRANCH  22  23
ENDBRANCH  21  22
ENDBRANCH  17  21
ENDBRANCH  12  15
ENDBRANCH   9  11
ENDBRANCH   7   9
ENDBRANCH   1   7
BRANCH   3  26
HETATM   26  C   UNL     1      23.246  48.524  49.091  1.00  0.00     0.183 A 
HETATM   27  O   UNL     1      22.295  48.074  48.212  1.00  0.00    -0.289 OA
HETATM   28  C   UNL     1      21.398  49.093  48.150  1.00  0.00     0.106 A 
HETATM   29  C   UNL     1      21.847  50.106  48.979  1.00  0.00     0.094 A 
HETATM   30  C   UNL     1      20.223  49.126  47.417  1.00  0.00     0.040 A 
HETATM   31  N   UNL     1      23.064  49.759  49.526  1.00  0.00    -0.221 NA
HETATM   32  C   UNL     1      21.042  51.243  49.142  1.00  0.00     0.041 A 
HETATM   33  C   UNL     1      19.800  51.308  48.466  1.00  0.00    -0.056 A 
HETATM   34  C   UNL     1      19.429  50.268  47.592  1.00  0.00     0.010 A 
BRANCH  33  35
HETATM   35  C   UNL     1      18.928  52.524  48.702  1.00  0.00     0.034 C 
HETATM   36  C   UNL     1      17.688  52.308  49.564  1.00  0.00     0.010 C 
ENDBRANCH  33  35
ENDBRANCH   3  26
BRANCH   4  37
HETATM   37  O   UNL     1      26.064  49.247  49.299  1.00  0.00    -0.360 OA
HETATM   38  H   UNL     1      25.360  49.732  48.822  1.00  0.00     0.217 HD
ENDBRANCH   4  37
TORSDOF 11
ENDMDL
MODEL 6
REMARK VINA RESULT:      -9.3      2.662      3.929
REMARK  11 active torsions:
REMARK  status: ('A' for Active; 'I' for Inactive)
REMARK    1  A    between atoms: C_2  and  C_3 
REMARK    2  A    between atoms: C_3  and  C_4 
REMARK    3  A    between atoms: C_4  and  O_5 
REMARK    4  A    between atoms: O_5  and  C_6 
REMARK    5  A    between atoms: C_8  and  C_9 
REMARK       I    between atoms: C_9  and  N_10 
REMARK    6  A    between atoms: N_10  and  C_11 
REMARK    7  A    between atoms: C_11  and  N_12 
REMARK    8  A    between atoms: N_12  and  C_13 
REMARK    9  A    between atoms: C_15  and  C_16 
REMARK   10  A    between atoms: C_23  and  C_24 
REMARK   11  A    between atoms: C_27  and  O_28 
ROOT
HETATM    1  C   UNL     1      24.988  43.834  49.523  1.00  0.00     0.035 A 
HETATM    2  C   UNL     1      25.797  44.116  50.625  1.00  0.00     0.048 A 
HETATM    3  C   UNL     1      26.390  43.097  51.386  1.00  0.00     0.052 A 
HETATM    4  C   UNL     1      26.160  41.771  51.011  1.00  0.00     0.080 A 
HETATM    5  C   UNL     1      25.424  41.477  49.861  1.00  0.00     0.040 A 
HETATM    6  C   UNL     1      24.855  42.509  49.105  1.00  0.00     0.032 A 
ENDROOT
BRANCH   1   7
HETATM    7  N   UNL     1      24.343  44.855  48.794  1.00  0.00    -0.333 N 
HETATM    8  H   UNL     1      24.116  44.653  47.820  1.00  0.00     0.168 HD
BRANCH   7   9
HETATM    9  C   UNL     1      23.773  46.009  49.282  1.00  0.00     0.179 C 
HETATM   10  S   UNL     1      24.517  47.300  50.049  1.00  0.00    -0.040 SA
BRANCH   9  11
HETATM   11  N   UNL     1      22.410  46.120  49.123  1.00  0.00    -0.299 N 
HETATM   12  C   UNL     1      21.687  46.739  48.116  1.00  0.00     0.257 C 
HETATM   13  O   UNL     1      22.092  46.909  46.974  1.00  0.00    -0.267 OA
HETATM   14  H   UNL     1      21.901  45.803  49.939  1.00  0.00     0.171 HD
BRANCH  12  15
HETATM   15  C   UNL     1      20.292  47.074  48.508  1.00  0.00     0.035 A 
HETATM   16  C   UNL     1      20.061  48.120  49.409  1.00  0.00     0.053 A 
HETATM   17  C   UNL     1      18.749  48.486  49.710  1.00  0.00     0.069 A 
HETATM   18  C   UNL     1      17.684  47.785  49.134  1.00  0.00     0.037 A 
HETATM   19  C   UNL     1      17.913  46.719  48.266  1.00  0.00     0.004 A 
HETATM   20  C   UNL     1      19.220  46.361  47.950  1.00  0.00     0.017 A 
BRANCH  17  21
HETATM   21  O   UNL     1      18.361  49.513  50.522  1.00  0.00    -0.351 OA
BRANCH  21  22
HETATM   22  C   UNL     1      18.000  50.748  49.908  1.00  0.00     0.175 C 
BRANCH  22  23
HETATM   23  C   UNL     1      19.232  51.652  49.889  1.00  0.00     0.026 C 
BRANCH  23  24
HETATM   24  C   UNL     1      19.837  51.789  48.489  1.00  0.00    -0.002 C 
HETATM   25  C   UNL     1      21.290  51.342  48.467  1.00  0.00     0.005 C 
ENDBRANCH  23  24
ENDBRANCH  22  23
ENDBRANCH  21  22
ENDBRANCH  17  21
ENDBRANCH  12  15
ENDBRANCH   9  11
ENDBRANCH   7   9
ENDBRANCH   1   7
BRANCH   3  26
HETATM   26  C   UNL     1      27.196  43.449  52.545  1.00  0.00     0.183 A 
HETATM   27  O   UNL     1      28.335  42.709  52.728  1.00  0.00    -0.289 OA
HETATM   28  C   UNL     1      28.935  43.290  53.801  1.00  0.00     0.106 A 
HETATM   29  C   UNL     1      28.135  44.338  54.219  1.00  0.00     0.094 A 
HETATM   30  C   UNL     1      30.143  42.932  54.376  1.00  0.00     0.040 A 
HETATM   31  N   UNL     1      26.992  44.391  53.450  1.00  0.00    -0.221 NA
HETATM   32  C   UNL     1      28.587  45.145  55.273  1.00  0.00     0.041 A 
HETATM   33  C   UNL     1      29.843  44.866  55.862  1.00  0.00    -0.056 A 
HETATM   34  C   UNL     1      30.582  43.748  55.426  1.00  0.00     0.010 A 
BRANCH  33  35
HETATM   35  C   UNL     1      30.330  45.785  56.963  1.00  0.00     0.034 C 
HETATM   36  C   UNL     1      30.867  45.108  58.220  1.00  0.00     0.010 C 
ENDBRANCH  33  35
ENDBRANCH   3  26
BRANCH   4  37
HETATM   37  O   UNL     1      26.638  40.705  51.726  1.00  0.00    -0.360 OA
HETATM   38  H   UNL     1      26.395  40.831  52.667  1.00  0.00     0.217 HD
ENDBRANCH   4  37
TORSDOF 11
ENDMDL
MODEL 7
REMARK VINA RESULT:      -9.2      2.262     10.647
REMARK  11 active torsions:
REMARK  status: ('A' for Active; 'I' for Inactive)
REMARK    1  A    between atoms: C_2  and  C_3 
REMARK    2  A    between atoms: C_3  and  C_4 
REMARK    3  A    between atoms: C_4  and  O_5 
REMARK    4  A    between atoms: O_5  and  C_6 
REMARK    5  A    between atoms: C_8  and  C_9 
REMARK       I    between atoms: C_9  and  N_10 
REMARK    6  A    between atoms: N_10  and  C_11 
REMARK    7  A    between atoms: C_11  and  N_12 
REMARK    8  A    between atoms: N_12  and  C_13 
REMARK    9  A    between atoms: C_15  and  C_16 
REMARK   10  A    between atoms: C_23  and  C_24 
REMARK   11  A    between atoms: C_27  and  O_28 
ROOT
HETATM    1  C   UNL     1      25.338  47.567  50.210  1.00  0.00     0.035 A 
HETATM    2  C   UNL     1      24.047  48.032  49.952  1.00  0.00     0.048 A 
HETATM    3  C   UNL     1      23.809  49.092  49.064  1.00  0.00     0.052 A 
HETATM    4  C   UNL     1      24.903  49.683  48.427  1.00  0.00     0.080 A 
HETATM    5  C   UNL     1      26.190  49.172  48.611  1.00  0.00     0.040 A 
HETATM    6  C   UNL     1      26.405  48.101  49.487  1.00  0.00     0.032 A 
ENDROOT
BRANCH   1   7
HETATM    7  N   UNL     1      25.584  46.541  51.147  1.00  0.00    -0.333 N 
HETATM    8  H   UNL     1      25.610  46.813  52.130  1.00  0.00     0.168 HD
BRANCH   7   9
HETATM    9  C   UNL     1      25.572  45.182  50.933  1.00  0.00     0.179 C 
HETATM   10  S   UNL     1      24.644  44.302  49.850  1.00  0.00    -0.040 SA
BRANCH   9  11
HETATM   11  N   UNL     1      26.432  44.443  51.713  1.00  0.00    -0.299 N 
HETATM   12  C   UNL     1      26.538  44.380  53.094  1.00  0.00     0.257 C 
HETATM   13  O   UNL     1      25.622  44.610  53.871  1.00  0.00    -0.267 OA
HETATM   14  H   UNL     1      27.157  43.993  51.167  1.00  0.00     0.171 HD
BRANCH  12  15
HETATM   15  C   UNL     1      27.853  43.870  53.565  1.00  0.00     0.035 A 
HETATM   16  C   UNL     1      28.634  44.661  54.416  1.00  0.00     0.053 A 
HETATM   17  C   UNL     1      29.828  44.147  54.922  1.00  0.00     0.069 A 
HETATM   18  C   UNL     1      30.244  42.864  54.550  1.00  0.00     0.037 A 
HETATM   19  C   UNL     1      29.486  42.090  53.673  1.00  0.00     0.004 A 
HETATM   20  C   UNL     1      28.286  42.593  53.178  1.00  0.00     0.017 A 
BRANCH  17  21
HETATM   21  O   UNL     1      30.669  44.768  55.800  1.00  0.00    -0.351 OA
BRANCH  21  22
HETATM   22  C   UNL     1      31.254  43.979  56.835  1.00  0.00     0.175 C 
BRANCH  22  23
HETATM   23  C   UNL     1      31.047  44.703  58.165  1.00  0.00     0.026 C 
BRANCH  23  24
HETATM   24  C   UNL     1      30.446  46.100  57.984  1.00  0.00    -0.002 C 
HETATM   25  C   UNL     1      28.929  46.069  58.093  1.00  0.00     0.005 C 
ENDBRANCH  23  24
ENDBRANCH  22  23
ENDBRANCH  21  22
ENDBRANCH  17  21
ENDBRANCH  12  15
ENDBRANCH   9  11
ENDBRANCH   7   9
ENDBRANCH   1   7
BRANCH   3  26
HETATM   26  C   UNL     1      22.445  49.558  48.859  1.00  0.00     0.183 A 
HETATM   27  O   UNL     1      21.463  48.612  49.001  1.00  0.00    -0.289 OA
HETATM   28  C   UNL     1      20.308  49.314  48.851  1.00  0.00     0.106 A 
HETATM   29  C   UNL     1      20.642  50.636  48.619  1.00  0.00     0.094 A 
HETATM   30  C   UNL     1      19.017  48.821  48.937  1.00  0.00     0.040 A 
HETATM   31  N   UNL     1      22.012  50.771  48.560  1.00  0.00    -0.221 NA
HETATM   32  C   UNL     1      19.607  51.576  48.508  1.00  0.00     0.041 A 
HETATM   33  C   UNL     1      18.267  51.143  48.648  1.00  0.00    -0.056 A 
HETATM   34  C   UNL     1      17.995  49.773  48.827  1.00  0.00     0.010 A 
BRANCH  33  35
HETATM   35  C   UNL     1      17.173  52.189  48.577  1.00  0.00     0.034 C 
HETATM   36  C   UNL     1      16.897  52.967  49.860  1.00  0.00     0.010 C 
ENDBRANCH  33  35
ENDBRANCH   3  26
BRANCH   4  37
HETATM   37  O   UNL     1      24.782  50.765  47.597  1.00  0.00    -0.360 OA
HETATM   38  H   UNL     1      24.381  51.500  48.104  1.00  0.00     0.217 HD
ENDBRANCH   4  37
TORSDOF 11
ENDMDL
MODEL 8
REMARK VINA RESULT:      -9.2      2.194      9.519
REMARK  11 active torsions:
REMARK  status: ('A' for Active; 'I' for Inactive)
REMARK    1  A    between atoms: C_2  and  C_3 
REMARK    2  A    between atoms: C_3  and  C_4 
REMARK    3  A    between atoms: C_4  and  O_5 
REMARK    4  A    between atoms: O_5  and  C_6 
REMARK    5  A    between atoms: C_8  and  C_9 
REMARK       I    between atoms: C_9  and  N_10 
REMARK    6  A    between atoms: N_10  and  C_11 
REMARK    7  A    between atoms: C_11  and  N_12 
REMARK    8  A    between atoms: N_12  and  C_13 
REMARK    9  A    between atoms: C_15  and  C_16 
REMARK   10  A    between atoms: C_23  and  C_24 
REMARK   11  A    between atoms: C_27  and  O_28 
ROOT
HETATM    1  C   UNL     1      25.666  45.747  50.281  1.00  0.00     0.035 A 
HETATM    2  C   UNL     1      24.454  46.381  49.996  1.00  0.00     0.048 A 
HETATM    3  C   UNL     1      24.404  47.710  49.550  1.00  0.00     0.052 A 
HETATM    4  C   UNL     1      25.607  48.400  49.385  1.00  0.00     0.080 A 
HETATM    5  C   UNL     1      26.828  47.752  49.583  1.00  0.00     0.040 A 
HETATM    6  C   UNL     1      26.858  46.419  50.011  1.00  0.00     0.032 A 
ENDROOT
BRANCH   1   7
HETATM    7  N   UNL     1      25.715  44.431  50.787  1.00  0.00    -0.333 N 
HETATM    8  H   UNL     1      24.851  44.057  51.180  1.00  0.00     0.168 HD
BRANCH   7   9
HETATM    9  C   UNL     1      26.713  43.499  50.619  1.00  0.00     0.179 C 
HETATM   10  S   UNL     1      26.863  42.329  49.428  1.00  0.00    -0.040 SA
BRANCH   9  11
HETATM   11  N   UNL     1      27.724  43.526  51.553  1.00  0.00    -0.299 N 
HETATM   12  C   UNL     1      27.940  42.698  52.643  1.00  0.00     0.257 C 
HETATM   13  O   UNL     1      27.545  41.542  52.726  1.00  0.00    -0.267 OA
HETATM   14  H   UNL     1      28.299  44.356  51.474  1.00  0.00     0.171 HD
BRANCH  12  15
HETATM   15  C   UNL     1      28.823  43.297  53.677  1.00  0.00     0.035 A 
HETATM   16  C   UNL     1      28.527  44.568  54.186  1.00  0.00     0.053 A 
HETATM   17  C   UNL     1      29.310  45.092  55.214  1.00  0.00     0.069 A 
HETATM   18  C   UNL     1      30.396  44.358  55.703  1.00  0.00     0.037 A 
HETATM   19  C   UNL     1      30.714  43.109  55.173  1.00  0.00     0.004 A 
HETATM   20  C   UNL     1      29.927  42.575  54.157  1.00  0.00     0.017 A 
BRANCH  17  21
HETATM   21  O   UNL     1      29.118  46.286  55.849  1.00  0.00    -0.351 OA
BRANCH  21  22
HETATM   22  C   UNL     1      27.783  46.776  55.958  1.00  0.00     0.175 C 
BRANCH  22  23
HETATM   23  C   UNL     1      27.575  47.843  54.883  1.00  0.00     0.026 C 
BRANCH  23  24
HETATM   24  C   UNL     1      26.135  47.878  54.364  1.00  0.00    -0.002 C 
HETATM   25  C   UNL     1      25.697  46.515  53.850  1.00  0.00     0.005 C 
ENDBRANCH  23  24
ENDBRANCH  22  23
ENDBRANCH  21  22
ENDBRANCH  17  21
ENDBRANCH  12  15
ENDBRANCH   9  11
ENDBRANCH   7   9
ENDBRANCH   1   7
BRANCH   3  26
HETATM   26  C   UNL     1      23.111  48.330  49.301  1.00  0.00     0.183 A 
HETATM   27  O   UNL     1      22.984  49.632  49.711  1.00  0.00    -0.289 OA
HETATM   28  C   UNL     1      21.743  49.990  49.287  1.00  0.00     0.106 A 
HETATM   29  C   UNL     1      21.179  48.897  48.655  1.00  0.00     0.094 A 
HETATM   30  C   UNL     1      21.139  51.228  49.428  1.00  0.00     0.040 A 
HETATM   31  N   UNL     1      22.035  47.819  48.726  1.00  0.00    -0.221 NA
HETATM   32  C   UNL     1      19.918  49.047  48.060  1.00  0.00     0.041 A 
HETATM   33  C   UNL     1      19.276  50.307  48.117  1.00  0.00    -0.056 A 
HETATM   34  C   UNL     1      19.881  51.363  48.826  1.00  0.00     0.010 A 
BRANCH  33  35
HETATM   35  C   UNL     1      17.939  50.454  47.420  1.00  0.00     0.034 C 
HETATM   36  C   UNL     1      17.656  51.811  46.782  1.00  0.00     0.010 C 
ENDBRANCH  33  35
ENDBRANCH   3  26
BRANCH   4  37
HETATM   37  O   UNL     1      25.661  49.719  49.018  1.00  0.00    -0.360 OA
HETATM   38  H   UNL     1      24.961  50.203  49.503  1.00  0.00     0.217 HD
ENDBRANCH   4  37
TORSDOF 11
ENDMDL
MODEL 9
REMARK VINA RESULT:      -9.2      2.677      4.349
REMARK  11 active torsions:
REMARK  status: ('A' for Active; 'I' for Inactive)
REMARK    1  A    between atoms: C_2  and  C_3 
REMARK    2  A    between atoms: C_3  and  C_4 
REMARK    3  A    between atoms: C_4  and  O_5 
REMARK    4  A    between atoms: O_5  and  C_6 
REMARK    5  A    between atoms: C_8  and  C_9 
REMARK       I    between atoms: C_9  and  N_10 
REMARK    6  A    between atoms: N_10  and  C_11 
REMARK    7  A    between atoms: C_11  and  N_12 
REMARK    8  A    between atoms: N_12  and  C_13 
REMARK    9  A    between atoms: C_15  and  C_16 
REMARK   10  A    between atoms: C_23  and  C_24 
REMARK   11  A    between atoms: C_27  and  O_28 
ROOT
HETATM    1  C   UNL     1      24.857  45.021  49.517  1.00  0.00     0.035 A 
HETATM    2  C   UNL     1      25.738  44.637  50.531  1.00  0.00     0.048 A 
HETATM    3  C   UNL     1      26.098  45.512  51.567  1.00  0.00     0.052 A 
HETATM    4  C   UNL     1      25.546  46.796  51.572  1.00  0.00     0.080 A 
HETATM    5  C   UNL     1      24.599  47.163  50.614  1.00  0.00     0.040 A 
HETATM    6  C   UNL     1      24.239  46.269  49.598  1.00  0.00     0.032 A 
ENDROOT
BRANCH   1   7
HETATM    7  N   UNL     1      24.541  44.163  48.443  1.00  0.00    -0.333 N 
HETATM    8  H   UNL     1      25.271  44.010  47.746  1.00  0.00     0.168 HD
BRANCH   7   9
HETATM    9  C   UNL     1      23.457  43.324  48.324  1.00  0.00     0.179 C 
HETATM   10  S   UNL     1      23.425  41.648  48.325  1.00  0.00    -0.040 SA
BRANCH   9  11
HETATM   11  N   UNL     1      22.234  43.939  48.182  1.00  0.00    -0.299 N 
HETATM   12  C   UNL     1      21.851  44.951  47.315  1.00  0.00     0.257 C 
HETATM   13  O   UNL     1      22.378  45.176  46.234  1.00  0.00    -0.267 OA
HETATM   14  H   UNL     1      21.584  43.679  48.913  1.00  0.00     0.171 HD
BRANCH  12  15
HETATM   15  C   UNL     1      20.633  45.681  47.757  1.00  0.00     0.035 A 
HETATM   16  C   UNL     1      20.750  46.989  48.242  1.00  0.00     0.053 A 
HETATM   17  C   UNL     1      19.598  47.700  48.578  1.00  0.00     0.069 A 
HETATM   18  C   UNL     1      18.345  47.088  48.456  1.00  0.00     0.037 A 
HETATM   19  C   UNL     1      18.230  45.773  48.008  1.00  0.00     0.004 A 
HETATM   20  C   UNL     1      19.375  45.066  47.657  1.00  0.00     0.017 A 
BRANCH  17  21
HETATM   21  O   UNL     1      19.541  48.993  49.010  1.00  0.00    -0.351 OA
BRANCH  21  22
HETATM   22  C   UNL     1      19.979  50.015  48.116  1.00  0.00     0.175 C 
BRANCH  22  23
HETATM   23  C   UNL     1      20.758  51.055  48.920  1.00  0.00     0.026 C 
BRANCH  23  24
HETATM   24  C   UNL     1      22.243  50.706  49.046  1.00  0.00    -0.002 C 
HETATM   25  C   UNL     1      22.801  50.172  47.736  1.00  0.00     0.005 C 
ENDBRANCH  23  24
ENDBRANCH  22  23
ENDBRANCH  21  22
ENDBRANCH  17  21
ENDBRANCH  12  15
ENDBRANCH   9  11
ENDBRANCH   7   9
ENDBRANCH   1   7
BRANCH   3  26
HETATM   26  C   UNL     1      27.046  45.069  52.577  1.00  0.00     0.183 A 
HETATM   27  O   UNL     1      27.879  44.046  52.207  1.00  0.00    -0.289 OA
HETATM   28  C   UNL     1      28.706  43.893  53.276  1.00  0.00     0.106 A 
HETATM   29  C   UNL     1      28.332  44.815  54.237  1.00  0.00     0.094 A 
HETATM   30  C   UNL     1      29.757  42.999  53.395  1.00  0.00     0.040 A 
HETATM   31  N   UNL     1      27.228  45.519  53.807  1.00  0.00    -0.221 NA
HETATM   32  C   UNL     1      29.094  44.902  55.411  1.00  0.00     0.041 A 
HETATM   33  C   UNL     1      30.219  44.057  55.565  1.00  0.00    -0.056 A 
HETATM   34  C   UNL     1      30.509  43.100  54.573  1.00  0.00     0.010 A 
BRANCH  33  35
HETATM   35  C   UNL     1      31.054  44.210  56.819  1.00  0.00     0.034 C 
HETATM   36  C   UNL     1      32.040  43.084  57.115  1.00  0.00     0.010 C 
ENDBRANCH  33  35
ENDBRANCH   3  26
BRANCH   4  37
HETATM   37  O   UNL     1      25.885  47.744  52.500  1.00  0.00    -0.360 OA
HETATM   38  H   UNL     1      25.416  47.540  53.335  1.00  0.00     0.217 HD
ENDBRANCH   4  37
TORSDOF 11
ENDMDL
MODEL 10
REMARK VINA RESULT:      -8.8      2.533      3.886
REMARK  11 active torsions:
REMARK  status: ('A' for Active; 'I' for Inactive)
REMARK    1  A    between atoms: C_2  and  C_3 
REMARK    2  A    between atoms: C_3  and  C_4 
REMARK    3  A    between atoms: C_4  and  O_5 
REMARK    4  A    between atoms: O_5  and  C_6 
REMARK    5  A    between atoms: C_8  and  C_9 
REMARK       I    between atoms: C_9  and  N_10 
REMARK    6  A    between atoms: N_10  and  C_11 
REMARK    7  A    between atoms: C_11  and  N_12 
REMARK    8  A    between atoms: N_12  and  C_13 
REMARK    9  A    between atoms: C_15  and  C_16 
REMARK   10  A    between atoms: C_23  and  C_24 
REMARK   11  A    between atoms: C_27  and  O_28 
ROOT
HETATM    1  C   UNL     1      23.307  44.272  49.962  1.00  0.00     0.035 A 
HETATM    2  C   UNL     1      24.297  44.704  50.847  1.00  0.00     0.048 A 
HETATM    3  C   UNL     1      25.287  43.835  51.329  1.00  0.00     0.052 A 
HETATM    4  C   UNL     1      25.271  42.506  50.896  1.00  0.00     0.080 A 
HETATM    5  C   UNL     1      24.340  42.083  49.945  1.00  0.00     0.040 A 
HETATM    6  C   UNL     1      23.370  42.970  49.463  1.00  0.00     0.032 A 
ENDROOT
BRANCH   1   7
HETATM    7  N   UNL     1      22.276  45.129  49.524  1.00  0.00    -0.333 N 
HETATM    8  H   UNL     1      21.683  45.541  50.245  1.00  0.00     0.168 HD
BRANCH   7   9
HETATM    9  C   UNL     1      22.100  45.666  48.269  1.00  0.00     0.179 C 
HETATM   10  S   UNL     1      22.185  44.899  46.782  1.00  0.00    -0.040 SA
BRANCH   9  11
HETATM   11  N   UNL     1      21.821  47.013  48.225  1.00  0.00    -0.299 N 
HETATM   12  C   UNL     1      22.285  48.037  49.035  1.00  0.00     0.257 C 
HETATM   13  O   UNL     1      23.350  48.016  49.639  1.00  0.00    -0.267 OA
HETATM   14  H   UNL     1      21.070  47.230  47.581  1.00  0.00     0.171 HD
BRANCH  12  15
HETATM   15  C   UNL     1      21.426  49.250  49.010  1.00  0.00     0.035 A 
HETATM   16  C   UNL     1      20.156  49.209  49.598  1.00  0.00     0.053 A 
HETATM   17  C   UNL     1      19.386  50.371  49.645  1.00  0.00     0.069 A 
HETATM   18  C   UNL     1      19.877  51.552  49.079  1.00  0.00     0.037 A 
HETATM   19  C   UNL     1      21.126  51.586  48.460  1.00  0.00     0.004 A 
HETATM   20  C   UNL     1      21.904  50.433  48.424  1.00  0.00     0.017 A 
BRANCH  17  21
HETATM   21  O   UNL     1      18.159  50.506  50.229  1.00  0.00    -0.351 OA
BRANCH  21  22
HETATM   22  C   UNL     1      17.088  50.995  49.423  1.00  0.00     0.175 C 
BRANCH  22  23
HETATM   23  C   UNL     1      16.666  52.361  49.963  1.00  0.00     0.026 C 
BRANCH  23  24
HETATM   24  C   UNL     1      15.149  52.564  49.920  1.00  0.00    -0.002 C 
HETATM   25  C   UNL     1      14.752  53.549  48.831  1.00  0.00     0.005 C 
ENDBRANCH  23  24
ENDBRANCH  22  23
ENDBRANCH  21  22
ENDBRANCH  17  21
ENDBRANCH  12  15
ENDBRANCH   9  11
ENDBRANCH   7   9
ENDBRANCH   1   7
BRANCH   3  26
HETATM   26  C   UNL     1      26.274  44.332  52.276  1.00  0.00     0.183 A 
HETATM   27  O   UNL     1      26.023  45.572  52.804  1.00  0.00    -0.289 OA
HETATM   28  C   UNL     1      27.024  45.753  53.705  1.00  0.00     0.106 A 
HETATM   29  C   UNL     1      27.831  44.629  53.676  1.00  0.00     0.094 A 
HETATM   30  C   UNL     1      27.211  46.845  54.536  1.00  0.00     0.040 A 
HETATM   31  N   UNL     1      27.380  43.754  52.711  1.00  0.00    -0.221 NA
HETATM   32  C   UNL     1      28.898  44.548  54.582  1.00  0.00     0.041 A 
HETATM   33  C   UNL     1      29.102  45.607  55.499  1.00  0.00    -0.056 A 
HETATM   34  C   UNL     1      28.279  46.748  55.438  1.00  0.00     0.010 A 
BRANCH  33  35
HETATM   35  C   UNL     1      30.229  45.468  56.502  1.00  0.00     0.034 C 
HETATM   36  C   UNL     1      29.940  45.964  57.916  1.00  0.00     0.010 C 
ENDBRANCH  33  35
ENDBRANCH   3  26
BRANCH   4  37
HETATM   37  O   UNL     1      26.152  41.566  51.358  1.00  0.00    -0.360 OA
HETATM   38  H   UNL     1      26.436  41.825  52.259  1.00  0.00     0.217 HD
ENDBRANCH   4  37
TORSDOF 11
ENDMDL
