MODEL 1
REMARK VINA RESULT:      -7.6      0.000      0.000
REMARK  7 active torsions:
REMARK  status: ('A' for Active; 'I' for Inactive)
REMARK    1  A    between atoms: C_4  and  C_5 
REMARK    2  A    between atoms: C_5  and  N_6 
REMARK       I    between atoms: N_6  and  C_7 
REMARK    3  A    between atoms: C_7  and  C_8 
REMARK    4  A    between atoms: C_8  and  C_9 
REMARK    5  A    between atoms: C_9  and  N_10 
REMARK    6  A    between atoms: N_10  and  C_11 
REMARK    7  A    between atoms: C_13  and  N_14 
ROOT
HETATM    1  N   UNL     1      34.329  52.691  40.230  1.00  0.00    -0.262 NA
HETATM    2  H   UNL     1      34.264  53.127  41.157  1.00  0.00     0.130 HD
ENDROOT
BRANCH   1   3
HETATM    3  C   UNL     1      35.139  51.468  40.295  1.00  0.00     0.104 C 
BRANCH   3   4
HETATM    4  C   UNL     1      35.449  51.129  41.751  1.00  0.00     0.117 C 
BRANCH   4   5
HETATM    5  C   UNL     1      34.169  51.054  42.555  1.00  0.00     0.219 C 
HETATM    6  N   UNL     1      33.437  49.921  42.301  1.00  0.00    -0.357 N 
HETATM    7  H   UNL     1      33.710  49.309  41.544  1.00  0.00     0.162 HD
HETATM    8  O   UNL     1      33.840  51.935  43.343  1.00  0.00    -0.274 OA
BRANCH   6   9
HETATM    9  C   UNL     1      32.122  49.706  42.869  1.00  0.00     0.161 C 
BRANCH   9  10
HETATM   10  C   UNL     1      31.171  49.170  41.830  1.00  0.00    -0.041 A 
HETATM   11  C   UNL     1      29.806  49.021  42.119  1.00  0.00     0.009 A 
HETATM   12  C   UNL     1      28.928  48.522  41.156  1.00  0.00     0.001 A 
HETATM   13  C   UNL     1      29.402  48.168  39.895  1.00  0.00     0.000 A 
HETATM   14  C   UNL     1      30.757  48.308  39.597  1.00  0.00     0.001 A 
HETATM   15  C   UNL     1      31.638  48.800  40.561  1.00  0.00     0.009 A 
ENDBRANCH   9  10
ENDBRANCH   6   9
ENDBRANCH   4   5
ENDBRANCH   3   4
ENDBRANCH   1   3
BRANCH   1  16
HETATM   16  C   UNL     1      33.008  52.492  39.849  1.00  0.00     0.181 A 
HETATM   17  N   UNL     1      32.781  52.035  38.611  1.00  0.00    -0.207 NA
HETATM   18  C   UNL     1      31.504  51.785  38.281  1.00  0.00     0.116 A 
HETATM   19  C   UNL     1      30.432  51.992  39.166  1.00  0.00     0.031 A 
HETATM   20  C   UNL     1      30.763  52.454  40.454  1.00  0.00     0.048 A 
HETATM   21  C   UNL     1      29.068  51.776  38.863  1.00  0.00     0.017 A 
HETATM   22  N   UNL     1      32.048  52.680  40.750  1.00  0.00    -0.330 N 
HETATM   23  C   UNL     1      29.766  52.673  41.415  1.00  0.00     0.030 A 
HETATM   24  H   UNL     1      32.332  52.963  41.678  1.00  0.00     0.168 HD
HETATM   25  C   UNL     1      28.427  52.444  41.097  1.00  0.00     0.002 A 
HETATM   26  C   UNL     1      28.080  52.000  39.824  1.00  0.00     0.001 A 
BRANCH  18  27
HETATM   27  N   UNL     1      31.300  51.357  36.973  1.00  0.00    -0.286 NA
HETATM   28  H   UNL     1      30.616  51.951  36.509  1.00  0.00     0.125 HD
HETATM   29  H   UNL     1      32.151  51.282  36.424  1.00  0.00     0.125 HD
ENDBRANCH  18  27
ENDBRANCH   1  16
TORSDOF 7
ENDMDL
MODEL 2
REMARK VINA RESULT:      -7.5     12.594     15.424
REMARK  7 active torsions:
REMARK  status: ('A' for Active; 'I' for Inactive)
REMARK    1  A    between atoms: C_4  and  C_5 
REMARK    2  A    between atoms: C_5  and  N_6 
REMARK       I    between atoms: N_6  and  C_7 
REMARK    3  A    between atoms: C_7  and  C_8 
REMARK    4  A    between atoms: C_8  and  C_9 
REMARK    5  A    between atoms: C_9  and  N_10 
REMARK    6  A    between atoms: N_10  and  C_11 
REMARK    7  A    between atoms: C_13  and  N_14 
ROOT
HETATM    1  N   UNL     1      27.110  46.295  53.797  1.00  0.00    -0.262 NA
HETATM    2  H   UNL     1      27.336  46.269  52.796  1.00  0.00     0.130 HD
ENDROOT
BRANCH   1   3
HETATM    3  C   UNL     1      25.737  45.826  54.025  1.00  0.00     0.104 C 
BRANCH   3   4
HETATM    4  C   UNL     1      25.458  44.602  53.157  1.00  0.00     0.117 C 
BRANCH   4   5
HETATM    5  C   UNL     1      24.711  45.008  51.904  1.00  0.00     0.219 C 
HETATM    6  N   UNL     1      25.095  46.233  51.420  1.00  0.00    -0.357 N 
HETATM    7  H   UNL     1      25.717  46.814  51.966  1.00  0.00     0.162 HD
HETATM    8  O   UNL     1      23.849  44.297  51.399  1.00  0.00    -0.274 OA
BRANCH   6   9
HETATM    9  C   UNL     1      24.425  46.868  50.303  1.00  0.00     0.161 C 
BRANCH   9  10
HETATM   10  C   UNL     1      25.305  47.920  49.680  1.00  0.00    -0.041 A 
HETATM   11  C   UNL     1      24.746  48.966  48.929  1.00  0.00     0.009 A 
HETATM   12  C   UNL     1      25.562  49.939  48.350  1.00  0.00     0.001 A 
HETATM   13  C   UNL     1      26.944  49.879  48.515  1.00  0.00     0.000 A 
HETATM   14  C   UNL     1      27.512  48.842  49.255  1.00  0.00     0.001 A 
HETATM   15  C   UNL     1      26.698  47.865  49.828  1.00  0.00     0.009 A 
ENDBRANCH   9  10
ENDBRANCH   6   9
ENDBRANCH   4   5
ENDBRANCH   3   4
ENDBRANCH   1   3
BRANCH   1  16
HETATM   16  C   UNL     1      28.095  45.518  54.393  1.00  0.00     0.181 A 
HETATM   17  N   UNL     1      28.575  44.481  53.694  1.00  0.00    -0.207 NA
HETATM   18  C   UNL     1      29.574  43.780  54.257  1.00  0.00     0.116 A 
HETATM   19  C   UNL     1      30.105  44.089  55.521  1.00  0.00     0.031 A 
HETATM   20  C   UNL     1      29.556  45.208  56.175  1.00  0.00     0.048 A 
HETATM   21  C   UNL     1      31.132  43.369  56.174  1.00  0.00     0.017 A 
HETATM   22  N   UNL     1      28.572  45.888  55.578  1.00  0.00    -0.330 N 
HETATM   23  C   UNL     1      30.031  45.608  57.432  1.00  0.00     0.030 A 
HETATM   24  H   UNL     1      28.185  46.727  55.991  1.00  0.00     0.168 HD
HETATM   25  C   UNL     1      31.052  44.889  58.054  1.00  0.00     0.002 A 
HETATM   26  C   UNL     1      31.598  43.772  57.428  1.00  0.00     0.001 A 
BRANCH  18  27
HETATM   27  N   UNL     1      30.015  42.682  53.527  1.00  0.00    -0.286 NA
HETATM   28  H   UNL     1      30.511  42.031  54.131  1.00  0.00     0.125 HD
HETATM   29  H   UNL     1      29.283  42.211  53.004  1.00  0.00     0.125 HD
ENDBRANCH  18  27
ENDBRANCH   1  16
TORSDOF 7
ENDMDL
MODEL 3
REMARK VINA RESULT:      -7.4      3.105      5.312
REMARK  7 active torsions:
REMARK  status: ('A' for Active; 'I' for Inactive)
REMARK    1  A    between atoms: C_4  and  C_5 
REMARK    2  A    between atoms: C_5  and  N_6 
REMARK       I    between atoms: N_6  and  C_7 
REMARK    3  A    between atoms: C_7  and  C_8 
REMARK    4  A    between atoms: C_8  and  C_9 
REMARK    5  A    between atoms: C_9  and  N_10 
REMARK    6  A    between atoms: N_10  and  C_11 
REMARK    7  A    between atoms: C_13  and  N_14 
ROOT
HETATM    1  N   UNL     1      26.484  50.877  37.939  1.00  0.00    -0.262 NA
HETATM    2  H   UNL     1      26.674  50.813  36.933  1.00  0.00     0.130 HD
ENDROOT
BRANCH   1   3
HETATM    3  C   UNL     1      25.885  49.629  38.429  1.00  0.00     0.104 C 
BRANCH   3   4
HETATM    4  C   UNL     1      26.195  48.491  37.460  1.00  0.00     0.117 C 
BRANCH   4   5
HETATM    5  C   UNL     1      27.277  47.598  38.028  1.00  0.00     0.219 C 
HETATM    6  N   UNL     1      28.465  48.253  38.233  1.00  0.00    -0.357 N 
HETATM    7  H   UNL     1      28.581  49.198  37.890  1.00  0.00     0.162 HD
HETATM    8  O   UNL     1      27.086  46.410  38.265  1.00  0.00    -0.274 OA
BRANCH   6   9
HETATM    9  C   UNL     1      29.667  47.563  38.654  1.00  0.00     0.161 C 
BRANCH   9  10
HETATM   10  C   UNL     1      30.141  48.077  39.989  1.00  0.00    -0.041 A 
HETATM   11  C   UNL     1      31.499  48.355  40.207  1.00  0.00     0.009 A 
HETATM   12  C   UNL     1      31.935  48.828  41.445  1.00  0.00     0.001 A 
HETATM   13  C   UNL     1      31.022  49.031  42.477  1.00  0.00     0.000 A 
HETATM   14  C   UNL     1      29.671  48.754  42.274  1.00  0.00     0.001 A 
HETATM   15  C   UNL     1      29.233  48.273  41.039  1.00  0.00     0.009 A 
ENDBRANCH   9  10
ENDBRANCH   6   9
ENDBRANCH   4   5
ENDBRANCH   3   4
ENDBRANCH   1   3
BRANCH   1  16
HETATM   16  C   UNL     1      27.715  51.189  38.502  1.00  0.00     0.181 A 
HETATM   17  N   UNL     1      28.787  51.174  37.699  1.00  0.00    -0.207 NA
HETATM   18  C   UNL     1      29.958  51.544  38.243  1.00  0.00     0.116 A 
HETATM   19  C   UNL     1      30.088  51.924  39.590  1.00  0.00     0.031 A 
HETATM   20  C   UNL     1      28.907  51.932  40.355  1.00  0.00     0.048 A 
HETATM   21  C   UNL     1      31.298  52.291  40.222  1.00  0.00     0.017 A 
HETATM   22  N   UNL     1      27.758  51.570  39.775  1.00  0.00    -0.330 N 
HETATM   23  C   UNL     1      28.930  52.314  41.704  1.00  0.00     0.030 A 
HETATM   24  H   UNL     1      26.879  51.610  40.276  1.00  0.00     0.168 HD
HETATM   25  C   UNL     1      30.134  52.682  42.305  1.00  0.00     0.002 A 
HETATM   26  C   UNL     1      31.314  52.667  41.567  1.00  0.00     0.001 A 
BRANCH  18  27
HETATM   27  N   UNL     1      31.058  51.470  37.394  1.00  0.00    -0.286 NA
HETATM   28  H   UNL     1      31.607  50.637  37.598  1.00  0.00     0.125 HD
HETATM   29  H   UNL     1      30.824  51.522  36.407  1.00  0.00     0.125 HD
ENDBRANCH  18  27
ENDBRANCH   1  16
TORSDOF 7
ENDMDL
MODEL 4
REMARK VINA RESULT:      -7.3      1.084      1.600
REMARK  7 active torsions:
REMARK  status: ('A' for Active; 'I' for Inactive)
REMARK    1  A    between atoms: C_4  and  C_5 
REMARK    2  A    between atoms: C_5  and  N_6 
REMARK       I    between atoms: N_6  and  C_7 
REMARK    3  A    between atoms: C_7  and  C_8 
REMARK    4  A    between atoms: C_8  and  C_9 
REMARK    5  A    between atoms: C_9  and  N_10 
REMARK    6  A    between atoms: N_10  and  C_11 
REMARK    7  A    between atoms: C_13  and  N_14 
ROOT
HETATM    1  N   UNL     1      33.139  52.558  40.849  1.00  0.00    -0.262 NA
HETATM    2  H   UNL     1      32.836  52.886  41.772  1.00  0.00     0.130 HD
ENDROOT
BRANCH   1   3
HETATM    3  C   UNL     1      34.092  51.449  40.986  1.00  0.00     0.104 C 
BRANCH   3   4
HETATM    4  C   UNL     1      34.172  51.014  42.447  1.00  0.00     0.117 C 
BRANCH   4   5
HETATM    5  C   UNL     1      32.823  50.519  42.921  1.00  0.00     0.219 C 
HETATM    6  N   UNL     1      32.496  49.283  42.422  1.00  0.00    -0.357 N 
HETATM    7  H   UNL     1      33.076  48.862  41.708  1.00  0.00     0.162 HD
HETATM    8  O   UNL     1      32.111  51.179  43.671  1.00  0.00    -0.274 OA
BRANCH   6   9
HETATM    9  C   UNL     1      31.200  48.676  42.649  1.00  0.00     0.161 C 
BRANCH   9  10
HETATM   10  C   UNL     1      30.552  48.295  41.343  1.00  0.00    -0.041 A 
HETATM   11  C   UNL     1      31.295  48.284  40.152  1.00  0.00     0.009 A 
HETATM   12  C   UNL     1      30.692  47.934  38.943  1.00  0.00     0.001 A 
HETATM   13  C   UNL     1      29.343  47.590  38.910  1.00  0.00     0.000 A 
HETATM   14  C   UNL     1      28.593  47.601  40.085  1.00  0.00     0.001 A 
HETATM   15  C   UNL     1      29.192  47.958  41.294  1.00  0.00     0.009 A 
ENDBRANCH   9  10
ENDBRANCH   6   9
ENDBRANCH   4   5
ENDBRANCH   3   4
ENDBRANCH   1   3
BRANCH   1  16
HETATM   16  C   UNL     1      31.958  52.230  40.195  1.00  0.00     0.181 A 
HETATM   17  N   UNL     1      32.017  52.029  38.872  1.00  0.00    -0.207 NA
HETATM   18  C   UNL     1      30.881  51.647  38.265  1.00  0.00     0.116 A 
HETATM   19  C   UNL     1      29.670  51.467  38.955  1.00  0.00     0.031 A 
HETATM   20  C   UNL     1      29.704  51.679  40.346  1.00  0.00     0.048 A 
HETATM   21  C   UNL     1      28.439  51.098  38.365  1.00  0.00     0.017 A 
HETATM   22  N   UNL     1      30.857  52.046  40.917  1.00  0.00    -0.330 N 
HETATM   23  C   UNL     1      28.552  51.507  41.126  1.00  0.00     0.030 A 
HETATM   24  H   UNL     1      30.936  52.159  41.919  1.00  0.00     0.168 HD
HETATM   25  C   UNL     1      27.351  51.132  40.524  1.00  0.00     0.002 A 
HETATM   26  C   UNL     1      27.295  50.932  39.147  1.00  0.00     0.001 A 
BRANCH  18  27
HETATM   27  N   UNL     1      30.966  51.495  36.885  1.00  0.00    -0.286 NA
HETATM   28  H   UNL     1      30.403  52.201  36.416  1.00  0.00     0.125 HD
HETATM   29  H   UNL     1      31.916  51.487  36.527  1.00  0.00     0.125 HD
ENDBRANCH  18  27
ENDBRANCH   1  16
TORSDOF 7
ENDMDL
MODEL 5
REMARK VINA RESULT:      -7.3     12.260     14.376
REMARK  7 active torsions:
REMARK  status: ('A' for Active; 'I' for Inactive)
REMARK    1  A    between atoms: C_4  and  C_5 
REMARK    2  A    between atoms: C_5  and  N_6 
REMARK       I    between atoms: N_6  and  C_7 
REMARK    3  A    between atoms: C_7  and  C_8 
REMARK    4  A    between atoms: C_8  and  C_9 
REMARK    5  A    between atoms: C_9  and  N_10 
REMARK    6  A    between atoms: N_10  and  C_11 
REMARK    7  A    between atoms: C_13  and  N_14 
ROOT
HETATM    1  N   UNL     1      25.534  44.560  51.081  1.00  0.00    -0.262 NA
HETATM    2  H   UNL     1      25.876  43.933  50.345  1.00  0.00     0.130 HD
ENDROOT
BRANCH   1   3
HETATM    3  C   UNL     1      26.473  44.586  52.210  1.00  0.00     0.104 C 
BRANCH   3   4
HETATM    4  C   UNL     1      25.715  44.856  53.507  1.00  0.00     0.117 C 
BRANCH   4   5
HETATM    5  C   UNL     1      26.438  45.901  54.330  1.00  0.00     0.219 C 
HETATM    6  N   UNL     1      27.760  45.600  54.542  1.00  0.00    -0.357 N 
HETATM    7  H   UNL     1      28.117  44.694  54.269  1.00  0.00     0.162 HD
HETATM    8  O   UNL     1      25.873  46.902  54.757  1.00  0.00    -0.274 OA
BRANCH   6   9
HETATM    9  C   UNL     1      28.606  46.399  55.405  1.00  0.00     0.161 C 
BRANCH   9  10
HETATM   10  C   UNL     1      29.587  45.529  56.148  1.00  0.00    -0.041 A 
HETATM   11  C   UNL     1      29.942  45.822  57.474  1.00  0.00     0.009 A 
HETATM   12  C   UNL     1      30.852  45.016  58.159  1.00  0.00     0.001 A 
HETATM   13  C   UNL     1      31.416  43.909  57.529  1.00  0.00     0.000 A 
HETATM   14  C   UNL     1      31.075  43.610  56.211  1.00  0.00     0.001 A 
HETATM   15  C   UNL     1      30.171  44.419  55.522  1.00  0.00     0.009 A 
ENDBRANCH   9  10
ENDBRANCH   6   9
ENDBRANCH   4   5
ENDBRANCH   3   4
ENDBRANCH   1   3
BRANCH   1  16
HETATM   16  C   UNL     1      25.361  45.781  50.442  1.00  0.00     0.181 A 
HETATM   17  N   UNL     1      24.106  46.193  50.220  1.00  0.00    -0.207 NA
HETATM   18  C   UNL     1      23.956  47.406  49.662  1.00  0.00     0.116 A 
HETATM   19  C   UNL     1      25.043  48.223  49.307  1.00  0.00     0.031 A 
HETATM   20  C   UNL     1      26.325  47.720  49.596  1.00  0.00     0.048 A 
HETATM   21  C   UNL     1      24.945  49.491  48.689  1.00  0.00     0.017 A 
HETATM   22  N   UNL     1      26.435  46.514  50.163  1.00  0.00    -0.330 N 
HETATM   23  C   UNL     1      27.473  48.468  49.296  1.00  0.00     0.030 A 
HETATM   24  H   UNL     1      27.335  46.138  50.433  1.00  0.00     0.168 HD
HETATM   25  C   UNL     1      27.352  49.721  48.696  1.00  0.00     0.002 A 
HETATM   26  C   UNL     1      26.092  50.229  48.391  1.00  0.00     0.001 A 
BRANCH  18  27
HETATM   27  N   UNL     1      22.643  47.782  49.401  1.00  0.00    -0.286 NA
HETATM   28  H   UNL     1      22.276  48.342  50.167  1.00  0.00     0.125 HD
HETATM   29  H   UNL     1      22.515  48.252  48.510  1.00  0.00     0.125 HD
ENDBRANCH  18  27
ENDBRANCH   1  16
TORSDOF 7
ENDMDL
MODEL 6
REMARK VINA RESULT:      -7.2     11.696     14.569
REMARK  7 active torsions:
REMARK  status: ('A' for Active; 'I' for Inactive)
REMARK    1  A    between atoms: C_4  and  C_5 
REMARK    2  A    between atoms: C_5  and  N_6 
REMARK       I    between atoms: N_6  and  C_7 
REMARK    3  A    between atoms: C_7  and  C_8 
REMARK    4  A    between atoms: C_8  and  C_9 
REMARK    5  A    between atoms: C_9  and  N_10 
REMARK    6  A    between atoms: N_10  and  C_11 
REMARK    7  A    between atoms: C_13  and  N_14 
ROOT
HETATM    1  N   UNL     1      26.211  44.804  52.024  1.00  0.00    -0.262 NA
HETATM    2  H   UNL     1      26.581  45.567  51.448  1.00  0.00     0.130 HD
ENDROOT
BRANCH   1   3
HETATM    3  C   UNL     1      25.608  43.767  51.175  1.00  0.00     0.104 C 
BRANCH   3   4
HETATM    4  C   UNL     1      25.595  44.232  49.722  1.00  0.00     0.117 C 
BRANCH   4   5
HETATM    5  C   UNL     1      26.198  45.616  49.608  1.00  0.00     0.219 C 
HETATM    6  N   UNL     1      25.284  46.620  49.803  1.00  0.00    -0.357 N 
HETATM    7  H   UNL     1      24.300  46.395  49.873  1.00  0.00     0.162 HD
HETATM    8  O   UNL     1      27.386  45.792  49.359  1.00  0.00    -0.274 OA
BRANCH   6   9
HETATM    9  C   UNL     1      25.619  48.018  49.618  1.00  0.00     0.161 C 
BRANCH   9  10
HETATM   10  C   UNL     1      24.468  48.767  48.997  1.00  0.00    -0.041 A 
HETATM   11  C   UNL     1      24.672  50.017  48.393  1.00  0.00     0.009 A 
HETATM   12  C   UNL     1      23.605  50.710  47.820  1.00  0.00     0.001 A 
HETATM   13  C   UNL     1      22.324  50.163  47.843  1.00  0.00     0.000 A 
HETATM   14  C   UNL     1      22.108  48.923  48.443  1.00  0.00     0.001 A 
HETATM   15  C   UNL     1      23.173  48.232  49.023  1.00  0.00     0.009 A 
ENDBRANCH   9  10
ENDBRANCH   6   9
ENDBRANCH   4   5
ENDBRANCH   3   4
ENDBRANCH   1   3
BRANCH   1  16
HETATM   16  C   UNL     1      27.300  44.378  52.774  1.00  0.00     0.181 A 
HETATM   17  N   UNL     1      27.959  43.292  52.349  1.00  0.00    -0.207 NA
HETATM   18  C   UNL     1      29.049  42.932  53.047  1.00  0.00     0.116 A 
HETATM   19  C   UNL     1      29.497  43.635  54.179  1.00  0.00     0.031 A 
HETATM   20  C   UNL     1      28.756  44.776  54.541  1.00  0.00     0.048 A 
HETATM   21  C   UNL     1      30.616  43.284  54.969  1.00  0.00     0.017 A 
HETATM   22  N   UNL     1      27.684  45.110  53.815  1.00  0.00    -0.330 N 
HETATM   23  C   UNL     1      29.134  45.554  55.644  1.00  0.00     0.030 A 
HETATM   24  H   UNL     1      27.156  45.950  54.011  1.00  0.00     0.168 HD
HETATM   25  C   UNL     1      30.248  45.196  56.404  1.00  0.00     0.002 A 
HETATM   26  C   UNL     1      30.984  44.063  56.068  1.00  0.00     0.001 A 
BRANCH  18  27
HETATM   27  N   UNL     1      29.680  41.773  52.609  1.00  0.00    -0.286 NA
HETATM   28  H   UNL     1      30.682  41.829  52.781  1.00  0.00     0.125 HD
HETATM   29  H   UNL     1      29.290  40.918  52.993  1.00  0.00     0.125 HD
ENDBRANCH  18  27
ENDBRANCH   1  16
TORSDOF 7
ENDMDL
MODEL 7
REMARK VINA RESULT:      -7.2     11.626     13.572
REMARK  7 active torsions:
REMARK  status: ('A' for Active; 'I' for Inactive)
REMARK    1  A    between atoms: C_4  and  C_5 
REMARK    2  A    between atoms: C_5  and  N_6 
REMARK       I    between atoms: N_6  and  C_7 
REMARK    3  A    between atoms: C_7  and  C_8 
REMARK    4  A    between atoms: C_8  and  C_9 
REMARK    5  A    between atoms: C_9  and  N_10 
REMARK    6  A    between atoms: N_10  and  C_11 
REMARK    7  A    between atoms: C_13  and  N_14 
ROOT
HETATM    1  N   UNL     1      25.616  46.211  50.566  1.00  0.00    -0.262 NA
HETATM    2  H   UNL     1      24.867  45.956  51.219  1.00  0.00     0.130 HD
ENDROOT
BRANCH   1   3
HETATM    3  C   UNL     1      25.909  45.092  49.661  1.00  0.00     0.104 C 
BRANCH   3   4
HETATM    4  C   UNL     1      26.463  43.914  50.457  1.00  0.00     0.117 C 
BRANCH   4   5
HETATM    5  C   UNL     1      26.103  44.055  51.921  1.00  0.00     0.219 C 
HETATM    6  N   UNL     1      27.186  44.328  52.718  1.00  0.00    -0.357 N 
HETATM    7  H   UNL     1      28.118  44.289  52.327  1.00  0.00     0.162 HD
HETATM    8  O   UNL     1      24.953  43.926  52.326  1.00  0.00    -0.274 OA
BRANCH   6   9
HETATM    9  C   UNL     1      27.089  44.381  54.163  1.00  0.00     0.161 C 
BRANCH   9  10
HETATM   10  C   UNL     1      28.458  44.380  54.792  1.00  0.00    -0.041 A 
HETATM   11  C   UNL     1      28.890  45.467  55.567  1.00  0.00     0.009 A 
HETATM   12  C   UNL     1      30.159  45.465  56.146  1.00  0.00     0.001 A 
HETATM   13  C   UNL     1      31.010  44.377  55.960  1.00  0.00     0.000 A 
HETATM   14  C   UNL     1      30.594  43.293  55.189  1.00  0.00     0.001 A 
HETATM   15  C   UNL     1      29.327  43.297  54.603  1.00  0.00     0.009 A 
ENDBRANCH   9  10
ENDBRANCH   6   9
ENDBRANCH   4   5
ENDBRANCH   3   4
ENDBRANCH   1   3
BRANCH   1  16
HETATM   16  C   UNL     1      25.149  47.358  49.938  1.00  0.00     0.181 A 
HETATM   17  N   UNL     1      26.051  48.148  49.339  1.00  0.00    -0.207 NA
HETATM   18  C   UNL     1      25.577  49.217  48.679  1.00  0.00     0.116 A 
HETATM   19  C   UNL     1      24.208  49.527  48.610  1.00  0.00     0.031 A 
HETATM   20  C   UNL     1      23.330  48.631  49.250  1.00  0.00     0.048 A 
HETATM   21  C   UNL     1      23.656  50.654  47.958  1.00  0.00     0.017 A 
HETATM   22  N   UNL     1      23.838  47.570  49.886  1.00  0.00    -0.330 N 
HETATM   23  C   UNL     1      21.944  48.843  49.221  1.00  0.00     0.030 A 
HETATM   24  H   UNL     1      23.239  46.877  50.315  1.00  0.00     0.168 HD
HETATM   25  C   UNL     1      21.421  49.957  48.564  1.00  0.00     0.002 A 
HETATM   26  C   UNL     1      22.275  50.860  47.937  1.00  0.00     0.001 A 
BRANCH  18  27
HETATM   27  N   UNL     1      26.542  50.041  48.111  1.00  0.00    -0.286 NA
HETATM   28  H   UNL     1      26.215  50.407  47.219  1.00  0.00     0.125 HD
HETATM   29  H   UNL     1      26.859  50.790  48.720  1.00  0.00     0.125 HD
ENDBRANCH  18  27
ENDBRANCH   1  16
TORSDOF 7
ENDMDL
MODEL 8
REMARK VINA RESULT:      -7.0     12.044     13.869
REMARK  7 active torsions:
REMARK  status: ('A' for Active; 'I' for Inactive)
REMARK    1  A    between atoms: C_4  and  C_5 
REMARK    2  A    between atoms: C_5  and  N_6 
REMARK       I    between atoms: N_6  and  C_7 
REMARK    3  A    between atoms: C_7  and  C_8 
REMARK    4  A    between atoms: C_8  and  C_9 
REMARK    5  A    between atoms: C_9  and  N_10 
REMARK    6  A    between atoms: N_10  and  C_11 
REMARK    7  A    between atoms: C_13  and  N_14 
ROOT
HETATM    1  N   UNL     1      23.423  46.444  49.515  1.00  0.00    -0.262 NA
HETATM    2  H   UNL     1      23.325  45.904  48.649  1.00  0.00     0.130 HD
ENDROOT
BRANCH   1   3
HETATM    3  C   UNL     1      24.822  46.440  49.965  1.00  0.00     0.104 C 
BRANCH   3   4
HETATM    4  C   UNL     1      24.949  45.628  51.251  1.00  0.00     0.117 C 
BRANCH   4   5
HETATM    5  C   UNL     1      25.894  46.315  52.213  1.00  0.00     0.219 C 
HETATM    6  N   UNL     1      26.417  45.464  53.155  1.00  0.00    -0.357 N 
HETATM    7  H   UNL     1      26.061  44.520  53.229  1.00  0.00     0.162 HD
HETATM    8  O   UNL     1      26.144  47.513  52.141  1.00  0.00    -0.274 OA
BRANCH   6   9
HETATM    9  C   UNL     1      27.246  45.934  54.246  1.00  0.00     0.161 C 
BRANCH   9  10
HETATM   10  C   UNL     1      28.403  44.997  54.481  1.00  0.00    -0.041 A 
HETATM   11  C   UNL     1      28.610  43.892  53.641  1.00  0.00     0.009 A 
HETATM   12  C   UNL     1      29.680  43.024  53.862  1.00  0.00     0.001 A 
HETATM   13  C   UNL     1      30.555  43.250  54.922  1.00  0.00     0.000 A 
HETATM   14  C   UNL     1      30.357  44.342  55.767  1.00  0.00     0.001 A 
HETATM   15  C   UNL     1      29.283  45.207  55.551  1.00  0.00     0.009 A 
ENDBRANCH   9  10
ENDBRANCH   6   9
ENDBRANCH   4   5
ENDBRANCH   3   4
ENDBRANCH   1   3
BRANCH   1  16
HETATM   16  C   UNL     1      22.919  47.699  49.199  1.00  0.00     0.181 A 
HETATM   17  N   UNL     1      23.679  48.499  48.439  1.00  0.00    -0.207 NA
HETATM   18  C   UNL     1      23.150  49.683  48.087  1.00  0.00     0.116 A 
HETATM   19  C   UNL     1      21.867  50.095  48.487  1.00  0.00     0.031 A 
HETATM   20  C   UNL     1      21.130  49.182  49.266  1.00  0.00     0.048 A 
HETATM   21  C   UNL     1      21.273  51.339  48.174  1.00  0.00     0.017 A 
HETATM   22  N   UNL     1      21.686  48.009  49.586  1.00  0.00    -0.330 N 
HETATM   23  C   UNL     1      19.834  49.493  49.699  1.00  0.00     0.030 A 
HETATM   24  H   UNL     1      21.172  47.305  50.101  1.00  0.00     0.168 HD
HETATM   25  C   UNL     1      19.263  50.723  49.369  1.00  0.00     0.002 A 
HETATM   26  C   UNL     1      19.982  51.643  48.611  1.00  0.00     0.001 A 
BRANCH  18  27
HETATM   27  N   UNL     1      23.983  50.508  47.340  1.00  0.00    -0.286 NA
HETATM   28  H   UNL     1      23.436  51.212  46.849  1.00  0.00     0.125 HD
HETATM   29  H   UNL     1      24.733  50.935  47.876  1.00  0.00     0.125 HD
ENDBRANCH  18  27
ENDBRANCH   1  16
TORSDOF 7
ENDMDL
MODEL 9
REMARK VINA RESULT:      -6.9     12.648     15.493
REMARK  7 active torsions:
REMARK  status: ('A' for Active; 'I' for Inactive)
REMARK    1  A    between atoms: C_4  and  C_5 
REMARK    2  A    between atoms: C_5  and  N_6 
REMARK       I    between atoms: N_6  and  C_7 
REMARK    3  A    between atoms: C_7  and  C_8 
REMARK    4  A    between atoms: C_8  and  C_9 
REMARK    5  A    between atoms: C_9  and  N_10 
REMARK    6  A    between atoms: N_10  and  C_11 
REMARK    7  A    between atoms: C_13  and  N_14 
ROOT
HETATM    1  N   UNL     1      27.358  46.612  54.226  1.00  0.00    -0.262 NA
HETATM    2  H   UNL     1      27.915  47.395  53.867  1.00  0.00     0.130 HD
ENDROOT
BRANCH   1   3
HETATM    3  C   UNL     1      26.504  46.062  53.166  1.00  0.00     0.104 C 
BRANCH   3   4
HETATM    4  C   UNL     1      25.388  47.049  52.837  1.00  0.00     0.117 C 
BRANCH   4   5
HETATM    5  C   UNL     1      25.369  47.345  51.353  1.00  0.00     0.219 C 
HETATM    6  N   UNL     1      24.180  47.016  50.751  1.00  0.00    -0.357 N 
HETATM    7  H   UNL     1      23.480  46.506  51.274  1.00  0.00     0.162 HD
HETATM    8  O   UNL     1      26.337  47.823  50.769  1.00  0.00    -0.274 OA
BRANCH   6   9
HETATM    9  C   UNL     1      23.988  47.101  49.318  1.00  0.00     0.161 C 
BRANCH   9  10
HETATM   10  C   UNL     1      23.358  48.416  48.939  1.00  0.00    -0.041 A 
HETATM   11  C   UNL     1      24.137  49.458  48.412  1.00  0.00     0.009 A 
HETATM   12  C   UNL     1      23.551  50.676  48.064  1.00  0.00     0.001 A 
HETATM   13  C   UNL     1      22.182  50.867  48.238  1.00  0.00     0.000 A 
HETATM   14  C   UNL     1      21.398  49.842  48.765  1.00  0.00     0.001 A 
HETATM   15  C   UNL     1      21.983  48.625  49.120  1.00  0.00     0.009 A 
ENDBRANCH   9  10
ENDBRANCH   6   9
ENDBRANCH   4   5
ENDBRANCH   3   4
ENDBRANCH   1   3
BRANCH   1  16
HETATM   16  C   UNL     1      28.299  45.724  54.733  1.00  0.00     0.181 A 
HETATM   17  N   UNL     1      28.614  44.659  53.983  1.00  0.00    -0.207 NA
HETATM   18  C   UNL     1      29.573  43.846  54.456  1.00  0.00     0.116 A 
HETATM   19  C   UNL     1      30.227  44.069  55.680  1.00  0.00     0.031 A 
HETATM   20  C   UNL     1      29.848  45.222  56.392  1.00  0.00     0.048 A 
HETATM   21  C   UNL     1      31.218  43.231  56.241  1.00  0.00     0.017 A 
HETATM   22  N   UNL     1      28.898  46.015  55.883  1.00  0.00    -0.330 N 
HETATM   23  C   UNL     1      30.455  45.541  57.615  1.00  0.00     0.030 A 
HETATM   24  H   UNL     1      28.633  46.879  56.338  1.00  0.00     0.168 HD
HETATM   25  C   UNL     1      31.439  44.706  58.145  1.00  0.00     0.002 A 
HETATM   26  C   UNL     1      31.816  43.554  57.461  1.00  0.00     0.001 A 
BRANCH  18  27
HETATM   27  N   UNL     1      29.841  42.726  53.677  1.00  0.00    -0.286 NA
HETATM   28  H   UNL     1      29.602  41.877  54.184  1.00  0.00     0.125 HD
HETATM   29  H   UNL     1      29.399  42.742  52.762  1.00  0.00     0.125 HD
ENDBRANCH  18  27
ENDBRANCH   1  16
TORSDOF 7
ENDMDL
MODEL 10
REMARK VINA RESULT:      -6.9      1.498      4.140
REMARK  7 active torsions:
REMARK  status: ('A' for Active; 'I' for Inactive)
REMARK    1  A    between atoms: C_4  and  C_5 
REMARK    2  A    between atoms: C_5  and  N_6 
REMARK       I    between atoms: N_6  and  C_7 
REMARK    3  A    between atoms: C_7  and  C_8 
REMARK    4  A    between atoms: C_8  and  C_9 
REMARK    5  A    between atoms: C_9  and  N_10 
REMARK    6  A    between atoms: N_10  and  C_11 
REMARK    7  A    between atoms: C_13  and  N_14 
ROOT
HETATM    1  N   UNL     1      35.167  49.787  40.791  1.00  0.00    -0.262 NA
HETATM    2  H   UNL     1      35.190  49.269  39.906  1.00  0.00     0.130 HD
ENDROOT
BRANCH   1   3
HETATM    3  C   UNL     1      35.565  51.185  40.577  1.00  0.00     0.104 C 
BRANCH   3   4
HETATM    4  C   UNL     1      34.930  51.713  39.294  1.00  0.00     0.117 C 
BRANCH   4   5
HETATM    5  C   UNL     1      33.959  52.830  39.610  1.00  0.00     0.219 C 
HETATM    6  N   UNL     1      32.806  52.390  40.210  1.00  0.00    -0.357 N 
HETATM    7  H   UNL     1      32.626  51.397  40.280  1.00  0.00     0.162 HD
HETATM    8  O   UNL     1      34.201  54.002  39.340  1.00  0.00    -0.274 OA
BRANCH   6   9
HETATM    9  C   UNL     1      31.692  53.274  40.487  1.00  0.00     0.161 C 
BRANCH   9  10
HETATM   10  C   UNL     1      30.380  52.565  40.272  1.00  0.00    -0.041 A 
HETATM   11  C   UNL     1      30.198  51.717  39.168  1.00  0.00     0.009 A 
HETATM   12  C   UNL     1      28.981  51.063  38.970  1.00  0.00     0.001 A 
HETATM   13  C   UNL     1      27.935  51.247  39.870  1.00  0.00     0.000 A 
HETATM   14  C   UNL     1      28.102  52.090  40.968  1.00  0.00     0.001 A 
HETATM   15  C   UNL     1      29.315  52.751  41.164  1.00  0.00     0.009 A 
ENDBRANCH   9  10
ENDBRANCH   6   9
ENDBRANCH   4   5
ENDBRANCH   3   4
ENDBRANCH   1   3
BRANCH   1  16
HETATM   16  C   UNL     1      33.868  49.618  41.255  1.00  0.00     0.181 A 
HETATM   17  N   UNL     1      33.505  50.307  42.345  1.00  0.00    -0.207 NA
HETATM   18  C   UNL     1      32.228  50.185  42.742  1.00  0.00     0.116 A 
HETATM   19  C   UNL     1      31.295  49.373  42.074  1.00  0.00     0.031 A 
HETATM   20  C   UNL     1      31.757  48.703  40.925  1.00  0.00     0.048 A 
HETATM   21  C   UNL     1      29.949  49.182  42.464  1.00  0.00     0.017 A 
HETATM   22  N   UNL     1      33.032  48.859  40.554  1.00  0.00    -0.330 N 
HETATM   23  C   UNL     1      30.897  47.885  40.179  1.00  0.00     0.030 A 
HETATM   24  H   UNL     1      33.390  48.435  39.708  1.00  0.00     0.168 HD
HETATM   25  C   UNL     1      29.571  47.718  40.577  1.00  0.00     0.002 A 
HETATM   26  C   UNL     1      29.100  48.363  41.717  1.00  0.00     0.001 A 
BRANCH  18  27
HETATM   27  N   UNL     1      31.897  50.874  43.904  1.00  0.00    -0.286 NA
HETATM   28  H   UNL     1      31.299  50.302  44.497  1.00  0.00     0.125 HD
HETATM   29  H   UNL     1      32.699  51.223  44.421  1.00  0.00     0.125 HD
ENDBRANCH  18  27
ENDBRANCH   1  16
TORSDOF 7
ENDMDL
