MODEL 1
REMARK VINA RESULT:     -10.4      0.000      0.000
REMARK  1 active torsions:
REMARK  status: ('A' for Active; 'I' for Inactive)
REMARK       I    between atoms: N_9  and  C_10 
REMARK    1  A    between atoms: C_10  and  C_11 
ROOT
HETATM    1  C   UNL     1      22.312  44.436  48.345  1.00  0.00     0.002 A 
HETATM    2  C   UNL     1      23.107  45.553  48.597  1.00  0.00     0.031 A 
HETATM    3  C   UNL     1      23.989  45.542  49.679  1.00  0.00     0.056 A 
HETATM    4  C   UNL     1      24.105  44.417  50.513  1.00  0.00     0.036 A 
HETATM    5  N   UNL     1      24.917  44.430  51.659  1.00  0.00    -0.273 NA
HETATM    6  C   UNL     1      26.044  45.402  51.650  1.00  0.00     0.100 C 
HETATM    7  C   UNL     1      27.231  44.845  50.837  1.00  0.00     0.055 C 
HETATM    8  C   UNL     1      27.946  43.696  51.534  1.00  0.00     0.128 C 
HETATM    9  N   UNL     1      28.295  44.030  52.909  1.00  0.00    -0.348 N 
HETATM   10  C   UNL     1      29.447  43.435  53.435  1.00  0.00     0.253 C 
HETATM   11  O   UNL     1      30.122  42.619  52.810  1.00  0.00    -0.267 OA
HETATM   12  C   UNL     1      27.174  44.479  53.737  1.00  0.00     0.128 C 
HETATM   13  C   UNL     1      26.471  45.672  53.106  1.00  0.00     0.055 C 
HETATM   14  C   UNL     1      25.637  46.753  50.992  1.00  0.00     0.245 C 
HETATM   15  O   UNL     1      26.161  47.832  51.274  1.00  0.00    -0.271 OA
HETATM   16  N   UNL     1      24.741  46.689  49.956  1.00  0.00    -0.324 N 
HETATM   17  C   UNL     1      23.265  43.324  50.271  1.00  0.00     0.026 A 
HETATM   18  C   UNL     1      22.385  43.326  49.186  1.00  0.00     0.002 A 
HETATM   19  H   UNL     1      25.172  43.492  51.955  1.00  0.00     0.129 HD
HETATM   20  H   UNL     1      24.558  47.552  49.464  1.00  0.00     0.169 HD
ENDROOT
BRANCH  10  21
HETATM   21  C   UNL     1      29.910  43.801  54.796  1.00  0.00     0.034 A 
HETATM   22  C   UNL     1      29.459  44.977  55.414  1.00  0.00     0.051 A 
HETATM   23  C   UNL     1      29.944  45.278  56.695  1.00  0.00     0.085 A 
HETATM   24  C   UNL     1      30.878  44.437  57.291  1.00  0.00     0.062 A 
HETATM   25  N   UNL     1      29.636  46.330  57.522  1.00  0.00    -0.242 NA
HETATM   26  N   UNL     1      31.132  45.023  58.505  1.00  0.00    -0.349 N 
HETATM   27  C   UNL     1      31.379  43.286  56.680  1.00  0.00     0.033 A 
HETATM   28  H   UNL     1      31.775  44.685  59.206  1.00  0.00     0.167 HD
HETATM   29  C   UNL     1      30.363  46.149  58.600  1.00  0.00     0.208 A 
HETATM   30  C   UNL     1      30.873  42.986  55.409  1.00  0.00     0.019 A 
ENDBRANCH  10  21
TORSDOF 1
ENDMDL
MODEL 2
REMARK VINA RESULT:     -10.3      3.162      8.728
REMARK  1 active torsions:
REMARK  status: ('A' for Active; 'I' for Inactive)
REMARK       I    between atoms: N_9  and  C_10 
REMARK    1  A    between atoms: C_10  and  C_11 
ROOT
HETATM    1  C   UNL     1      29.457  42.249  54.225  1.00  0.00     0.002 A 
HETATM    2  C   UNL     1      28.450  41.834  53.354  1.00  0.00     0.031 A 
HETATM    3  C   UNL     1      27.558  42.772  52.833  1.00  0.00     0.056 A 
HETATM    4  C   UNL     1      27.664  44.135  53.156  1.00  0.00     0.036 A 
HETATM    5  N   UNL     1      26.716  45.073  52.715  1.00  0.00    -0.273 NA
HETATM    6  C   UNL     1      25.965  44.712  51.481  1.00  0.00     0.100 C 
HETATM    7  C   UNL     1      26.813  45.006  50.227  1.00  0.00     0.055 C 
HETATM    8  C   UNL     1      26.974  46.494  49.950  1.00  0.00     0.128 C 
HETATM    9  N   UNL     1      25.691  47.188  49.956  1.00  0.00    -0.348 N 
HETATM   10  C   UNL     1      25.569  48.305  49.122  1.00  0.00     0.253 C 
HETATM   11  O   UNL     1      26.502  48.740  48.449  1.00  0.00    -0.267 OA
HETATM   12  C   UNL     1      24.896  47.001  51.170  1.00  0.00     0.128 C 
HETATM   13  C   UNL     1      24.656  45.525  51.446  1.00  0.00     0.055 C 
HETATM   14  C   UNL     1      25.609  43.196  51.443  1.00  0.00     0.245 C 
HETATM   15  O   UNL     1      24.635  42.740  50.843  1.00  0.00    -0.271 OA
HETATM   16  N   UNL     1      26.519  42.335  52.004  1.00  0.00    -0.324 N 
HETATM   17  C   UNL     1      28.651  44.525  54.068  1.00  0.00     0.026 A 
HETATM   18  C   UNL     1      29.552  43.592  54.588  1.00  0.00     0.002 A 
HETATM   19  H   UNL     1      27.085  46.019  52.721  1.00  0.00     0.129 HD
HETATM   20  H   UNL     1      26.337  41.349  51.887  1.00  0.00     0.169 HD
ENDROOT
BRANCH  10  21
HETATM   21  C   UNL     1      24.265  49.002  49.010  1.00  0.00     0.034 A 
HETATM   22  C   UNL     1      23.061  48.302  49.179  1.00  0.00     0.051 A 
HETATM   23  C   UNL     1      21.860  49.011  49.046  1.00  0.00     0.085 A 
HETATM   24  C   UNL     1      21.892  50.362  48.713  1.00  0.00     0.062 A 
HETATM   25  N   UNL     1      20.566  48.577  49.199  1.00  0.00    -0.242 NA
HETATM   26  N   UNL     1      20.571  50.727  48.660  1.00  0.00    -0.349 N 
HETATM   27  C   UNL     1      23.074  51.072  48.494  1.00  0.00     0.033 A 
HETATM   28  H   UNL     1      20.217  51.645  48.436  1.00  0.00     0.167 HD
HETATM   29  C   UNL     1      19.816  49.629  48.963  1.00  0.00     0.208 A 
HETATM   30  C   UNL     1      24.267  50.357  48.648  1.00  0.00     0.019 A 
ENDBRANCH  10  21
TORSDOF 1
ENDMDL
MODEL 3
REMARK VINA RESULT:      -9.5      2.658      9.070
REMARK  1 active torsions:
REMARK  status: ('A' for Active; 'I' for Inactive)
REMARK       I    between atoms: N_9  and  C_10 
REMARK    1  A    between atoms: C_10  and  C_11 
ROOT
HETATM    1  C   UNL     1      30.385  43.017  54.470  1.00  0.00     0.002 A 
HETATM    2  C   UNL     1      29.934  42.370  53.320  1.00  0.00     0.031 A 
HETATM    3  C   UNL     1      28.740  42.776  52.724  1.00  0.00     0.056 A 
HETATM    4  C   UNL     1      27.987  43.839  53.250  1.00  0.00     0.036 A 
HETATM    5  N   UNL     1      26.738  44.193  52.716  1.00  0.00    -0.273 NA
HETATM    6  C   UNL     1      26.507  43.823  51.293  1.00  0.00     0.100 C 
HETATM    7  C   UNL     1      27.179  44.846  50.354  1.00  0.00     0.055 C 
HETATM    8  C   UNL     1      26.475  46.196  50.339  1.00  0.00     0.128 C 
HETATM    9  N   UNL     1      25.042  46.057  50.111  1.00  0.00    -0.348 N 
HETATM   10  C   UNL     1      24.401  47.105  49.440  1.00  0.00     0.253 C 
HETATM   11  O   UNL     1      24.983  48.133  49.097  1.00  0.00    -0.267 OA
HETATM   12  C   UNL     1      24.355  45.160  51.041  1.00  0.00     0.128 C 
HETATM   13  C   UNL     1      24.988  43.777  51.036  1.00  0.00     0.055 C 
HETATM   14  C   UNL     1      27.111  42.429  50.953  1.00  0.00     0.245 C 
HETATM   15  O   UNL     1      26.674  41.696  50.064  1.00  0.00    -0.271 OA
HETATM   16  N   UNL     1      28.269  42.084  51.602  1.00  0.00    -0.324 N 
HETATM   17  C   UNL     1      28.432  44.444  54.432  1.00  0.00     0.026 A 
HETATM   18  C   UNL     1      29.631  44.046  55.030  1.00  0.00     0.002 A 
HETATM   19  H   UNL     1      26.480  45.147  52.950  1.00  0.00     0.129 HD
HETATM   20  H   UNL     1      28.715  41.228  51.305  1.00  0.00     0.169 HD
ENDROOT
BRANCH  10  21
HETATM   21  C   UNL     1      22.963  46.988  49.094  1.00  0.00     0.034 A 
HETATM   22  C   UNL     1      22.417  45.754  48.709  1.00  0.00     0.051 A 
HETATM   23  C   UNL     1      21.055  45.709  48.380  1.00  0.00     0.085 A 
HETATM   24  C   UNL     1      20.304  46.880  48.401  1.00  0.00     0.062 A 
HETATM   25  N   UNL     1      20.279  44.637  48.014  1.00  0.00    -0.242 NA
HETATM   26  N   UNL     1      19.046  46.480  48.027  1.00  0.00    -0.349 N 
HETATM   27  C   UNL     1      20.833  48.128  48.736  1.00  0.00     0.033 A 
HETATM   28  H   UNL     1      18.238  47.076  47.927  1.00  0.00     0.167 HD
HETATM   29  C   UNL     1      19.079  45.131  47.812  1.00  0.00     0.208 A 
HETATM   30  C   UNL     1      22.189  48.157  49.081  1.00  0.00     0.019 A 
ENDBRANCH  10  21
TORSDOF 1
ENDMDL
MODEL 4
REMARK VINA RESULT:      -9.4      2.981      4.753
REMARK  1 active torsions:
REMARK  status: ('A' for Active; 'I' for Inactive)
REMARK       I    between atoms: N_9  and  C_10 
REMARK    1  A    between atoms: C_10  and  C_11 
ROOT
HETATM    1  C   UNL     1      21.019  50.837  47.754  1.00  0.00     0.002 A 
HETATM    2  C   UNL     1      22.368  50.689  47.435  1.00  0.00     0.031 A 
HETATM    3  C   UNL     1      23.186  49.900  48.245  1.00  0.00     0.056 A 
HETATM    4  C   UNL     1      22.671  49.234  49.370  1.00  0.00     0.036 A 
HETATM    5  N   UNL     1      23.502  48.515  50.245  1.00  0.00    -0.273 NA
HETATM    6  C   UNL     1      24.778  48.011  49.668  1.00  0.00     0.100 C 
HETATM    7  C   UNL     1      24.533  46.716  48.866  1.00  0.00     0.055 C 
HETATM    8  C   UNL     1      24.211  45.518  49.749  1.00  0.00     0.128 C 
HETATM    9  N   UNL     1      25.186  45.358  50.821  1.00  0.00    -0.348 N 
HETATM   10  C   UNL     1      25.433  44.054  51.266  1.00  0.00     0.253 C 
HETATM   11  O   UNL     1      24.828  43.075  50.831  1.00  0.00    -0.267 OA
HETATM   12  C   UNL     1      25.380  46.542  51.659  1.00  0.00     0.128 C 
HETATM   13  C   UNL     1      25.769  47.749  50.818  1.00  0.00     0.055 C 
HETATM   14  C   UNL     1      25.415  49.038  48.687  1.00  0.00     0.245 C 
HETATM   15  O   UNL     1      26.625  49.108  48.465  1.00  0.00    -0.271 OA
HETATM   16  N   UNL     1      24.549  49.804  47.947  1.00  0.00    -0.324 N 
HETATM   17  C   UNL     1      21.326  49.432  49.700  1.00  0.00     0.026 A 
HETATM   18  C   UNL     1      20.500  50.216  48.889  1.00  0.00     0.002 A 
HETATM   19  H   UNL     1      22.984  47.829  50.785  1.00  0.00     0.129 HD
HETATM   20  H   UNL     1      24.961  50.394  47.239  1.00  0.00     0.169 HD
ENDROOT
BRANCH  10  21
HETATM   21  C   UNL     1      26.479  43.810  52.289  1.00  0.00     0.034 A 
HETATM   22  C   UNL     1      27.804  43.548  51.911  1.00  0.00     0.051 A 
HETATM   23  C   UNL     1      28.745  43.310  52.922  1.00  0.00     0.085 A 
HETATM   24  C   UNL     1      28.336  43.298  54.252  1.00  0.00     0.062 A 
HETATM   25  N   UNL     1      30.093  43.071  52.824  1.00  0.00    -0.242 NA
HETATM   26  N   UNL     1      29.484  43.034  54.955  1.00  0.00    -0.349 N 
HETATM   27  C   UNL     1      27.016  43.510  54.653  1.00  0.00     0.033 A 
HETATM   28  H   UNL     1      29.560  42.944  55.957  1.00  0.00     0.167 HD
HETATM   29  C   UNL     1      30.509  42.912  54.059  1.00  0.00     0.208 A 
HETATM   30  C   UNL     1      26.089  43.765  53.636  1.00  0.00     0.019 A 
ENDBRANCH  10  21
TORSDOF 1
ENDMDL
MODEL 5
REMARK VINA RESULT:      -9.3      2.613      9.148
REMARK  1 active torsions:
REMARK  status: ('A' for Active; 'I' for Inactive)
REMARK       I    between atoms: N_9  and  C_10 
REMARK    1  A    between atoms: C_10  and  C_11 
ROOT
HETATM    1  C   UNL     1      30.203  43.425  54.704  1.00  0.00     0.002 A 
HETATM    2  C   UNL     1      29.189  44.363  54.899  1.00  0.00     0.031 A 
HETATM    3  C   UNL     1      28.289  44.631  53.868  1.00  0.00     0.056 A 
HETATM    4  C   UNL     1      28.371  43.959  52.636  1.00  0.00     0.036 A 
HETATM    5  N   UNL     1      27.532  44.288  51.560  1.00  0.00    -0.273 NA
HETATM    6  C   UNL     1      26.232  44.922  51.915  1.00  0.00     0.100 C 
HETATM    7  C   UNL     1      25.213  43.852  52.359  1.00  0.00     0.055 C 
HETATM    8  C   UNL     1      24.720  42.984  51.211  1.00  0.00     0.128 C 
HETATM    9  N   UNL     1      24.260  43.786  50.084  1.00  0.00    -0.348 N 
HETATM   10  C   UNL     1      23.232  43.250  49.299  1.00  0.00     0.253 C 
HETATM   11  O   UNL     1      22.760  42.130  49.492  1.00  0.00    -0.267 OA
HETATM   12  C   UNL     1      25.235  44.753  49.578  1.00  0.00     0.128 C 
HETATM   13  C   UNL     1      25.705  45.686  50.684  1.00  0.00     0.055 C 
HETATM   14  C   UNL     1      26.382  45.925  53.096  1.00  0.00     0.245 C 
HETATM   15  O   UNL     1      25.641  46.895  53.263  1.00  0.00    -0.271 OA
HETATM   16  N   UNL     1      27.311  45.613  54.056  1.00  0.00    -0.324 N 
HETATM   17  C   UNL     1      29.423  43.056  52.443  1.00  0.00     0.026 A 
HETATM   18  C   UNL     1      30.324  42.779  53.475  1.00  0.00     0.002 A 
HETATM   19  H   UNL     1      27.460  43.531  50.887  1.00  0.00     0.129 HD
HETATM   20  H   UNL     1      27.334  46.208  54.872  1.00  0.00     0.169 HD
ENDROOT
BRANCH  10  21
HETATM   21  C   UNL     1      22.654  44.052  48.193  1.00  0.00     0.034 A 
HETATM   22  C   UNL     1      21.592  44.936  48.429  1.00  0.00     0.051 A 
HETATM   23  C   UNL     1      21.078  45.656  47.342  1.00  0.00     0.085 A 
HETATM   24  C   UNL     1      21.599  45.444  46.069  1.00  0.00     0.062 A 
HETATM   25  N   UNL     1      20.080  46.599  47.310  1.00  0.00    -0.242 NA
HETATM   26  N   UNL     1      20.875  46.287  45.264  1.00  0.00    -0.349 N 
HETATM   27  C   UNL     1      22.625  44.537  45.799  1.00  0.00     0.033 A 
HETATM   28  H   UNL     1      20.980  46.391  44.266  1.00  0.00     0.167 HD
HETATM   29  C   UNL     1      19.983  46.960  46.051  1.00  0.00     0.208 A 
HETATM   30  C   UNL     1      23.143  43.838  46.896  1.00  0.00     0.019 A 
ENDBRANCH  10  21
TORSDOF 1
ENDMDL
MODEL 6
REMARK VINA RESULT:      -9.3      9.646     14.781
REMARK  1 active torsions:
REMARK  status: ('A' for Active; 'I' for Inactive)
REMARK       I    between atoms: N_9  and  C_10 
REMARK    1  A    between atoms: C_10  and  C_11 
ROOT
HETATM    1  C   UNL     1      24.075  49.204  48.325  1.00  0.00     0.002 A 
HETATM    2  C   UNL     1      23.005  48.477  48.847  1.00  0.00     0.031 A 
HETATM    3  C   UNL     1      21.792  49.119  49.099  1.00  0.00     0.056 A 
HETATM    4  C   UNL     1      21.620  50.485  48.819  1.00  0.00     0.036 A 
HETATM    5  N   UNL     1      20.437  51.163  49.157  1.00  0.00    -0.273 NA
HETATM    6  C   UNL     1      19.214  50.323  49.275  1.00  0.00     0.100 C 
HETATM    7  C   UNL     1      18.625  50.026  47.880  1.00  0.00     0.055 C 
HETATM    8  C   UNL     1      17.984  51.245  47.231  1.00  0.00     0.128 C 
HETATM    9  N   UNL     1      17.041  51.903  48.128  1.00  0.00    -0.348 N 
HETATM   10  C   UNL     1      15.952  52.554  47.538  1.00  0.00     0.253 C 
HETATM   11  O   UNL     1      15.801  52.633  46.320  1.00  0.00    -0.267 OA
HETATM   12  C   UNL     1      17.591  52.278  49.431  1.00  0.00     0.128 C 
HETATM   13  C   UNL     1      18.184  51.072  50.144  1.00  0.00     0.055 C 
HETATM   14  C   UNL     1      19.518  48.948  49.941  1.00  0.00     0.245 C 
HETATM   15  O   UNL     1      18.686  48.301  50.578  1.00  0.00    -0.271 OA
HETATM   16  N   UNL     1      20.744  48.393  49.675  1.00  0.00    -0.324 N 
HETATM   17  C   UNL     1      22.718  51.208  48.340  1.00  0.00     0.026 A 
HETATM   18  C   UNL     1      23.934  50.569  48.080  1.00  0.00     0.002 A 
HETATM   19  H   UNL     1      20.314  52.010  48.611  1.00  0.00     0.129 HD
HETATM   20  H   UNL     1      20.900  47.457  50.021  1.00  0.00     0.169 HD
ENDROOT
BRANCH  10  21
HETATM   21  C   UNL     1      14.906  53.165  48.395  1.00  0.00     0.034 A 
HETATM   22  C   UNL     1      14.102  54.208  47.911  1.00  0.00     0.051 A 
HETATM   23  C   UNL     1      13.142  54.755  48.773  1.00  0.00     0.085 A 
HETATM   24  C   UNL     1      13.042  54.285  50.079  1.00  0.00     0.062 A 
HETATM   25  N   UNL     1      12.216  55.742  48.537  1.00  0.00    -0.242 NA
HETATM   26  N   UNL     1      12.029  55.030  50.628  1.00  0.00    -0.349 N 
HETATM   27  C   UNL     1      13.859  53.281  50.600  1.00  0.00     0.033 A 
HETATM   28  H   UNL     1      11.688  54.962  51.575  1.00  0.00     0.167 HD
HETATM   29  C   UNL     1      11.563  55.883  49.667  1.00  0.00     0.208 A 
HETATM   30  C   UNL     1      14.802  52.729  49.725  1.00  0.00     0.019 A 
ENDBRANCH  10  21
TORSDOF 1
ENDMDL
MODEL 7
REMARK VINA RESULT:      -9.2      4.907      7.242
REMARK  1 active torsions:
REMARK  status: ('A' for Active; 'I' for Inactive)
REMARK       I    between atoms: N_9  and  C_10 
REMARK    1  A    between atoms: C_10  and  C_11 
ROOT
HETATM    1  C   UNL     1      18.952  52.026  48.902  1.00  0.00     0.002 A 
HETATM    2  C   UNL     1      20.120  51.940  48.145  1.00  0.00     0.031 A 
HETATM    3  C   UNL     1      21.046  50.933  48.419  1.00  0.00     0.056 A 
HETATM    4  C   UNL     1      20.818  49.989  49.434  1.00  0.00     0.036 A 
HETATM    5  N   UNL     1      21.785  49.032  49.781  1.00  0.00    -0.273 NA
HETATM    6  C   UNL     1      22.766  48.678  48.718  1.00  0.00     0.100 C 
HETATM    7  C   UNL     1      22.148  47.670  47.727  1.00  0.00     0.055 C 
HETATM    8  C   UNL     1      21.970  46.280  48.323  1.00  0.00     0.128 C 
HETATM    9  N   UNL     1      23.195  45.798  48.949  1.00  0.00    -0.348 N 
HETATM   10  C   UNL     1      23.414  44.416  48.936  1.00  0.00     0.253 C 
HETATM   11  O   UNL     1      22.601  43.616  48.477  1.00  0.00    -0.267 OA
HETATM   12  C   UNL     1      23.762  46.692  49.960  1.00  0.00     0.128 C 
HETATM   13  C   UNL     1      24.018  48.077  49.385  1.00  0.00     0.055 C 
HETATM   14  C   UNL     1      23.194  49.925  47.890  1.00  0.00     0.245 C 
HETATM   15  O   UNL     1      24.283  50.024  47.322  1.00  0.00    -0.271 OA
HETATM   16  N   UNL     1      22.240  50.890  47.690  1.00  0.00    -0.324 N 
HETATM   17  C   UNL     1      19.663  50.121  50.213  1.00  0.00     0.026 A 
HETATM   18  C   UNL     1      18.728  51.123  49.940  1.00  0.00     0.002 A 
HETATM   19  H   UNL     1      21.376  48.234  50.258  1.00  0.00     0.129 HD
HETATM   20  H   UNL     1      22.486  51.646  47.067  1.00  0.00     0.169 HD
ENDROOT
BRANCH  10  21
HETATM   21  C   UNL     1      24.683  43.866  49.474  1.00  0.00     0.034 A 
HETATM   22  C   UNL     1      24.716  42.598  50.074  1.00  0.00     0.051 A 
HETATM   23  C   UNL     1      25.941  42.138  50.577  1.00  0.00     0.085 A 
HETATM   24  C   UNL     1      27.064  42.957  50.507  1.00  0.00     0.062 A 
HETATM   25  N   UNL     1      26.248  40.937  51.168  1.00  0.00    -0.242 NA
HETATM   26  N   UNL     1      28.060  42.211  51.085  1.00  0.00    -0.349 N 
HETATM   27  C   UNL     1      27.048  44.240  49.957  1.00  0.00     0.033 A 
HETATM   28  H   UNL     1      29.019  42.499  51.213  1.00  0.00     0.167 HD
HETATM   29  C   UNL     1      27.526  41.010  51.459  1.00  0.00     0.208 A 
HETATM   30  C   UNL     1      25.824  44.681  49.441  1.00  0.00     0.019 A 
ENDBRANCH  10  21
TORSDOF 1
ENDMDL
MODEL 8
REMARK VINA RESULT:      -9.2     12.654     13.732
REMARK  1 active torsions:
REMARK  status: ('A' for Active; 'I' for Inactive)
REMARK       I    between atoms: N_9  and  C_10 
REMARK    1  A    between atoms: C_10  and  C_11 
ROOT
HETATM    1  C   UNL     1      23.463  48.012  38.573  1.00  0.00     0.002 A 
HETATM    2  C   UNL     1      24.265  48.966  37.947  1.00  0.00     0.031 A 
HETATM    3  C   UNL     1      25.423  49.417  38.581  1.00  0.00     0.056 A 
HETATM    4  C   UNL     1      25.809  48.915  39.835  1.00  0.00     0.036 A 
HETATM    5  N   UNL     1      26.918  49.430  40.526  1.00  0.00    -0.273 NA
HETATM    6  C   UNL     1      27.966  50.076  39.688  1.00  0.00     0.100 C 
HETATM    7  C   UNL     1      28.880  49.010  39.050  1.00  0.00     0.055 C 
HETATM    8  C   UNL     1      29.800  48.332  40.056  1.00  0.00     0.128 C 
HETATM    9  N   UNL     1      30.524  49.302  40.867  1.00  0.00    -0.348 N 
HETATM   10  C   UNL     1      31.796  48.931  41.318  1.00  0.00     0.253 C 
HETATM   11  O   UNL     1      32.283  47.822  41.103  1.00  0.00    -0.267 OA
HETATM   12  C   UNL     1      29.681  50.277  41.560  1.00  0.00     0.128 C 
HETATM   13  C   UNL     1      28.791  51.026  40.579  1.00  0.00     0.055 C 
HETATM   14  C   UNL     1      27.347  50.901  38.522  1.00  0.00     0.245 C 
HETATM   15  O   UNL     1      27.899  51.876  38.010  1.00  0.00    -0.271 OA
HETATM   16  N   UNL     1      26.190  50.414  37.969  1.00  0.00    -0.324 N 
HETATM   17  C   UNL     1      24.967  47.994  40.468  1.00  0.00     0.026 A 
HETATM   18  C   UNL     1      23.809  47.533  39.835  1.00  0.00     0.002 A 
HETATM   19  H   UNL     1      27.275  48.776  41.215  1.00  0.00     0.129 HD
HETATM   20  H   UNL     1      25.847  50.891  37.147  1.00  0.00     0.169 HD
ENDROOT
BRANCH  10  21
HETATM   21  C   UNL     1      32.625  49.904  42.070  1.00  0.00     0.034 A 
HETATM   22  C   UNL     1      33.959  50.142  41.707  1.00  0.00     0.051 A 
HETATM   23  C   UNL     1      34.696  51.062  42.465  1.00  0.00     0.085 A 
HETATM   24  C   UNL     1      34.106  51.673  43.568  1.00  0.00     0.062 A 
HETATM   25  N   UNL     1      35.988  51.497  42.299  1.00  0.00    -0.242 NA
HETATM   26  N   UNL     1      35.092  52.486  44.068  1.00  0.00    -0.349 N 
HETATM   27  C   UNL     1      32.797  51.420  43.979  1.00  0.00     0.033 A 
HETATM   28  H   UNL     1      35.016  53.079  44.881  1.00  0.00     0.167 HD
HETATM   29  C   UNL     1      36.195  52.351  43.274  1.00  0.00     0.208 A 
HETATM   30  C   UNL     1      32.065  50.514  43.203  1.00  0.00     0.019 A 
ENDBRANCH  10  21
TORSDOF 1
ENDMDL
MODEL 9
REMARK VINA RESULT:      -8.9      4.310      6.277
REMARK  1 active torsions:
REMARK  status: ('A' for Active; 'I' for Inactive)
REMARK       I    between atoms: N_9  and  C_10 
REMARK    1  A    between atoms: C_10  and  C_11 
ROOT
HETATM    1  C   UNL     1      28.129  37.854  45.760  1.00  0.00     0.002 A 
HETATM    2  C   UNL     1      28.445  37.649  47.102  1.00  0.00     0.031 A 
HETATM    3  C   UNL     1      28.352  38.712  48.002  1.00  0.00     0.056 A 
HETATM    4  C   UNL     1      27.929  39.985  47.585  1.00  0.00     0.036 A 
HETATM    5  N   UNL     1      27.924  41.083  48.460  1.00  0.00    -0.273 NA
HETATM    6  C   UNL     1      27.821  40.763  49.910  1.00  0.00     0.100 C 
HETATM    7  C   UNL     1      26.356  40.470  50.296  1.00  0.00     0.055 C 
HETATM    8  C   UNL     1      25.478  41.713  50.291  1.00  0.00     0.128 C 
HETATM    9  N   UNL     1      26.072  42.800  51.060  1.00  0.00    -0.348 N 
HETATM   10  C   UNL     1      25.192  43.689  51.688  1.00  0.00     0.253 C 
HETATM   11  O   UNL     1      23.970  43.616  51.567  1.00  0.00    -0.267 OA
HETATM   12  C   UNL     1      27.432  43.164  50.662  1.00  0.00     0.128 C 
HETATM   13  C   UNL     1      28.360  41.959  50.718  1.00  0.00     0.055 C 
HETATM   14  C   UNL     1      28.650  39.498  50.283  1.00  0.00     0.245 C 
HETATM   15  O   UNL     1      29.127  39.302  51.402  1.00  0.00    -0.271 OA
HETATM   16  N   UNL     1      28.725  38.509  49.336  1.00  0.00    -0.324 N 
HETATM   17  C   UNL     1      27.662  40.182  46.225  1.00  0.00     0.026 A 
HETATM   18  C   UNL     1      27.747  39.120  45.320  1.00  0.00     0.002 A 
HETATM   19  H   UNL     1      27.296  41.817  48.146  1.00  0.00     0.129 HD
HETATM   20  H   UNL     1      29.173  37.648  49.616  1.00  0.00     0.169 HD
ENDROOT
BRANCH  10  21
HETATM   21  C   UNL     1      25.728  44.762  52.561  1.00  0.00     0.034 A 
HETATM   22  C   UNL     1      26.549  44.453  53.655  1.00  0.00     0.051 A 
HETATM   23  C   UNL     1      27.012  45.509  54.452  1.00  0.00     0.085 A 
HETATM   24  C   UNL     1      26.615  46.812  54.166  1.00  0.00     0.062 A 
HETATM   25  N   UNL     1      27.848  45.481  55.542  1.00  0.00    -0.242 NA
HETATM   26  N   UNL     1      27.234  47.570  55.128  1.00  0.00    -0.349 N 
HETATM   27  C   UNL     1      25.762  47.142  53.112  1.00  0.00     0.033 A 
HETATM   28  H   UNL     1      27.162  48.571  55.231  1.00  0.00     0.167 HD
HETATM   29  C   UNL     1      27.963  46.732  55.923  1.00  0.00     0.208 A 
HETATM   30  C   UNL     1      25.322  46.082  52.312  1.00  0.00     0.019 A 
ENDBRANCH  10  21
TORSDOF 1
ENDMDL
MODEL 10
REMARK VINA RESULT:      -8.8      7.215     11.243
REMARK  1 active torsions:
REMARK  status: ('A' for Active; 'I' for Inactive)
REMARK       I    between atoms: N_9  and  C_10 
REMARK    1  A    between atoms: C_10  and  C_11 
ROOT
HETATM    1  C   UNL     1      24.196  42.197  49.202  1.00  0.00     0.002 A 
HETATM    2  C   UNL     1      23.999  42.851  47.987  1.00  0.00     0.031 A 
HETATM    3  C   UNL     1      23.129  43.940  47.922  1.00  0.00     0.056 A 
HETATM    4  C   UNL     1      22.458  44.404  49.066  1.00  0.00     0.036 A 
HETATM    5  N   UNL     1      21.508  45.437  48.995  1.00  0.00    -0.273 NA
HETATM    6  C   UNL     1      21.649  46.376  47.848  1.00  0.00     0.100 C 
HETATM    7  C   UNL     1      22.742  47.425  48.141  1.00  0.00     0.055 C 
HETATM    8  C   UNL     1      22.329  48.440  49.197  1.00  0.00     0.128 C 
HETATM    9  N   UNL     1      21.028  49.028  48.903  1.00  0.00    -0.348 N 
HETATM   10  C   UNL     1      20.815  50.344  49.330  1.00  0.00     0.253 C 
HETATM   11  O   UNL     1      21.646  50.979  49.976  1.00  0.00    -0.267 OA
HETATM   12  C   UNL     1      19.946  48.063  48.706  1.00  0.00     0.128 C 
HETATM   13  C   UNL     1      20.293  47.067  47.609  1.00  0.00     0.055 C 
HETATM   14  C   UNL     1      22.067  45.637  46.543  1.00  0.00     0.245 C 
HETATM   15  O   UNL     1      21.790  46.041  45.413  1.00  0.00    -0.271 OA
HETATM   16  N   UNL     1      22.897  44.554  46.686  1.00  0.00    -0.324 N 
HETATM   17  C   UNL     1      22.632  43.706  50.266  1.00  0.00     0.026 A 
HETATM   18  C   UNL     1      23.506  42.618  50.338  1.00  0.00     0.002 A 
HETATM   19  H   UNL     1      21.369  45.888  49.893  1.00  0.00     0.129 HD
HETATM   20  H   UNL     1      23.250  44.140  45.835  1.00  0.00     0.169 HD
ENDROOT
BRANCH  10  21
HETATM   21  C   UNL     1      19.548  51.035  48.984  1.00  0.00     0.034 A 
HETATM   22  C   UNL     1      18.580  51.290  49.966  1.00  0.00     0.051 A 
HETATM   23  C   UNL     1      17.397  51.933  49.576  1.00  0.00     0.085 A 
HETATM   24  C   UNL     1      17.200  52.256  48.237  1.00  0.00     0.062 A 
HETATM   25  N   UNL     1      16.324  52.327  50.337  1.00  0.00    -0.242 NA
HETATM   26  N   UNL     1      15.964  52.852  48.214  1.00  0.00    -0.349 N 
HETATM   27  C   UNL     1      18.126  51.972  47.232  1.00  0.00     0.033 A 
HETATM   28  H   UNL     1      15.493  53.209  47.396  1.00  0.00     0.167 HD
HETATM   29  C   UNL     1      15.482  52.877  49.492  1.00  0.00     0.208 A 
HETATM   30  C   UNL     1      19.311  51.347  47.637  1.00  0.00     0.019 A 
ENDBRANCH  10  21
TORSDOF 1
ENDMDL
