MODEL 1
REMARK VINA RESULT:      -7.6      0.000      0.000
REMARK  5 active torsions:
REMARK  status: ('A' for Active; 'I' for Inactive)
REMARK    1  A    between atoms: C_8  and  C_9 
REMARK    2  A    between atoms: C_11  and  O_12 
REMARK    3  A    between atoms: C_14  and  O_15 
REMARK    4  A    between atoms: C_18  and  C_19 
REMARK    5  A    between atoms: C_22  and  O_23 
ROOT
HETATM    1  C   UNL     1      28.067  52.879  41.394  1.00  0.00     0.070 C 
HETATM    2  C   UNL     1      29.453  52.404  41.175  1.00  0.00     0.033 A 
HETATM    3  N   UNL     1      30.510  53.276  41.149  1.00  0.00    -0.282 N 
HETATM    4  H   UNL     1      30.491  54.285  41.244  1.00  0.00     0.189 HD
HETATM    5  N   UNL     1      31.705  52.676  41.034  1.00  0.00    -0.179 NA
HETATM    6  C   UNL     1      31.396  51.384  40.915  1.00  0.00     0.066 A 
HETATM    7  C   UNL     1      29.995  51.149  40.964  1.00  0.00     0.001 A 
HETATM    8  C   UNL     1      29.412  49.764  40.943  1.00  0.00     0.070 C 
HETATM    9  C   UNL     1      30.458  48.677  40.572  1.00  0.00     0.102 C 
HETATM   10  C   UNL     1      31.853  48.936  41.213  1.00  0.00     0.071 C 
HETATM   11  C   UNL     1      31.779  48.813  42.747  1.00  0.00     0.047 C 
HETATM   12  C   UNL     1      32.432  50.320  40.809  1.00  0.00     0.100 C 
ENDROOT
BRANCH   8  13
HETATM   13  C   UNL     1      28.141  49.710  40.107  1.00  0.00    -0.046 A 
HETATM   14  C   UNL     1      26.990  48.986  40.479  1.00  0.00     0.047 A 
HETATM   15  C   UNL     1      25.848  48.999  39.675  1.00  0.00     0.101 A 
HETATM   16  C   UNL     1      25.823  49.804  38.535  1.00  0.00     0.099 A 
HETATM   17  C   UNL     1      26.930  50.544  38.155  1.00  0.00     0.040 A 
HETATM   18  C   UNL     1      28.087  50.490  38.933  1.00  0.00     0.011 A 
BRANCH  15  19
HETATM   19  O   UNL     1      24.698  48.299  39.938  1.00  0.00    -0.353 OA
HETATM   20  C   UNL     1      24.864  47.247  40.887  1.00  0.00     0.210 C 
ENDBRANCH  15  19
BRANCH  16  21
HETATM   21  O   UNL     1      24.696  49.871  37.764  1.00  0.00    -0.358 OA
HETATM   22  H   UNL     1      23.984  50.125  38.384  1.00  0.00     0.218 HD
ENDBRANCH  16  21
ENDBRANCH   8  13
BRANCH   9  23
HETATM   23  C   UNL     1      30.617  48.504  39.058  1.00  0.00     0.131 C 
HETATM   24  C   UNL     1      30.044  47.244  38.458  1.00  0.00     0.091 C 
HETATM   25  O   UNL     1      31.189  49.333  38.348  1.00  0.00    -0.298 OA
ENDBRANCH   9  23
BRANCH  10  26
HETATM   26  O   UNL     1      32.739  47.886  40.786  1.00  0.00    -0.389 OA
HETATM   27  H   UNL     1      32.850  47.264  41.530  1.00  0.00     0.210 HD
ENDBRANCH  10  26
TORSDOF 5
ENDMDL
MODEL 2
REMARK VINA RESULT:      -7.5      3.027      6.857
REMARK  5 active torsions:
REMARK  status: ('A' for Active; 'I' for Inactive)
REMARK    1  A    between atoms: C_8  and  C_9 
REMARK    2  A    between atoms: C_11  and  O_12 
REMARK    3  A    between atoms: C_14  and  O_15 
REMARK    4  A    between atoms: C_18  and  C_19 
REMARK    5  A    between atoms: C_22  and  O_23 
ROOT
HETATM    1  C   UNL     1      32.522  47.555  41.543  1.00  0.00     0.070 C 
HETATM    2  C   UNL     1      31.623  48.185  40.549  1.00  0.00     0.033 A 
HETATM    3  N   UNL     1      31.359  47.586  39.344  1.00  0.00    -0.282 N 
HETATM    4  H   UNL     1      31.729  46.713  38.986  1.00  0.00     0.189 HD
HETATM    5  N   UNL     1      30.454  48.241  38.600  1.00  0.00    -0.179 NA
HETATM    6  C   UNL     1      30.182  49.328  39.323  1.00  0.00     0.066 A 
HETATM    7  C   UNL     1      30.907  49.369  40.544  1.00  0.00     0.001 A 
HETATM    8  C   UNL     1      30.698  50.451  41.566  1.00  0.00     0.070 C 
HETATM    9  C   UNL     1      29.852  51.635  41.023  1.00  0.00     0.102 C 
HETATM   10  C   UNL     1      28.677  51.172  40.112  1.00  0.00     0.071 C 
HETATM   11  C   UNL     1      27.641  50.372  40.924  1.00  0.00     0.047 C 
HETATM   12  C   UNL     1      29.174  50.338  38.899  1.00  0.00     0.100 C 
ENDROOT
BRANCH   8  13
HETATM   13  C   UNL     1      32.014  50.873  42.205  1.00  0.00    -0.046 A 
HETATM   14  C   UNL     1      33.233  50.954  41.502  1.00  0.00     0.047 A 
HETATM   15  C   UNL     1      34.400  51.373  42.145  1.00  0.00     0.101 A 
HETATM   16  C   UNL     1      34.337  51.790  43.475  1.00  0.00     0.099 A 
HETATM   17  C   UNL     1      33.149  51.742  44.187  1.00  0.00     0.040 A 
HETATM   18  C   UNL     1      31.994  51.276  43.556  1.00  0.00     0.011 A 
BRANCH  15  19
HETATM   19  O   UNL     1      35.636  51.449  41.554  1.00  0.00    -0.353 OA
HETATM   20  C   UNL     1      35.943  50.340  40.709  1.00  0.00     0.210 C 
ENDBRANCH  15  19
BRANCH  16  21
HETATM   21  O   UNL     1      35.458  52.251  44.107  1.00  0.00    -0.358 OA
HETATM   22  H   UNL     1      35.411  51.873  45.007  1.00  0.00     0.218 HD
ENDBRANCH  16  21
ENDBRANCH   8  13
BRANCH   9  23
HETATM   23  C   UNL     1      30.699  52.671  40.275  1.00  0.00     0.131 C 
HETATM   24  C   UNL     1      30.898  54.001  40.958  1.00  0.00     0.091 C 
HETATM   25  O   UNL     1      31.193  52.455  39.167  1.00  0.00    -0.298 OA
ENDBRANCH   9  23
BRANCH  10  26
HETATM   26  O   UNL     1      27.982  52.345  39.654  1.00  0.00    -0.389 OA
HETATM   27  H   UNL     1      27.128  52.392  40.122  1.00  0.00     0.210 HD
ENDBRANCH  10  26
TORSDOF 5
ENDMDL
MODEL 3
REMARK VINA RESULT:      -7.4      2.967      5.338
REMARK  5 active torsions:
REMARK  status: ('A' for Active; 'I' for Inactive)
REMARK    1  A    between atoms: C_8  and  C_9 
REMARK    2  A    between atoms: C_11  and  O_12 
REMARK    3  A    between atoms: C_14  and  O_15 
REMARK    4  A    between atoms: C_18  and  C_19 
REMARK    5  A    between atoms: C_22  and  O_23 
ROOT
HETATM    1  C   UNL     1      28.087  52.187  38.296  1.00  0.00     0.070 C 
HETATM    2  C   UNL     1      27.769  50.874  38.904  1.00  0.00     0.033 A 
HETATM    3  N   UNL     1      26.518  50.598  39.391  1.00  0.00    -0.282 N 
HETATM    4  H   UNL     1      25.710  51.210  39.424  1.00  0.00     0.189 HD
HETATM    5  N   UNL     1      26.370  49.335  39.822  1.00  0.00    -0.179 NA
HETATM    6  C   UNL     1      27.585  48.808  39.666  1.00  0.00     0.066 A 
HETATM    7  C   UNL     1      28.518  49.732  39.123  1.00  0.00     0.001 A 
HETATM    8  C   UNL     1      29.926  49.339  38.772  1.00  0.00     0.070 C 
HETATM    9  C   UNL     1      30.317  47.944  39.330  1.00  0.00     0.102 C 
HETATM   10  C   UNL     1      29.161  46.906  39.230  1.00  0.00     0.071 C 
HETATM   11  C   UNL     1      28.835  46.592  37.758  1.00  0.00     0.047 C 
HETATM   12  C   UNL     1      27.884  47.383  39.977  1.00  0.00     0.100 C 
ENDROOT
BRANCH   8  13
HETATM   13  C   UNL     1      30.913  50.444  39.122  1.00  0.00    -0.046 A 
HETATM   14  C   UNL     1      30.875  51.173  40.327  1.00  0.00     0.047 A 
HETATM   15  C   UNL     1      31.828  52.159  40.595  1.00  0.00     0.101 A 
HETATM   16  C   UNL     1      32.873  52.363  39.693  1.00  0.00     0.099 A 
HETATM   17  C   UNL     1      32.950  51.647  38.509  1.00  0.00     0.040 A 
HETATM   18  C   UNL     1      31.968  50.698  38.222  1.00  0.00     0.011 A 
BRANCH  15  19
HETATM   19  O   UNL     1      31.850  52.942  41.721  1.00  0.00    -0.353 OA
HETATM   20  C   UNL     1      30.715  52.768  42.569  1.00  0.00     0.210 C 
ENDBRANCH  15  19
BRANCH  16  21
HETATM   21  O   UNL     1      33.844  53.287  39.961  1.00  0.00    -0.358 OA
HETATM   22  H   UNL     1      34.224  53.510  39.089  1.00  0.00     0.218 HD
ENDBRANCH  16  21
ENDBRANCH   8  13
BRANCH   9  23
HETATM   23  C   UNL     1      30.822  48.006  40.776  1.00  0.00     0.131 C 
HETATM   24  C   UNL     1      32.305  47.821  40.982  1.00  0.00     0.091 C 
HETATM   25  O   UNL     1      30.073  48.187  41.737  1.00  0.00    -0.298 OA
ENDBRANCH   9  23
BRANCH  10  26
HETATM   26  O   UNL     1      29.627  45.666  39.792  1.00  0.00    -0.389 OA
HETATM   27  H   UNL     1      30.094  45.175  39.091  1.00  0.00     0.210 HD
ENDBRANCH  10  26
TORSDOF 5
ENDMDL
MODEL 4
REMARK VINA RESULT:      -7.2      1.649      2.570
REMARK  5 active torsions:
REMARK  status: ('A' for Active; 'I' for Inactive)
REMARK    1  A    between atoms: C_8  and  C_9 
REMARK    2  A    between atoms: C_11  and  O_12 
REMARK    3  A    between atoms: C_14  and  O_15 
REMARK    4  A    between atoms: C_18  and  C_19 
REMARK    5  A    between atoms: C_22  and  O_23 
ROOT
HETATM    1  C   UNL     1      27.694  52.597  41.319  1.00  0.00     0.070 C 
HETATM    2  C   UNL     1      29.169  52.715  41.249  1.00  0.00     0.033 A 
HETATM    3  N   UNL     1      29.775  53.885  40.871  1.00  0.00    -0.282 N 
HETATM    4  H   UNL     1      29.335  54.754  40.589  1.00  0.00     0.189 HD
HETATM    5  N   UNL     1      31.114  53.852  40.949  1.00  0.00    -0.179 NA
HETATM    6  C   UNL     1      31.375  52.599  41.323  1.00  0.00     0.066 A 
HETATM    7  C   UNL     1      30.197  51.823  41.498  1.00  0.00     0.001 A 
HETATM    8  C   UNL     1      30.235  50.409  42.006  1.00  0.00     0.070 C 
HETATM    9  C   UNL     1      31.671  49.817  42.029  1.00  0.00     0.102 C 
HETATM   10  C   UNL     1      32.743  50.849  42.487  1.00  0.00     0.071 C 
HETATM   11  C   UNL     1      32.526  51.244  43.960  1.00  0.00     0.047 C 
HETATM   12  C   UNL     1      32.758  52.113  41.584  1.00  0.00     0.100 C 
ENDROOT
BRANCH   8  13
HETATM   13  C   UNL     1      29.217  49.534  41.287  1.00  0.00    -0.046 A 
HETATM   14  C   UNL     1      28.794  49.755  39.961  1.00  0.00     0.047 A 
HETATM   15  C   UNL     1      27.874  48.897  39.354  1.00  0.00     0.101 A 
HETATM   16  C   UNL     1      27.434  47.767  40.043  1.00  0.00     0.099 A 
HETATM   17  C   UNL     1      27.848  47.511  41.340  1.00  0.00     0.040 A 
HETATM   18  C   UNL     1      28.729  48.396  41.962  1.00  0.00     0.011 A 
BRANCH  15  19
HETATM   19  O   UNL     1      27.379  49.053  38.084  1.00  0.00    -0.353 OA
HETATM   20  C   UNL     1      26.458  50.134  37.949  1.00  0.00     0.210 C 
ENDBRANCH  15  19
BRANCH  16  21
HETATM   21  O   UNL     1      26.573  46.888  39.447  1.00  0.00    -0.358 OA
HETATM   22  H   UNL     1      27.091  46.066  39.340  1.00  0.00     0.218 HD
ENDBRANCH  16  21
ENDBRANCH   8  13
BRANCH   9  23
HETATM   23  C   UNL     1      32.084  49.218  40.681  1.00  0.00     0.131 C 
HETATM   24  C   UNL     1      32.143  47.712  40.601  1.00  0.00     0.091 C 
HETATM   25  O   UNL     1      32.369  49.909  39.702  1.00  0.00    -0.298 OA
ENDBRANCH   9  23
BRANCH  10  26
HETATM   26  O   UNL     1      34.027  50.201  42.450  1.00  0.00    -0.389 OA
HETATM   27  H   UNL     1      34.106  49.642  43.245  1.00  0.00     0.210 HD
ENDBRANCH  10  26
TORSDOF 5
ENDMDL
MODEL 5
REMARK VINA RESULT:      -7.1      2.195      3.578
REMARK  5 active torsions:
REMARK  status: ('A' for Active; 'I' for Inactive)
REMARK    1  A    between atoms: C_8  and  C_9 
REMARK    2  A    between atoms: C_11  and  O_12 
REMARK    3  A    between atoms: C_14  and  O_15 
REMARK    4  A    between atoms: C_18  and  C_19 
REMARK    5  A    between atoms: C_22  and  O_23 
ROOT
HETATM    1  C   UNL     1      30.266  47.127  38.698  1.00  0.00     0.070 C 
HETATM    2  C   UNL     1      30.993  48.022  39.628  1.00  0.00     0.033 A 
HETATM    3  N   UNL     1      32.013  47.556  40.417  1.00  0.00    -0.282 N 
HETATM    4  H   UNL     1      32.367  46.609  40.486  1.00  0.00     0.189 HD
HETATM    5  N   UNL     1      32.626  48.512  41.132  1.00  0.00    -0.179 NA
HETATM    6  C   UNL     1      31.932  49.613  40.841  1.00  0.00     0.066 A 
HETATM    7  C   UNL     1      30.873  49.368  39.926  1.00  0.00     0.001 A 
HETATM    8  C   UNL     1      30.012  50.472  39.379  1.00  0.00     0.070 C 
HETATM    9  C   UNL     1      30.210  51.817  40.131  1.00  0.00     0.102 C 
HETATM   10  C   UNL     1      31.697  52.087  40.504  1.00  0.00     0.071 C 
HETATM   11  C   UNL     1      32.550  52.290  39.237  1.00  0.00     0.047 C 
HETATM   12  C   UNL     1      32.293  50.953  41.382  1.00  0.00     0.100 C 
ENDROOT
BRANCH   8  13
HETATM   13  C   UNL     1      28.557  50.036  39.265  1.00  0.00    -0.046 A 
HETATM   14  C   UNL     1      27.923  49.180  40.188  1.00  0.00     0.047 A 
HETATM   15  C   UNL     1      26.577  48.839  40.036  1.00  0.00     0.101 A 
HETATM   16  C   UNL     1      25.836  49.419  39.005  1.00  0.00     0.099 A 
HETATM   17  C   UNL     1      26.426  50.281  38.095  1.00  0.00     0.040 A 
HETATM   18  C   UNL     1      27.783  50.581  38.220  1.00  0.00     0.011 A 
BRANCH  15  19
HETATM   19  O   UNL     1      25.887  47.988  40.861  1.00  0.00    -0.353 OA
HETATM   20  C   UNL     1      26.395  46.654  40.873  1.00  0.00     0.210 C 
ENDBRANCH  15  19
BRANCH  16  21
HETATM   21  O   UNL     1      24.505  49.138  38.871  1.00  0.00    -0.358 OA
HETATM   22  H   UNL     1      24.050  49.967  39.117  1.00  0.00     0.218 HD
ENDBRANCH  16  21
ENDBRANCH   8  13
BRANCH   9  23
HETATM   23  C   UNL     1      29.341  51.924  41.388  1.00  0.00     0.131 C 
HETATM   24  C   UNL     1      28.109  52.789  41.287  1.00  0.00     0.091 C 
HETATM   25  O   UNL     1      29.620  51.351  42.443  1.00  0.00    -0.298 OA
ENDBRANCH   9  23
BRANCH  10  26
HETATM   26  O   UNL     1      31.757  53.340  41.209  1.00  0.00    -0.389 OA
HETATM   27  H   UNL     1      30.869  53.743  41.184  1.00  0.00     0.210 HD
ENDBRANCH  10  26
TORSDOF 5
ENDMDL
MODEL 6
REMARK VINA RESULT:      -7.0     11.945     13.756
REMARK  5 active torsions:
REMARK  status: ('A' for Active; 'I' for Inactive)
REMARK    1  A    between atoms: C_8  and  C_9 
REMARK    2  A    between atoms: C_11  and  O_12 
REMARK    3  A    between atoms: C_14  and  O_15 
REMARK    4  A    between atoms: C_18  and  C_19 
REMARK    5  A    between atoms: C_22  and  O_23 
ROOT
HETATM    1  C   UNL     1      26.367  42.391  48.835  1.00  0.00     0.070 C 
HETATM    2  C   UNL     1      26.784  41.934  50.181  1.00  0.00     0.033 A 
HETATM    3  N   UNL     1      26.749  40.608  50.528  1.00  0.00    -0.282 N 
HETATM    4  H   UNL     1      26.435  39.824  49.967  1.00  0.00     0.189 HD
HETATM    5  N   UNL     1      27.246  40.353  51.748  1.00  0.00    -0.179 NA
HETATM    6  C   UNL     1      27.548  41.562  52.221  1.00  0.00     0.066 A 
HETATM    7  C   UNL     1      27.252  42.602  51.298  1.00  0.00     0.001 A 
HETATM    8  C   UNL     1      27.591  44.040  51.573  1.00  0.00     0.070 C 
HETATM    9  C   UNL     1      28.009  44.288  53.048  1.00  0.00     0.102 C 
HETATM   10  C   UNL     1      28.894  43.145  53.627  1.00  0.00     0.071 C 
HETATM   11  C   UNL     1      30.253  43.088  52.904  1.00  0.00     0.047 C 
HETATM   12  C   UNL     1      28.184  41.765  53.552  1.00  0.00     0.100 C 
ENDROOT
BRANCH   8  13
HETATM   13  C   UNL     1      26.496  44.973  51.075  1.00  0.00    -0.046 A 
HETATM   14  C   UNL     1      26.747  46.202  50.433  1.00  0.00     0.047 A 
HETATM   15  C   UNL     1      25.694  46.999  49.980  1.00  0.00     0.101 A 
HETATM   16  C   UNL     1      24.384  46.531  50.094  1.00  0.00     0.099 A 
HETATM   17  C   UNL     1      24.106  45.317  50.701  1.00  0.00     0.040 A 
HETATM   18  C   UNL     1      25.158  44.546  51.197  1.00  0.00     0.011 A 
BRANCH  15  19
HETATM   19  O   UNL     1      25.841  48.223  49.378  1.00  0.00    -0.353 OA
HETATM   20  C   UNL     1      27.199  48.622  49.199  1.00  0.00     0.210 C 
ENDBRANCH  15  19
BRANCH  16  21
HETATM   21  O   UNL     1      23.343  47.273  49.609  1.00  0.00    -0.358 OA
HETATM   22  H   UNL     1      23.332  47.090  48.649  1.00  0.00     0.218 HD
ENDBRANCH  16  21
ENDBRANCH   8  13
BRANCH   9  23
HETATM   23  C   UNL     1      26.808  44.519  53.971  1.00  0.00     0.131 C 
HETATM   24  C   UNL     1      26.524  45.948  54.365  1.00  0.00     0.091 C 
HETATM   25  O   UNL     1      26.102  43.601  54.391  1.00  0.00    -0.298 OA
ENDBRANCH   9  23
BRANCH  10  26
HETATM   26  O   UNL     1      29.200  43.469  54.994  1.00  0.00    -0.389 OA
HETATM   27  H   UNL     1      28.501  43.091  55.559  1.00  0.00     0.210 HD
ENDBRANCH  10  26
TORSDOF 5
ENDMDL
MODEL 7
REMARK VINA RESULT:      -6.9      2.422      4.063
REMARK  5 active torsions:
REMARK  status: ('A' for Active; 'I' for Inactive)
REMARK    1  A    between atoms: C_8  and  C_9 
REMARK    2  A    between atoms: C_11  and  O_12 
REMARK    3  A    between atoms: C_14  and  O_15 
REMARK    4  A    between atoms: C_18  and  C_19 
REMARK    5  A    between atoms: C_22  and  O_23 
ROOT
HETATM    1  C   UNL     1      31.327  48.547  42.728  1.00  0.00     0.070 C 
HETATM    2  C   UNL     1      31.071  49.841  42.055  1.00  0.00     0.033 A 
HETATM    3  N   UNL     1      31.300  51.034  42.690  1.00  0.00    -0.282 N 
HETATM    4  H   UNL     1      31.626  51.185  43.638  1.00  0.00     0.189 HD
HETATM    5  N   UNL     1      31.106  52.110  41.910  1.00  0.00    -0.179 NA
HETATM    6  C   UNL     1      30.676  51.589  40.761  1.00  0.00     0.066 A 
HETATM    7  C   UNL     1      30.601  50.170  40.796  1.00  0.00     0.001 A 
HETATM    8  C   UNL     1      30.231  49.355  39.588  1.00  0.00     0.070 C 
HETATM    9  C   UNL     1      29.669  50.221  38.428  1.00  0.00     0.102 C 
HETATM   10  C   UNL     1      30.419  51.576  38.266  1.00  0.00     0.071 C 
HETATM   11  C   UNL     1      31.877  51.343  37.826  1.00  0.00     0.047 C 
HETATM   12  C   UNL     1      30.375  52.425  39.566  1.00  0.00     0.100 C 
ENDROOT
BRANCH   8  13
HETATM   13  C   UNL     1      29.344  48.176  39.965  1.00  0.00    -0.046 A 
HETATM   14  C   UNL     1      29.587  46.851  39.550  1.00  0.00     0.047 A 
HETATM   15  C   UNL     1      28.746  45.812  39.953  1.00  0.00     0.101 A 
HETATM   16  C   UNL     1      27.703  46.080  40.841  1.00  0.00     0.099 A 
HETATM   17  C   UNL     1      27.453  47.369  41.284  1.00  0.00     0.040 A 
HETATM   18  C   UNL     1      28.265  48.413  40.841  1.00  0.00     0.011 A 
BRANCH  15  19
HETATM   19  O   UNL     1      28.882  44.501  39.571  1.00  0.00    -0.353 OA
HETATM   20  C   UNL     1      29.218  44.331  38.194  1.00  0.00     0.210 C 
ENDBRANCH  15  19
BRANCH  16  21
HETATM   21  O   UNL     1      26.901  45.068  41.287  1.00  0.00    -0.358 OA
HETATM   22  H   UNL     1      27.496  44.298  41.377  1.00  0.00     0.218 HD
ENDBRANCH  16  21
ENDBRANCH   8  13
BRANCH   9  23
HETATM   23  C   UNL     1      28.165  50.485  38.563  1.00  0.00     0.131 C 
HETATM   24  C   UNL     1      27.248  49.586  37.772  1.00  0.00     0.091 C 
HETATM   25  O   UNL     1      27.706  51.386  39.267  1.00  0.00    -0.298 OA
ENDBRANCH   9  23
BRANCH  10  26
HETATM   26  O   UNL     1      29.804  52.298  37.184  1.00  0.00    -0.389 OA
HETATM   27  H   UNL     1      30.206  53.185  37.146  1.00  0.00     0.210 HD
ENDBRANCH  10  26
TORSDOF 5
ENDMDL
MODEL 8
REMARK VINA RESULT:      -6.9      2.482      3.889
REMARK  5 active torsions:
REMARK  status: ('A' for Active; 'I' for Inactive)
REMARK    1  A    between atoms: C_8  and  C_9 
REMARK    2  A    between atoms: C_11  and  O_12 
REMARK    3  A    between atoms: C_14  and  O_15 
REMARK    4  A    between atoms: C_18  and  C_19 
REMARK    5  A    between atoms: C_22  and  O_23 
ROOT
HETATM    1  C   UNL     1      30.390  47.483  40.576  1.00  0.00     0.070 C 
HETATM    2  C   UNL     1      31.315  48.550  41.022  1.00  0.00     0.033 A 
HETATM    3  N   UNL     1      32.227  48.332  42.022  1.00  0.00    -0.282 N 
HETATM    4  H   UNL     1      32.367  47.489  42.567  1.00  0.00     0.189 HD
HETATM    5  N   UNL     1      33.050  49.369  42.242  1.00  0.00    -0.179 NA
HETATM    6  C   UNL     1      32.606  50.304  41.400  1.00  0.00     0.066 A 
HETATM    7  C   UNL     1      31.498  49.863  40.628  1.00  0.00     0.001 A 
HETATM    8  C   UNL     1      30.885  50.710  39.547  1.00  0.00     0.070 C 
HETATM    9  C   UNL     1      31.389  52.179  39.576  1.00  0.00     0.102 C 
HETATM   10  C   UNL     1      32.908  52.291  39.901  1.00  0.00     0.071 C 
HETATM   11  C   UNL     1      33.754  51.675  38.770  1.00  0.00     0.047 C 
HETATM   12  C   UNL     1      33.262  51.633  41.263  1.00  0.00     0.100 C 
ENDROOT
BRANCH   8  13
HETATM   13  C   UNL     1      29.369  50.576  39.531  1.00  0.00    -0.046 A 
HETATM   14  C   UNL     1      28.616  50.356  38.360  1.00  0.00     0.047 A 
HETATM   15  C   UNL     1      27.227  50.219  38.420  1.00  0.00     0.101 A 
HETATM   16  C   UNL     1      26.592  50.220  39.662  1.00  0.00     0.099 A 
HETATM   17  C   UNL     1      27.308  50.413  40.833  1.00  0.00     0.040 A 
HETATM   18  C   UNL     1      28.689  50.599  40.766  1.00  0.00     0.011 A 
BRANCH  15  19
HETATM   19  O   UNL     1      26.411  50.039  37.332  1.00  0.00    -0.353 OA
HETATM   20  C   UNL     1      26.213  48.671  36.977  1.00  0.00     0.210 C 
ENDBRANCH  15  19
BRANCH  16  21
HETATM   21  O   UNL     1      25.241  50.036  39.746  1.00  0.00    -0.358 OA
HETATM   22  H   UNL     1      25.096  49.114  39.455  1.00  0.00     0.218 HD
ENDBRANCH  16  21
ENDBRANCH   8  13
BRANCH   9  23
HETATM   23  C   UNL     1      30.594  53.056  40.549  1.00  0.00     0.131 C 
HETATM   24  C   UNL     1      29.519  53.928  39.948  1.00  0.00     0.091 C 
HETATM   25  O   UNL     1      30.811  53.074  41.761  1.00  0.00    -0.298 OA
ENDBRANCH   9  23
BRANCH  10  26
HETATM   26  O   UNL     1      33.255  53.687  39.921  1.00  0.00    -0.389 OA
HETATM   27  H   UNL     1      32.773  54.107  40.658  1.00  0.00     0.210 HD
ENDBRANCH  10  26
TORSDOF 5
ENDMDL
MODEL 9
REMARK VINA RESULT:      -6.7     12.279     14.047
REMARK  5 active torsions:
REMARK  status: ('A' for Active; 'I' for Inactive)
REMARK    1  A    between atoms: C_8  and  C_9 
REMARK    2  A    between atoms: C_11  and  O_12 
REMARK    3  A    between atoms: C_14  and  O_15 
REMARK    4  A    between atoms: C_18  and  C_19 
REMARK    5  A    between atoms: C_22  and  O_23 
ROOT
HETATM    1  C   UNL     1      27.150  41.669  48.971  1.00  0.00     0.070 C 
HETATM    2  C   UNL     1      27.605  41.358  50.346  1.00  0.00     0.033 A 
HETATM    3  N   UNL     1      27.840  40.068  50.745  1.00  0.00    -0.282 N 
HETATM    4  H   UNL     1      27.722  39.216  50.207  1.00  0.00     0.189 HD
HETATM    5  N   UNL     1      28.335  39.966  51.988  1.00  0.00    -0.179 NA
HETATM    6  C   UNL     1      28.354  41.227  52.421  1.00  0.00     0.066 A 
HETATM    7  C   UNL     1      27.878  42.147  51.448  1.00  0.00     0.001 A 
HETATM    8  C   UNL     1      27.891  43.633  51.674  1.00  0.00     0.070 C 
HETATM    9  C   UNL     1      28.192  44.014  53.150  1.00  0.00     0.102 C 
HETATM   10  C   UNL     1      29.278  43.107  53.800  1.00  0.00     0.071 C 
HETATM   11  C   UNL     1      30.644  43.320  53.120  1.00  0.00     0.047 C 
HETATM   12  C   UNL     1      28.882  41.605  53.760  1.00  0.00     0.100 C 
ENDROOT
BRANCH   8  13
HETATM   13  C   UNL     1      26.641  44.292  51.108  1.00  0.00    -0.046 A 
HETATM   14  C   UNL     1      25.355  43.720  51.180  1.00  0.00     0.047 A 
HETATM   15  C   UNL     1      24.246  44.390  50.660  1.00  0.00     0.101 A 
HETATM   16  C   UNL     1      24.405  45.675  50.139  1.00  0.00     0.099 A 
HETATM   17  C   UNL     1      25.653  46.273  50.074  1.00  0.00     0.040 A 
HETATM   18  C   UNL     1      26.767  45.580  50.549  1.00  0.00     0.011 A 
BRANCH  15  19
HETATM   19  O   UNL     1      22.966  43.898  50.653  1.00  0.00    -0.353 OA
HETATM   20  C   UNL     1      22.774  42.795  49.768  1.00  0.00     0.210 C 
ENDBRANCH  15  19
BRANCH  16  21
HETATM   21  O   UNL     1      23.323  46.368  49.673  1.00  0.00    -0.358 OA
HETATM   22  H   UNL     1      22.960  45.812  48.956  1.00  0.00     0.218 HD
ENDBRANCH  16  21
ENDBRANCH   8  13
BRANCH   9  23
HETATM   23  C   UNL     1      26.935  44.012  54.027  1.00  0.00     0.131 C 
HETATM   24  C   UNL     1      26.287  45.351  54.281  1.00  0.00     0.091 C 
HETATM   25  O   UNL     1      26.466  42.985  54.520  1.00  0.00    -0.298 OA
ENDBRANCH   9  23
BRANCH  10  26
HETATM   26  O   UNL     1      29.457  43.535  55.162  1.00  0.00    -0.389 OA
HETATM   27  H   UNL     1      28.941  42.939  55.736  1.00  0.00     0.210 HD
ENDBRANCH  10  26
TORSDOF 5
ENDMDL
MODEL 10
REMARK VINA RESULT:      -6.7      2.547      4.150
REMARK  5 active torsions:
REMARK  status: ('A' for Active; 'I' for Inactive)
REMARK    1  A    between atoms: C_8  and  C_9 
REMARK    2  A    between atoms: C_11  and  O_12 
REMARK    3  A    between atoms: C_14  and  O_15 
REMARK    4  A    between atoms: C_18  and  C_19 
REMARK    5  A    between atoms: C_22  and  O_23 
ROOT
HETATM    1  C   UNL     1      32.516  47.489  41.223  1.00  0.00     0.070 C 
HETATM    2  C   UNL     1      31.918  48.745  41.732  1.00  0.00     0.033 A 
HETATM    3  N   UNL     1      32.337  49.310  42.908  1.00  0.00    -0.282 N 
HETATM    4  H   UNL     1      33.039  48.964  43.553  1.00  0.00     0.189 HD
HETATM    5  N   UNL     1      31.761  50.491  43.179  1.00  0.00    -0.179 NA
HETATM    6  C   UNL     1      30.897  50.654  42.176  1.00  0.00     0.066 A 
HETATM    7  C   UNL     1      30.923  49.577  41.250  1.00  0.00     0.001 A 
HETATM    8  C   UNL     1      30.104  49.581  39.989  1.00  0.00     0.070 C 
HETATM    9  C   UNL     1      29.041  50.713  39.968  1.00  0.00     0.102 C 
HETATM   10  C   UNL     1      29.567  52.048  40.571  1.00  0.00     0.071 C 
HETATM   11  C   UNL     1      30.691  52.636  39.697  1.00  0.00     0.047 C 
HETATM   12  C   UNL     1      30.054  51.873  42.036  1.00  0.00     0.100 C 
ENDROOT
BRANCH   8  13
HETATM   13  C   UNL     1      29.542  48.198  39.689  1.00  0.00    -0.046 A 
HETATM   14  C   UNL     1      28.810  47.433  40.619  1.00  0.00     0.047 A 
HETATM   15  C   UNL     1      28.301  46.180  40.270  1.00  0.00     0.101 A 
HETATM   16  C   UNL     1      28.452  45.722  38.961  1.00  0.00     0.099 A 
HETATM   17  C   UNL     1      29.147  46.461  38.017  1.00  0.00     0.040 A 
HETATM   18  C   UNL     1      29.698  47.689  38.383  1.00  0.00     0.011 A 
BRANCH  15  19
HETATM   19  O   UNL     1      27.609  45.352  41.117  1.00  0.00    -0.353 OA
HETATM   20  C   UNL     1      26.310  45.831  41.463  1.00  0.00     0.210 C 
ENDBRANCH  15  19
BRANCH  16  21
HETATM   21  O   UNL     1      27.916  44.522  38.585  1.00  0.00    -0.358 OA
HETATM   22  H   UNL     1      28.606  43.863  38.798  1.00  0.00     0.218 HD
ENDBRANCH  16  21
ENDBRANCH   8  13
BRANCH   9  23
HETATM   23  C   UNL     1      27.739  50.314  40.671  1.00  0.00     0.131 C 
HETATM   24  C   UNL     1      26.557  50.010  39.783  1.00  0.00     0.091 C 
HETATM   25  O   UNL     1      27.636  50.248  41.897  1.00  0.00    -0.298 OA
ENDBRANCH   9  23
BRANCH  10  26
HETATM   26  O   UNL     1      28.498  53.010  40.518  1.00  0.00    -0.389 OA
HETATM   27  H   UNL     1      28.327  53.322  41.426  1.00  0.00     0.210 HD
ENDBRANCH  10  26
TORSDOF 5
ENDMDL
