MODEL 1
REMARK VINA RESULT:      -7.9      0.000      0.000
REMARK  8 active torsions:
REMARK  status: ('A' for Active; 'I' for Inactive)
REMARK    1  A    between atoms: C_2  and  O_3 
REMARK    2  A    between atoms: O_3  and  C_4 
REMARK    3  A    between atoms: C_5  and  O_6 
REMARK    4  A    between atoms: O_6  and  C_7 
REMARK       I    between atoms: C_7  and  N_8 
REMARK    5  A    between atoms: C_18  and  C_19 
REMARK    6  A    between atoms: C_23  and  N_24 
REMARK    7  A    between atoms: C_31  and  C_32 
REMARK    8  A    between atoms: C_35  and  O_36 
ROOT
HETATM    1  C   UNL     1      20.713  45.863  46.209  1.00  0.00     0.106 A 
HETATM    2  C   UNL     1      21.099  44.719  45.265  1.00  0.00     0.081 A 
HETATM    3  C   UNL     1      22.344  44.847  44.580  1.00  0.00     0.100 C 
HETATM    4  N   UNL     1      23.361  44.971  44.036  1.00  0.00    -0.191 NA
HETATM    5  C   UNL     1      20.286  43.659  45.012  1.00  0.00     0.140 A 
HETATM    6  O   UNL     1      19.022  43.529  45.612  1.00  0.00    -0.279 OA
HETATM    7  C   UNL     1      18.635  44.530  46.393  1.00  0.00     0.175 A 
HETATM    8  C   UNL     1      19.331  45.662  46.733  1.00  0.00     0.040 A 
HETATM    9  N   UNL     1      17.438  44.596  47.024  1.00  0.00    -0.256 N 
HETATM   10  H   UNL     1      16.676  43.928  46.999  1.00  0.00     0.191 HD
HETATM   11  N   UNL     1      17.308  45.704  47.776  1.00  0.00    -0.172 NA
HETATM   12  C   UNL     1      18.455  46.385  47.592  1.00  0.00     0.099 A 
ENDROOT
BRANCH   1  13
HETATM   13  C   UNL     1      21.664  46.004  47.398  1.00  0.00    -0.040 A 
HETATM   14  C   UNL     1      22.298  47.210  47.751  1.00  0.00     0.030 A 
HETATM   15  C   UNL     1      23.214  47.250  48.802  1.00  0.00     0.048 A 
HETATM   16  C   UNL     1      23.461  46.100  49.553  1.00  0.00     0.131 A 
HETATM   17 BR   UNL     1      24.099  48.886  49.172  1.00  0.00    -0.048 Br
HETATM   18  C   UNL     1      22.749  44.918  49.314  1.00  0.00     0.104 A 
HETATM   19  C   UNL     1      21.889  44.869  48.213  1.00  0.00     0.048 A 
BRANCH  16  20
HETATM   20  O   UNL     1      24.399  46.151  50.590  1.00  0.00    -0.257 OA
BRANCH  20  21
HETATM   21  C   UNL     1      25.623  45.598  50.227  1.00  0.00     0.368 C 
HETATM   22  N   UNL     1      26.148  44.783  51.217  1.00  0.00    -0.324 N 
HETATM   23  C   UNL     1      27.294  43.935  50.903  1.00  0.00     0.154 C 
HETATM   24  C   UNL     1      25.430  44.434  52.440  1.00  0.00     0.154 C 
HETATM   25  C   UNL     1      28.183  43.723  52.131  1.00  0.00     0.187 C 
HETATM   26  O   UNL     1      27.417  43.250  53.249  1.00  0.00    -0.388 OA
HETATM   27  C   UNL     1      26.404  44.204  53.602  1.00  0.00     0.187 C 
HETATM   28  O   UNL     1      26.202  45.811  49.165  1.00  0.00    -0.238 OA
ENDBRANCH  20  21
ENDBRANCH  16  20
BRANCH  18  29
HETATM   29  O   UNL     1      22.980  43.885  50.180  1.00  0.00    -0.349 OA
BRANCH  29  30
HETATM   30  C   UNL     1      23.018  42.552  49.670  1.00  0.00     0.171 C 
HETATM   31  C   UNL     1      24.422  42.153  49.242  1.00  0.00     0.034 C 
ENDBRANCH  29  30
ENDBRANCH  18  29
ENDBRANCH   1  13
BRANCH   5  32
HETATM   32  N   UNL     1      20.573  42.618  44.158  1.00  0.00    -0.282 NA
HETATM   33  H   UNL     1      21.548  42.525  43.885  1.00  0.00     0.126 HD
HETATM   34  H   UNL     1      20.160  41.741  44.467  1.00  0.00     0.126 HD
ENDBRANCH   5  32
BRANCH  12  35
HETATM   35  C   UNL     1      18.690  47.651  48.281  1.00  0.00    -0.005 A 
HETATM   36  C   UNL     1      18.874  48.824  47.540  1.00  0.00     0.016 A 
HETATM   37  C   UNL     1      19.072  50.045  48.187  1.00  0.00     0.037 A 
HETATM   38  C   UNL     1      19.091  50.117  49.581  1.00  0.00     0.068 A 
HETATM   39  C   UNL     1      18.926  48.948  50.326  1.00  0.00     0.037 A 
HETATM   40  C   UNL     1      18.728  47.721  49.679  1.00  0.00     0.016 A 
BRANCH  38  41
HETATM   41  O   UNL     1      19.299  51.369  50.089  1.00  0.00    -0.356 OA
HETATM   42  C   UNL     1      18.285  52.334  49.836  1.00  0.00     0.210 C 
ENDBRANCH  38  41
ENDBRANCH  12  35
TORSDOF 8
ENDMDL
MODEL 2
REMARK VINA RESULT:      -7.9      2.479      5.698
REMARK  8 active torsions:
REMARK  status: ('A' for Active; 'I' for Inactive)
REMARK    1  A    between atoms: C_2  and  O_3 
REMARK    2  A    between atoms: O_3  and  C_4 
REMARK    3  A    between atoms: C_5  and  O_6 
REMARK    4  A    between atoms: O_6  and  C_7 
REMARK       I    between atoms: C_7  and  N_8 
REMARK    5  A    between atoms: C_18  and  C_19 
REMARK    6  A    between atoms: C_23  and  N_24 
REMARK    7  A    between atoms: C_31  and  C_32 
REMARK    8  A    between atoms: C_35  and  O_36 
ROOT
HETATM    1  C   UNL     1      18.970  48.024  48.695  1.00  0.00     0.106 A 
HETATM    2  C   UNL     1      18.514  49.139  49.642  1.00  0.00     0.081 A 
HETATM    3  C   UNL     1      18.633  48.881  51.039  1.00  0.00     0.100 C 
HETATM    4  N   UNL     1      18.740  48.650  52.172  1.00  0.00    -0.191 NA
HETATM    5  C   UNL     1      17.951  50.298  49.206  1.00  0.00     0.140 A 
HETATM    6  O   UNL     1      17.752  50.562  47.841  1.00  0.00    -0.279 OA
HETATM    7  C   UNL     1      18.086  49.594  46.998  1.00  0.00     0.175 A 
HETATM    8  C   UNL     1      18.649  48.376  47.282  1.00  0.00     0.040 A 
HETATM    9  N   UNL     1      17.932  49.655  45.653  1.00  0.00    -0.256 N 
HETATM   10  H   UNL     1      17.548  50.412  45.098  1.00  0.00     0.191 HD
HETATM   11  N   UNL     1      18.376  48.550  45.028  1.00  0.00    -0.172 NA
HETATM   12  C   UNL     1      18.802  47.740  46.017  1.00  0.00     0.099 A 
ENDROOT
BRANCH   1  13
HETATM   13  C   UNL     1      20.468  47.733  48.792  1.00  0.00    -0.040 A 
HETATM   14  C   UNL     1      21.023  46.445  48.664  1.00  0.00     0.030 A 
HETATM   15  C   UNL     1      22.391  46.240  48.839  1.00  0.00     0.048 A 
HETATM   16  C   UNL     1      23.231  47.328  49.083  1.00  0.00     0.131 A 
HETATM   17 BR   UNL     1      23.063  44.469  48.741  1.00  0.00    -0.048 Br
HETATM   18  C   UNL     1      22.732  48.636  49.083  1.00  0.00     0.104 A 
HETATM   19  C   UNL     1      21.351  48.823  48.980  1.00  0.00     0.048 A 
BRANCH  16  20
HETATM   20  O   UNL     1      24.599  47.103  49.278  1.00  0.00    -0.257 OA
BRANCH  20  21
HETATM   21  C   UNL     1      24.917  46.895  50.617  1.00  0.00     0.368 C 
HETATM   22  N   UNL     1      25.830  45.868  50.788  1.00  0.00    -0.324 N 
HETATM   23  C   UNL     1      26.455  45.686  52.096  1.00  0.00     0.154 C 
HETATM   24  C   UNL     1      26.490  45.180  49.681  1.00  0.00     0.154 C 
HETATM   25  C   UNL     1      26.781  44.214  52.357  1.00  0.00     0.187 C 
HETATM   26  O   UNL     1      27.547  43.653  51.280  1.00  0.00    -0.388 OA
HETATM   27  C   UNL     1      26.810  43.727  50.050  1.00  0.00     0.187 C 
HETATM   28  O   UNL     1      24.437  47.522  51.558  1.00  0.00    -0.238 OA
ENDBRANCH  20  21
ENDBRANCH  16  20
BRANCH  18  29
HETATM   29  O   UNL     1      23.655  49.637  49.212  1.00  0.00    -0.349 OA
BRANCH  29  30
HETATM   30  C   UNL     1      24.172  50.255  48.033  1.00  0.00     0.171 C 
HETATM   31  C   UNL     1      25.678  50.082  47.921  1.00  0.00     0.034 C 
ENDBRANCH  29  30
ENDBRANCH  18  29
ENDBRANCH   1  13
BRANCH   5  32
HETATM   32  N   UNL     1      17.503  51.321  50.012  1.00  0.00    -0.282 NA
HETATM   33  H   UNL     1      16.921  52.020  49.558  1.00  0.00     0.126 HD
HETATM   34  H   UNL     1      17.107  50.978  50.885  1.00  0.00     0.126 HD
ENDBRANCH   5  32
BRANCH  12  35
HETATM   35  C   UNL     1      19.383  46.435  45.714  1.00  0.00    -0.005 A 
HETATM   36  C   UNL     1      20.638  46.358  45.099  1.00  0.00     0.016 A 
HETATM   37  C   UNL     1      21.218  45.116  44.828  1.00  0.00     0.037 A 
HETATM   38  C   UNL     1      20.556  43.934  45.164  1.00  0.00     0.068 A 
HETATM   39  C   UNL     1      19.296  44.005  45.761  1.00  0.00     0.037 A 
HETATM   40  C   UNL     1      18.712  45.249  46.034  1.00  0.00     0.016 A 
BRANCH  38  41
HETATM   41  O   UNL     1      21.228  42.789  44.841  1.00  0.00    -0.356 OA
HETATM   42  C   UNL     1      21.576  41.930  45.919  1.00  0.00     0.210 C 
ENDBRANCH  38  41
ENDBRANCH  12  35
TORSDOF 8
ENDMDL
MODEL 3
REMARK VINA RESULT:      -7.7      2.945      7.651
REMARK  8 active torsions:
REMARK  status: ('A' for Active; 'I' for Inactive)
REMARK    1  A    between atoms: C_2  and  O_3 
REMARK    2  A    between atoms: O_3  and  C_4 
REMARK    3  A    between atoms: C_5  and  O_6 
REMARK    4  A    between atoms: O_6  and  C_7 
REMARK       I    between atoms: C_7  and  N_8 
REMARK    5  A    between atoms: C_18  and  C_19 
REMARK    6  A    between atoms: C_23  and  N_24 
REMARK    7  A    between atoms: C_31  and  C_32 
REMARK    8  A    between atoms: C_35  and  O_36 
ROOT
HETATM    1  C   UNL     1      23.495  47.565  49.585  1.00  0.00     0.106 A 
HETATM    2  C   UNL     1      24.655  46.622  49.920  1.00  0.00     0.081 A 
HETATM    3  C   UNL     1      24.338  45.467  50.694  1.00  0.00     0.100 C 
HETATM    4  N   UNL     1      24.056  44.532  51.322  1.00  0.00    -0.191 NA
HETATM    5  C   UNL     1      25.946  46.882  49.578  1.00  0.00     0.140 A 
HETATM    6  O   UNL     1      26.311  48.043  48.876  1.00  0.00    -0.279 OA
HETATM    7  C   UNL     1      25.337  48.907  48.619  1.00  0.00     0.175 A 
HETATM    8  C   UNL     1      24.002  48.794  48.907  1.00  0.00     0.040 A 
HETATM    9  N   UNL     1      25.507  50.093  47.987  1.00  0.00    -0.256 N 
HETATM   10  H   UNL     1      26.365  50.499  47.631  1.00  0.00     0.191 HD
HETATM   11  N   UNL     1      24.354  50.767  47.827  1.00  0.00    -0.172 NA
HETATM   12  C   UNL     1      23.417  49.992  48.408  1.00  0.00     0.099 A 
ENDROOT
BRANCH   1  13
HETATM   13  C   UNL     1      22.439  46.919  48.688  1.00  0.00    -0.040 A 
HETATM   14  C   UNL     1      22.745  46.207  47.513  1.00  0.00     0.030 A 
HETATM   15  C   UNL     1      21.727  45.707  46.699  1.00  0.00     0.048 A 
HETATM   16  C   UNL     1      20.394  45.861  47.082  1.00  0.00     0.131 A 
HETATM   17 BR   UNL     1      22.202  44.833  45.085  1.00  0.00    -0.048 Br
HETATM   18  C   UNL     1      20.060  46.447  48.309  1.00  0.00     0.104 A 
HETATM   19  C   UNL     1      21.083  47.007  49.080  1.00  0.00     0.048 A 
BRANCH  16  20
HETATM   20  O   UNL     1      19.384  45.374  46.244  1.00  0.00    -0.257 OA
BRANCH  20  21
HETATM   21  C   UNL     1      18.763  46.386  45.518  1.00  0.00     0.368 C 
HETATM   22  N   UNL     1      17.530  45.997  45.020  1.00  0.00    -0.324 N 
HETATM   23  C   UNL     1      16.643  47.010  44.453  1.00  0.00     0.154 C 
HETATM   24  C   UNL     1      16.894  44.722  45.343  1.00  0.00     0.154 C 
HETATM   25  C   UNL     1      15.774  46.426  43.337  1.00  0.00     0.187 C 
HETATM   26  O   UNL     1      15.080  45.250  43.782  1.00  0.00    -0.388 OA
HETATM   27  C   UNL     1      16.016  44.238  44.183  1.00  0.00     0.187 C 
HETATM   28  O   UNL     1      19.244  47.497  45.309  1.00  0.00    -0.238 OA
ENDBRANCH  20  21
ENDBRANCH  16  20
BRANCH  18  29
HETATM   29  O   UNL     1      18.734  46.442  48.643  1.00  0.00    -0.349 OA
BRANCH  29  30
HETATM   30  C   UNL     1      18.100  47.679  48.972  1.00  0.00     0.171 C 
HETATM   31  C   UNL     1      16.718  47.787  48.348  1.00  0.00     0.034 C 
ENDBRANCH  29  30
ENDBRANCH  18  29
ENDBRANCH   1  13
BRANCH   5  32
HETATM   32  N   UNL     1      27.027  46.082  49.873  1.00  0.00    -0.282 NA
HETATM   33  H   UNL     1      26.823  45.241  50.408  1.00  0.00     0.126 HD
HETATM   34  H   UNL     1      27.608  45.904  49.057  1.00  0.00     0.126 HD
ENDBRANCH   5  32
BRANCH  12  35
HETATM   35  C   UNL     1      22.013  50.394  48.409  1.00  0.00    -0.005 A 
HETATM   36  C   UNL     1      21.229  50.192  47.267  1.00  0.00     0.016 A 
HETATM   37  C   UNL     1      19.879  50.548  47.264  1.00  0.00     0.037 A 
HETATM   38  C   UNL     1      19.289  51.109  48.398  1.00  0.00     0.068 A 
HETATM   39  C   UNL     1      20.069  51.329  49.534  1.00  0.00     0.037 A 
HETATM   40  C   UNL     1      21.424  50.974  49.539  1.00  0.00     0.016 A 
BRANCH  38  41
HETATM   41  O   UNL     1      17.963  51.415  48.262  1.00  0.00    -0.356 OA
HETATM   42  C   UNL     1      17.198  51.471  49.459  1.00  0.00     0.210 C 
ENDBRANCH  38  41
ENDBRANCH  12  35
TORSDOF 8
ENDMDL
MODEL 4
REMARK VINA RESULT:      -7.4      3.175      5.527
REMARK  8 active torsions:
REMARK  status: ('A' for Active; 'I' for Inactive)
REMARK    1  A    between atoms: C_2  and  O_3 
REMARK    2  A    between atoms: O_3  and  C_4 
REMARK    3  A    between atoms: C_5  and  O_6 
REMARK    4  A    between atoms: O_6  and  C_7 
REMARK       I    between atoms: C_7  and  N_8 
REMARK    5  A    between atoms: C_18  and  C_19 
REMARK    6  A    between atoms: C_23  and  N_24 
REMARK    7  A    between atoms: C_31  and  C_32 
REMARK    8  A    between atoms: C_35  and  O_36 
ROOT
HETATM    1  C   UNL     1      19.330  48.031  47.043  1.00  0.00     0.106 A 
HETATM    2  C   UNL     1      17.874  47.635  46.781  1.00  0.00     0.081 A 
HETATM    3  C   UNL     1      17.573  47.120  45.485  1.00  0.00     0.100 C 
HETATM    4  N   UNL     1      17.352  46.702  44.425  1.00  0.00    -0.191 NA
HETATM    5  C   UNL     1      16.878  47.823  47.689  1.00  0.00     0.140 A 
HETATM    6  O   UNL     1      17.120  48.391  48.951  1.00  0.00    -0.279 OA
HETATM    7  C   UNL     1      18.361  48.794  49.189  1.00  0.00     0.175 A 
HETATM    8  C   UNL     1      19.460  48.686  48.377  1.00  0.00     0.040 A 
HETATM    9  N   UNL     1      18.770  49.396  50.332  1.00  0.00    -0.256 N 
HETATM   10  H   UNL     1      18.220  49.632  51.150  1.00  0.00     0.191 HD
HETATM   11  N   UNL     1      20.085  49.680  50.328  1.00  0.00    -0.172 NA
HETATM   12  C   UNL     1      20.524  49.269  49.122  1.00  0.00     0.099 A 
ENDROOT
BRANCH   1  13
HETATM   13  C   UNL     1      20.291  46.842  46.994  1.00  0.00    -0.040 A 
HETATM   14  C   UNL     1      21.046  46.496  45.858  1.00  0.00     0.030 A 
HETATM   15  C   UNL     1      21.846  45.354  45.856  1.00  0.00     0.048 A 
HETATM   16  C   UNL     1      21.948  44.576  47.011  1.00  0.00     0.131 A 
HETATM   17 BR   UNL     1      22.771  44.894  44.265  1.00  0.00    -0.048 Br
HETATM   18  C   UNL     1      21.316  44.965  48.198  1.00  0.00     0.104 A 
HETATM   19  C   UNL     1      20.460  46.070  48.167  1.00  0.00     0.048 A 
BRANCH  16  20
HETATM   20  O   UNL     1      22.737  43.420  46.987  1.00  0.00    -0.257 OA
BRANCH  20  21
HETATM   21  C   UNL     1      21.987  42.269  46.768  1.00  0.00     0.368 C 
HETATM   22  N   UNL     1      22.753  41.118  46.839  1.00  0.00    -0.324 N 
HETATM   23  C   UNL     1      22.083  39.821  46.880  1.00  0.00     0.154 C 
HETATM   24  C   UNL     1      24.158  41.107  47.239  1.00  0.00     0.154 C 
HETATM   25  C   UNL     1      22.931  38.735  46.216  1.00  0.00     0.187 C 
HETATM   26  O   UNL     1      24.258  38.704  46.764  1.00  0.00    -0.388 OA
HETATM   27  C   UNL     1      24.915  39.963  46.553  1.00  0.00     0.187 C 
HETATM   28  O   UNL     1      20.784  42.253  46.515  1.00  0.00    -0.238 OA
ENDBRANCH  20  21
ENDBRANCH  16  20
BRANCH  18  29
HETATM   29  O   UNL     1      21.575  44.200  49.302  1.00  0.00    -0.349 OA
BRANCH  29  30
HETATM   30  C   UNL     1      22.822  44.365  49.978  1.00  0.00     0.171 C 
HETATM   31  C   UNL     1      23.439  43.028  50.357  1.00  0.00     0.034 C 
ENDBRANCH  29  30
ENDBRANCH  18  29
ENDBRANCH   1  13
BRANCH   5  32
HETATM   32  N   UNL     1      15.552  47.507  47.497  1.00  0.00    -0.282 NA
HETATM   33  H   UNL     1      15.327  47.057  46.613  1.00  0.00     0.126 HD
HETATM   34  H   UNL     1      15.150  47.030  48.301  1.00  0.00     0.126 HD
ENDBRANCH   5  32
BRANCH  12  35
HETATM   35  C   UNL     1      21.933  49.396  48.759  1.00  0.00    -0.005 A 
HETATM   36  C   UNL     1      22.349  50.448  47.935  1.00  0.00     0.016 A 
HETATM   37  C   UNL     1      23.697  50.596  47.603  1.00  0.00     0.037 A 
HETATM   38  C   UNL     1      24.651  49.698  48.085  1.00  0.00     0.068 A 
HETATM   39  C   UNL     1      24.240  48.636  48.893  1.00  0.00     0.037 A 
HETATM   40  C   UNL     1      22.888  48.485  49.227  1.00  0.00     0.016 A 
BRANCH  38  41
HETATM   41  O   UNL     1      25.933  49.952  47.682  1.00  0.00    -0.356 OA
HETATM   42  C   UNL     1      26.950  49.792  48.662  1.00  0.00     0.210 C 
ENDBRANCH  38  41
ENDBRANCH  12  35
TORSDOF 8
ENDMDL
MODEL 5
REMARK VINA RESULT:      -7.4      2.687      7.107
REMARK  8 active torsions:
REMARK  status: ('A' for Active; 'I' for Inactive)
REMARK    1  A    between atoms: C_2  and  O_3 
REMARK    2  A    between atoms: O_3  and  C_4 
REMARK    3  A    between atoms: C_5  and  O_6 
REMARK    4  A    between atoms: O_6  and  C_7 
REMARK       I    between atoms: C_7  and  N_8 
REMARK    5  A    between atoms: C_18  and  C_19 
REMARK    6  A    between atoms: C_23  and  N_24 
REMARK    7  A    between atoms: C_31  and  C_32 
REMARK    8  A    between atoms: C_35  and  O_36 
ROOT
HETATM    1  C   UNL     1      23.436  47.133  49.681  1.00  0.00     0.106 A 
HETATM    2  C   UNL     1      24.454  46.011  49.910  1.00  0.00     0.081 A 
HETATM    3  C   UNL     1      23.958  44.802  50.479  1.00  0.00     0.100 C 
HETATM    4  N   UNL     1      23.531  43.826  50.941  1.00  0.00    -0.191 NA
HETATM    5  C   UNL     1      25.785  46.155  49.664  1.00  0.00     0.140 A 
HETATM    6  O   UNL     1      26.325  47.353  49.169  1.00  0.00    -0.279 OA
HETATM    7  C   UNL     1      25.478  48.362  49.012  1.00  0.00     0.175 A 
HETATM    8  C   UNL     1      24.123  48.376  49.225  1.00  0.00     0.040 A 
HETATM    9  N   UNL     1      25.823  49.599  48.581  1.00  0.00    -0.256 N 
HETATM   10  H   UNL     1      26.743  49.943  48.328  1.00  0.00     0.191 HD
HETATM   11  N   UNL     1      24.769  50.429  48.483  1.00  0.00    -0.172 NA
HETATM   12  C   UNL     1      23.715  49.700  48.897  1.00  0.00     0.099 A 
ENDROOT
BRANCH   1  13
HETATM   13  C   UNL     1      22.366  46.768  48.652  1.00  0.00    -0.040 A 
HETATM   14  C   UNL     1      20.990  46.996  48.843  1.00  0.00     0.030 A 
HETATM   15  C   UNL     1      20.060  46.569  47.896  1.00  0.00     0.048 A 
HETATM   16  C   UNL     1      20.498  45.962  46.717  1.00  0.00     0.131 A 
HETATM   17 BR   UNL     1      18.215  46.828  48.252  1.00  0.00    -0.048 Br
HETATM   18  C   UNL     1      21.864  45.840  46.435  1.00  0.00     0.104 A 
HETATM   19  C   UNL     1      22.783  46.206  47.423  1.00  0.00     0.048 A 
BRANCH  16  20
HETATM   20  O   UNL     1      19.551  45.519  45.786  1.00  0.00    -0.257 OA
BRANCH  20  21
HETATM   21  C   UNL     1      19.306  44.153  45.888  1.00  0.00     0.368 C 
HETATM   22  N   UNL     1      19.221  43.539  44.649  1.00  0.00    -0.324 N 
HETATM   23  C   UNL     1      19.216  42.080  44.580  1.00  0.00     0.154 C 
HETATM   24  C   UNL     1      19.500  44.222  43.388  1.00  0.00     0.154 C 
HETATM   25  C   UNL     1      18.399  41.582  43.386  1.00  0.00     0.187 C 
HETATM   26  O   UNL     1      18.830  42.206  42.167  1.00  0.00    -0.388 OA
HETATM   27  C   UNL     1      18.665  43.630  42.247  1.00  0.00     0.187 C 
HETATM   28  O   UNL     1      19.155  43.544  46.944  1.00  0.00    -0.238 OA
ENDBRANCH  20  21
ENDBRANCH  16  20
BRANCH  18  29
HETATM   29  O   UNL     1      22.187  45.341  45.203  1.00  0.00    -0.349 OA
BRANCH  29  30
HETATM   30  C   UNL     1      23.223  44.363  45.105  1.00  0.00     0.171 C 
HETATM   31  C   UNL     1      22.742  42.988  45.542  1.00  0.00     0.034 C 
ENDBRANCH  29  30
ENDBRANCH  18  29
ENDBRANCH   1  13
BRANCH   5  32
HETATM   32  N   UNL     1      26.745  45.190  49.873  1.00  0.00    -0.282 NA
HETATM   33  H   UNL     1      26.757  44.771  50.799  1.00  0.00     0.126 HD
HETATM   34  H   UNL     1      26.768  44.502  49.124  1.00  0.00     0.126 HD
ENDBRANCH   5  32
BRANCH  12  35
HETATM   35  C   UNL     1      22.371  50.271  48.906  1.00  0.00    -0.005 A 
HETATM   36  C   UNL     1      21.807  50.706  50.111  1.00  0.00     0.016 A 
HETATM   37  C   UNL     1      20.533  51.279  50.130  1.00  0.00     0.037 A 
HETATM   38  C   UNL     1      19.803  51.426  48.949  1.00  0.00     0.068 A 
HETATM   39  C   UNL     1      20.352  50.977  47.747  1.00  0.00     0.037 A 
HETATM   40  C   UNL     1      21.629  50.402  47.726  1.00  0.00     0.016 A 
BRANCH  38  41
HETATM   41  O   UNL     1      18.570  51.996  49.105  1.00  0.00    -0.356 OA
HETATM   42  C   UNL     1      17.594  51.223  49.791  1.00  0.00     0.210 C 
ENDBRANCH  38  41
ENDBRANCH  12  35
TORSDOF 8
ENDMDL
MODEL 6
REMARK VINA RESULT:      -6.9      5.546     10.494
REMARK  8 active torsions:
REMARK  status: ('A' for Active; 'I' for Inactive)
REMARK    1  A    between atoms: C_2  and  O_3 
REMARK    2  A    between atoms: O_3  and  C_4 
REMARK    3  A    between atoms: C_5  and  O_6 
REMARK    4  A    between atoms: O_6  and  C_7 
REMARK       I    between atoms: C_7  and  N_8 
REMARK    5  A    between atoms: C_18  and  C_19 
REMARK    6  A    between atoms: C_23  and  N_24 
REMARK    7  A    between atoms: C_31  and  C_32 
REMARK    8  A    between atoms: C_35  and  O_36 
ROOT
HETATM    1  C   UNL     1      17.413  48.989  48.747  1.00  0.00     0.106 A 
HETATM    2  C   UNL     1      18.325  47.757  48.755  1.00  0.00     0.081 A 
HETATM    3  C   UNL     1      17.718  46.510  48.422  1.00  0.00     0.100 C 
HETATM    4  N   UNL     1      17.204  45.506  48.147  1.00  0.00    -0.191 NA
HETATM    5  C   UNL     1      19.632  47.803  49.129  1.00  0.00     0.140 A 
HETATM    6  O   UNL     1      20.250  48.999  49.530  1.00  0.00    -0.279 OA
HETATM    7  C   UNL     1      19.474  50.074  49.587  1.00  0.00     0.175 A 
HETATM    8  C   UNL     1      18.148  50.184  49.256  1.00  0.00     0.040 A 
HETATM    9  N   UNL     1      19.885  51.302  49.985  1.00  0.00    -0.256 N 
HETATM   10  H   UNL     1      20.807  51.585  50.298  1.00  0.00     0.191 HD
HETATM   11  N   UNL     1      18.907  52.223  49.924  1.00  0.00    -0.172 NA
HETATM   12  C   UNL     1      17.822  51.548  49.497  1.00  0.00     0.099 A 
ENDROOT
BRANCH   1  13
HETATM   13  C   UNL     1      16.863  49.316  47.359  1.00  0.00    -0.040 A 
HETATM   14  C   UNL     1      17.657  49.783  46.295  1.00  0.00     0.030 A 
HETATM   15  C   UNL     1      17.077  50.135  45.076  1.00  0.00     0.048 A 
HETATM   16  C   UNL     1      15.705  49.967  44.886  1.00  0.00     0.131 A 
HETATM   17 BR   UNL     1      18.190  50.841  43.712  1.00  0.00    -0.048 Br
HETATM   18  C   UNL     1      14.907  49.380  45.876  1.00  0.00     0.104 A 
HETATM   19  C   UNL     1      15.486  49.099  47.117  1.00  0.00     0.048 A 
BRANCH  16  20
HETATM   20  O   UNL     1      15.135  50.346  43.665  1.00  0.00    -0.257 OA
BRANCH  20  21
HETATM   21  C   UNL     1      14.772  51.689  43.642  1.00  0.00     0.368 C 
HETATM   22  N   UNL     1      14.993  52.274  42.406  1.00  0.00    -0.324 N 
HETATM   23  C   UNL     1      14.440  53.599  42.140  1.00  0.00     0.154 C 
HETATM   24  C   UNL     1      15.422  51.529  41.225  1.00  0.00     0.154 C 
HETATM   25  C   UNL     1      15.325  54.387  41.170  1.00  0.00     0.187 C 
HETATM   26  O   UNL     1      15.585  53.632  39.977  1.00  0.00    -0.388 OA
HETATM   27  C   UNL     1      16.267  52.409  40.297  1.00  0.00     0.187 C 
HETATM   28  O   UNL     1      14.327  52.312  44.602  1.00  0.00    -0.238 OA
ENDBRANCH  20  21
ENDBRANCH  16  20
BRANCH  18  29
HETATM   29  O   UNL     1      13.600  49.151  45.545  1.00  0.00    -0.349 OA
BRANCH  29  30
HETATM   30  C   UNL     1      13.183  47.814  45.268  1.00  0.00     0.171 C 
HETATM   31  C   UNL     1      12.717  47.656  43.829  1.00  0.00     0.034 C 
ENDBRANCH  29  30
ENDBRANCH  18  29
ENDBRANCH   1  13
BRANCH   5  32
HETATM   32  N   UNL     1      20.488  46.726  49.176  1.00  0.00    -0.282 NA
HETATM   33  H   UNL     1      21.465  46.944  49.355  1.00  0.00     0.126 HD
HETATM   34  H   UNL     1      20.132  45.977  49.766  1.00  0.00     0.126 HD
ENDBRANCH   5  32
BRANCH  12  35
HETATM   35  C   UNL     1      16.552  52.237  49.284  1.00  0.00    -0.005 A 
HETATM   36  C   UNL     1      15.761  52.595  50.382  1.00  0.00     0.016 A 
HETATM   37  C   UNL     1      14.557  53.278  50.193  1.00  0.00     0.037 A 
HETATM   38  C   UNL     1      14.124  53.614  48.910  1.00  0.00     0.068 A 
HETATM   39  C   UNL     1      14.900  53.244  47.810  1.00  0.00     0.037 A 
HETATM   40  C   UNL     1      16.107  52.558  47.996  1.00  0.00     0.016 A 
BRANCH  38  41
HETATM   41  O   UNL     1      12.928  54.276  48.863  1.00  0.00    -0.356 OA
HETATM   42  C   UNL     1      12.142  54.253  50.046  1.00  0.00     0.210 C 
ENDBRANCH  38  41
ENDBRANCH  12  35
TORSDOF 8
ENDMDL
MODEL 7
REMARK VINA RESULT:      -6.8      4.685      9.273
REMARK  8 active torsions:
REMARK  status: ('A' for Active; 'I' for Inactive)
REMARK    1  A    between atoms: C_2  and  O_3 
REMARK    2  A    between atoms: O_3  and  C_4 
REMARK    3  A    between atoms: C_5  and  O_6 
REMARK    4  A    between atoms: O_6  and  C_7 
REMARK       I    between atoms: C_7  and  N_8 
REMARK    5  A    between atoms: C_18  and  C_19 
REMARK    6  A    between atoms: C_23  and  N_24 
REMARK    7  A    between atoms: C_31  and  C_32 
REMARK    8  A    between atoms: C_35  and  O_36 
ROOT
HETATM    1  C   UNL     1      16.332  52.309  46.655  1.00  0.00     0.106 A 
HETATM    2  C   UNL     1      15.164  52.947  45.897  1.00  0.00     0.081 A 
HETATM    3  C   UNL     1      15.193  52.848  44.474  1.00  0.00     0.100 C 
HETATM    4  N   UNL     1      15.237  52.754  43.318  1.00  0.00    -0.191 NA
HETATM    5  C   UNL     1      14.172  53.645  46.513  1.00  0.00     0.140 A 
HETATM    6  O   UNL     1      14.142  53.825  47.906  1.00  0.00    -0.279 OA
HETATM    7  C   UNL     1      15.169  53.332  48.586  1.00  0.00     0.175 A 
HETATM    8  C   UNL     1      16.240  52.620  48.111  1.00  0.00     0.040 A 
HETATM    9  N   UNL     1      15.329  53.441  49.927  1.00  0.00    -0.256 N 
HETATM   10  H   UNL     1      14.724  53.903  50.597  1.00  0.00     0.191 HD
HETATM   11  N   UNL     1      16.441  52.829  50.369  1.00  0.00    -0.172 NA
HETATM   12  C   UNL     1      17.029  52.335  49.262  1.00  0.00     0.099 A 
ENDROOT
BRANCH   1  13
HETATM   13  C   UNL     1      16.393  50.790  46.490  1.00  0.00    -0.040 A 
HETATM   14  C   UNL     1      17.595  50.062  46.415  1.00  0.00     0.030 A 
HETATM   15  C   UNL     1      17.580  48.686  46.187  1.00  0.00     0.048 A 
HETATM   16  C   UNL     1      16.362  48.011  46.091  1.00  0.00     0.131 A 
HETATM   17 BR   UNL     1      19.235  47.776  46.010  1.00  0.00    -0.048 Br
HETATM   18  C   UNL     1      15.150  48.682  46.294  1.00  0.00     0.104 A 
HETATM   19  C   UNL     1      15.175  50.071  46.449  1.00  0.00     0.048 A 
BRANCH  16  20
HETATM   20  O   UNL     1      16.363  46.634  45.841  1.00  0.00    -0.257 OA
BRANCH  20  21
HETATM   21  C   UNL     1      16.489  46.341  44.486  1.00  0.00     0.368 C 
HETATM   22  N   UNL     1      17.184  45.164  44.263  1.00  0.00    -0.324 N 
HETATM   23  C   UNL     1      17.189  44.587  42.922  1.00  0.00     0.154 C 
HETATM   24  C   UNL     1      17.609  44.263  45.331  1.00  0.00     0.154 C 
HETATM   25  C   UNL     1      18.492  43.833  42.645  1.00  0.00     0.187 C 
HETATM   26  O   UNL     1      18.764  42.872  43.676  1.00  0.00    -0.388 OA
HETATM   27  C   UNL     1      18.898  43.526  44.947  1.00  0.00     0.187 C 
HETATM   28  O   UNL     1      16.061  47.044  43.573  1.00  0.00    -0.238 OA
ENDBRANCH  20  21
ENDBRANCH  16  20
BRANCH  18  29
HETATM   29  O   UNL     1      14.022  47.909  46.298  1.00  0.00    -0.349 OA
BRANCH  29  30
HETATM   30  C   UNL     1      13.107  48.019  45.206  1.00  0.00     0.171 C 
HETATM   31  C   UNL     1      12.667  46.654  44.702  1.00  0.00     0.034 C 
ENDBRANCH  29  30
ENDBRANCH  18  29
ENDBRANCH   1  13
BRANCH   5  32
HETATM   32  N   UNL     1      13.114  54.257  45.879  1.00  0.00    -0.282 NA
HETATM   33  H   UNL     1      12.724  53.757  45.084  1.00  0.00     0.126 HD
HETATM   34  H   UNL     1      12.405  54.577  46.536  1.00  0.00     0.126 HD
ENDBRANCH   5  32
BRANCH  12  35
HETATM   35  C   UNL     1      18.270  51.571  49.354  1.00  0.00    -0.005 A 
HETATM   36  C   UNL     1      19.436  52.062  48.753  1.00  0.00     0.016 A 
HETATM   37  C   UNL     1      20.636  51.354  48.856  1.00  0.00     0.037 A 
HETATM   38  C   UNL     1      20.693  50.150  49.558  1.00  0.00     0.068 A 
HETATM   39  C   UNL     1      19.530  49.647  50.144  1.00  0.00     0.037 A 
HETATM   40  C   UNL     1      18.325  50.353  50.042  1.00  0.00     0.016 A 
BRANCH  38  41
HETATM   41  O   UNL     1      21.924  49.556  49.579  1.00  0.00    -0.356 OA
HETATM   42  C   UNL     1      22.040  48.306  48.912  1.00  0.00     0.210 C 
ENDBRANCH  38  41
ENDBRANCH  12  35
TORSDOF 8
ENDMDL
MODEL 8
REMARK VINA RESULT:      -6.7      5.124      9.340
REMARK  8 active torsions:
REMARK  status: ('A' for Active; 'I' for Inactive)
REMARK    1  A    between atoms: C_2  and  O_3 
REMARK    2  A    between atoms: O_3  and  C_4 
REMARK    3  A    between atoms: C_5  and  O_6 
REMARK    4  A    between atoms: O_6  and  C_7 
REMARK       I    between atoms: C_7  and  N_8 
REMARK    5  A    between atoms: C_18  and  C_19 
REMARK    6  A    between atoms: C_23  and  N_24 
REMARK    7  A    between atoms: C_31  and  C_32 
REMARK    8  A    between atoms: C_35  and  O_36 
ROOT
HETATM    1  C   UNL     1      17.154  52.005  46.561  1.00  0.00     0.106 A 
HETATM    2  C   UNL     1      15.849  52.715  46.189  1.00  0.00     0.081 A 
HETATM    3  C   UNL     1      15.599  52.908  44.798  1.00  0.00     0.100 C 
HETATM    4  N   UNL     1      15.415  53.052  43.661  1.00  0.00    -0.191 NA
HETATM    5  C   UNL     1      14.986  53.217  47.114  1.00  0.00     0.140 A 
HETATM    6  O   UNL     1      15.230  53.109  48.494  1.00  0.00    -0.279 OA
HETATM    7  C   UNL     1      16.378  52.547  48.848  1.00  0.00     0.175 A 
HETATM    8  C   UNL     1      17.347  52.009  48.040  1.00  0.00     0.040 A 
HETATM    9  N   UNL     1      16.798  52.392  50.127  1.00  0.00    -0.256 N 
HETATM   10  H   UNL     1      16.330  52.673  50.981  1.00  0.00     0.191 HD
HETATM   11  N   UNL     1      17.986  51.768  50.211  1.00  0.00    -0.172 NA
HETATM   12  C   UNL     1      18.351  51.543  48.934  1.00  0.00     0.099 A 
ENDROOT
BRANCH   1  13
HETATM   13  C   UNL     1      17.207  50.557  46.072  1.00  0.00    -0.040 A 
HETATM   14  C   UNL     1      17.832  50.160  44.875  1.00  0.00     0.030 A 
HETATM   15  C   UNL     1      17.777  48.833  44.450  1.00  0.00     0.048 A 
HETATM   16  C   UNL     1      17.149  47.874  45.246  1.00  0.00     0.131 A 
HETATM   17 BR   UNL     1      18.564  48.379  42.785  1.00  0.00    -0.048 Br
HETATM   18  C   UNL     1      16.633  48.209  46.504  1.00  0.00     0.104 A 
HETATM   19  C   UNL     1      16.630  49.554  46.886  1.00  0.00     0.048 A 
BRANCH  16  20
HETATM   20  O   UNL     1      17.083  46.551  44.796  1.00  0.00    -0.257 OA
BRANCH  20  21
HETATM   21  C   UNL     1      15.895  46.277  44.125  1.00  0.00     0.368 C 
HETATM   22  N   UNL     1      15.888  45.013  43.559  1.00  0.00    -0.324 N 
HETATM   23  C   UNL     1      14.634  44.476  43.037  1.00  0.00     0.154 C 
HETATM   24  C   UNL     1      16.948  44.029  43.766  1.00  0.00     0.154 C 
HETATM   25  C   UNL     1      14.879  43.539  41.853  1.00  0.00     0.187 C 
HETATM   26  O   UNL     1      15.835  42.521  42.188  1.00  0.00    -0.388 OA
HETATM   27  C   UNL     1      17.093  43.114  42.545  1.00  0.00     0.187 C 
HETATM   28  O   UNL     1      14.955  47.060  44.014  1.00  0.00    -0.238 OA
ENDBRANCH  20  21
ENDBRANCH  16  20
BRANCH  18  29
HETATM   29  O   UNL     1      16.146  47.175  47.256  1.00  0.00    -0.349 OA
BRANCH  29  30
HETATM   30  C   UNL     1      16.838  46.803  48.448  1.00  0.00     0.171 C 
HETATM   31  C   UNL     1      18.026  45.902  48.151  1.00  0.00     0.034 C 
ENDBRANCH  29  30
ENDBRANCH  18  29
ENDBRANCH   1  13
BRANCH   5  32
HETATM   32  N   UNL     1      13.814  53.883  46.836  1.00  0.00    -0.282 NA
HETATM   33  H   UNL     1      13.787  54.380  45.949  1.00  0.00     0.126 HD
HETATM   34  H   UNL     1      12.994  53.300  46.991  1.00  0.00     0.126 HD
ENDBRANCH   5  32
BRANCH  12  35
HETATM   35  C   UNL     1      19.599  50.849  48.627  1.00  0.00    -0.005 A 
HETATM   36  C   UNL     1      20.777  51.582  48.444  1.00  0.00     0.016 A 
HETATM   37  C   UNL     1      21.982  50.929  48.176  1.00  0.00     0.037 A 
HETATM   38  C   UNL     1      22.032  49.537  48.086  1.00  0.00     0.068 A 
HETATM   39  C   UNL     1      20.857  48.801  48.250  1.00  0.00     0.037 A 
HETATM   40  C   UNL     1      19.647  49.454  48.517  1.00  0.00     0.016 A 
BRANCH  38  41
HETATM   41  O   UNL     1      23.269  49.023  47.815  1.00  0.00    -0.356 OA
HETATM   42  C   UNL     1      24.380  49.873  48.069  1.00  0.00     0.210 C 
ENDBRANCH  38  41
ENDBRANCH  12  35
TORSDOF 8
ENDMDL
MODEL 9
REMARK VINA RESULT:      -6.5      4.705      9.590
REMARK  8 active torsions:
REMARK  status: ('A' for Active; 'I' for Inactive)
REMARK    1  A    between atoms: C_2  and  O_3 
REMARK    2  A    between atoms: O_3  and  C_4 
REMARK    3  A    between atoms: C_5  and  O_6 
REMARK    4  A    between atoms: O_6  and  C_7 
REMARK       I    between atoms: C_7  and  N_8 
REMARK    5  A    between atoms: C_18  and  C_19 
REMARK    6  A    between atoms: C_23  and  N_24 
REMARK    7  A    between atoms: C_31  and  C_32 
REMARK    8  A    between atoms: C_35  and  O_36 
ROOT
HETATM    1  C   UNL     1      18.864  47.235  47.003  1.00  0.00     0.106 A 
HETATM    2  C   UNL     1      19.155  45.883  46.344  1.00  0.00     0.081 A 
HETATM    3  C   UNL     1      18.026  45.085  45.994  1.00  0.00     0.100 C 
HETATM    4  N   UNL     1      17.093  44.453  45.715  1.00  0.00    -0.191 NA
HETATM    5  C   UNL     1      20.415  45.404  46.157  1.00  0.00     0.140 A 
HETATM    6  O   UNL     1      21.552  46.128  46.551  1.00  0.00    -0.279 OA
HETATM    7  C   UNL     1      21.333  47.278  47.174  1.00  0.00     0.175 A 
HETATM    8  C   UNL     1      20.133  47.883  47.445  1.00  0.00     0.040 A 
HETATM    9  N   UNL     1      22.304  48.091  47.657  1.00  0.00    -0.256 N 
HETATM   10  H   UNL     1      23.308  47.955  47.629  1.00  0.00     0.191 HD
HETATM   11  N   UNL     1      21.813  49.208  48.221  1.00  0.00    -0.172 NA
HETATM   12  C   UNL     1      20.475  49.089  48.120  1.00  0.00     0.099 A 
ENDROOT
BRANCH   1  13
HETATM   13  C   UNL     1      18.123  48.202  46.081  1.00  0.00    -0.040 A 
HETATM   14  C   UNL     1      18.661  48.702  44.880  1.00  0.00     0.030 A 
HETATM   15  C   UNL     1      17.962  49.642  44.123  1.00  0.00     0.048 A 
HETATM   16  C   UNL     1      16.689  50.049  44.526  1.00  0.00     0.131 A 
HETATM   17 BR   UNL     1      18.779  50.341  42.561  1.00  0.00    -0.048 Br
HETATM   18  C   UNL     1      16.069  49.473  45.642  1.00  0.00     0.104 A 
HETATM   19  C   UNL     1      16.807  48.587  46.431  1.00  0.00     0.048 A 
BRANCH  16  20
HETATM   20  O   UNL     1      16.008  51.009  43.768  1.00  0.00    -0.257 OA
BRANCH  20  21
HETATM   21  C   UNL     1      16.126  52.288  44.303  1.00  0.00     0.368 C 
HETATM   22  N   UNL     1      14.950  53.013  44.201  1.00  0.00    -0.324 N 
HETATM   23  C   UNL     1      14.828  54.273  44.930  1.00  0.00     0.154 C 
HETATM   24  C   UNL     1      13.693  52.448  43.717  1.00  0.00     0.154 C 
HETATM   25  C   UNL     1      13.925  55.260  44.188  1.00  0.00     0.187 C 
HETATM   26  O   UNL     1      12.657  54.664  43.869  1.00  0.00    -0.388 OA
HETATM   27  C   UNL     1      12.841  53.518  43.024  1.00  0.00     0.187 C 
HETATM   28  O   UNL     1      17.152  52.752  44.794  1.00  0.00    -0.238 OA
ENDBRANCH  20  21
ENDBRANCH  16  20
BRANCH  18  29
HETATM   29  O   UNL     1      14.777  49.853  45.881  1.00  0.00    -0.349 OA
BRANCH  29  30
HETATM   30  C   UNL     1      13.739  48.877  45.777  1.00  0.00     0.171 C 
HETATM   31  C   UNL     1      13.181  48.799  44.365  1.00  0.00     0.034 C 
ENDBRANCH  29  30
ENDBRANCH  18  29
ENDBRANCH   1  13
BRANCH   5  32
HETATM   32  N   UNL     1      20.732  44.189  45.592  1.00  0.00    -0.282 NA
HETATM   33  H   UNL     1      21.435  44.212  44.858  1.00  0.00     0.126 HD
HETATM   34  H   UNL     1      20.911  43.474  46.293  1.00  0.00     0.126 HD
ENDBRANCH   5  32
BRANCH  12  35
HETATM   35  C   UNL     1      19.593  50.144  48.611  1.00  0.00    -0.005 A 
HETATM   36  C   UNL     1      19.717  51.445  48.110  1.00  0.00     0.016 A 
HETATM   37  C   UNL     1      18.862  52.458  48.552  1.00  0.00     0.037 A 
HETATM   38  C   UNL     1      17.872  52.189  49.499  1.00  0.00     0.068 A 
HETATM   39  C   UNL     1      17.755  50.898  50.016  1.00  0.00     0.037 A 
HETATM   40  C   UNL     1      18.612  49.881  49.575  1.00  0.00     0.016 A 
BRANCH  38  41
HETATM   41  O   UNL     1      17.106  53.267  49.849  1.00  0.00    -0.356 OA
HETATM   42  C   UNL     1      15.726  53.018  50.082  1.00  0.00     0.210 C 
ENDBRANCH  38  41
ENDBRANCH  12  35
TORSDOF 8
ENDMDL
MODEL 10
REMARK VINA RESULT:      -6.5      2.578      7.856
REMARK  8 active torsions:
REMARK  status: ('A' for Active; 'I' for Inactive)
REMARK    1  A    between atoms: C_2  and  O_3 
REMARK    2  A    between atoms: O_3  and  C_4 
REMARK    3  A    between atoms: C_5  and  O_6 
REMARK    4  A    between atoms: O_6  and  C_7 
REMARK       I    between atoms: C_7  and  N_8 
REMARK    5  A    between atoms: C_18  and  C_19 
REMARK    6  A    between atoms: C_23  and  N_24 
REMARK    7  A    between atoms: C_31  and  C_32 
REMARK    8  A    between atoms: C_35  and  O_36 
ROOT
HETATM    1  C   UNL     1      23.663  45.234  48.834  1.00  0.00     0.106 A 
HETATM    2  C   UNL     1      24.198  45.381  50.262  1.00  0.00     0.081 A 
HETATM    3  C   UNL     1      24.792  46.634  50.597  1.00  0.00     0.100 C 
HETATM    4  N   UNL     1      25.269  47.662  50.848  1.00  0.00    -0.191 NA
HETATM    5  C   UNL     1      24.192  44.365  51.167  1.00  0.00     0.140 A 
HETATM    6  O   UNL     1      23.680  43.094  50.855  1.00  0.00    -0.279 OA
HETATM    7  C   UNL     1      23.259  42.918  49.610  1.00  0.00     0.175 A 
HETATM    8  C   UNL     1      23.211  43.833  48.590  1.00  0.00     0.040 A 
HETATM    9  N   UNL     1      22.769  41.753  49.120  1.00  0.00    -0.256 N 
HETATM   10  H   UNL     1      22.657  40.867  49.599  1.00  0.00     0.191 HD
HETATM   11  N   UNL     1      22.386  41.850  47.834  1.00  0.00    -0.172 NA
HETATM   12  C   UNL     1      22.672  43.119  47.482  1.00  0.00     0.099 A 
ENDROOT
BRANCH   1  13
HETATM   13  C   UNL     1      22.497  46.176  48.533  1.00  0.00    -0.040 A 
HETATM   14  C   UNL     1      22.661  47.505  48.102  1.00  0.00     0.030 A 
HETATM   15  C   UNL     1      21.554  48.335  47.918  1.00  0.00     0.048 A 
HETATM   16  C   UNL     1      20.267  47.827  48.103  1.00  0.00     0.131 A 
HETATM   17 BR   UNL     1      21.846  50.142  47.420  1.00  0.00    -0.048 Br
HETATM   18  C   UNL     1      20.064  46.474  48.402  1.00  0.00     0.104 A 
HETATM   19  C   UNL     1      21.181  45.672  48.654  1.00  0.00     0.048 A 
BRANCH  16  20
HETATM   20  O   UNL     1      19.168  48.677  47.936  1.00  0.00    -0.257 OA
BRANCH  20  21
HETATM   21  C   UNL     1      18.930  49.463  49.059  1.00  0.00     0.368 C 
HETATM   22  N   UNL     1      17.990  50.453  48.820  1.00  0.00    -0.324 N 
HETATM   23  C   UNL     1      17.445  51.200  49.950  1.00  0.00     0.154 C 
HETATM   24  C   UNL     1      17.234  50.565  47.575  1.00  0.00     0.154 C 
HETATM   25  C   UNL     1      17.081  52.631  49.547  1.00  0.00     0.187 C 
HETATM   26  O   UNL     1      16.225  52.642  48.394  1.00  0.00    -0.388 OA
HETATM   27  C   UNL     1      16.883  52.027  47.276  1.00  0.00     0.187 C 
HETATM   28  O   UNL     1      19.493  49.329  50.142  1.00  0.00    -0.238 OA
ENDBRANCH  20  21
ENDBRANCH  16  20
BRANCH  18  29
HETATM   29  O   UNL     1      18.764  46.051  48.445  1.00  0.00    -0.349 OA
BRANCH  29  30
HETATM   30  C   UNL     1      18.283  45.189  47.412  1.00  0.00     0.171 C 
HETATM   31  C   UNL     1      17.518  45.959  46.348  1.00  0.00     0.034 C 
ENDBRANCH  29  30
ENDBRANCH  18  29
ENDBRANCH   1  13
BRANCH   5  32
HETATM   32  N   UNL     1      24.680  44.436  52.452  1.00  0.00    -0.282 NA
HETATM   33  H   UNL     1      25.517  45.001  52.577  1.00  0.00     0.126 HD
HETATM   34  H   UNL     1      23.951  44.648  53.129  1.00  0.00     0.126 HD
ENDBRANCH   5  32
BRANCH  12  35
HETATM   35  C   UNL     1      22.367  43.608  46.140  1.00  0.00    -0.005 A 
HETATM   36  C   UNL     1      23.398  44.081  45.320  1.00  0.00     0.016 A 
HETATM   37  C   UNL     1      23.123  44.527  44.025  1.00  0.00     0.037 A 
HETATM   38  C   UNL     1      21.819  44.506  43.528  1.00  0.00     0.068 A 
HETATM   39  C   UNL     1      20.784  44.051  44.347  1.00  0.00     0.037 A 
HETATM   40  C   UNL     1      21.057  43.605  45.647  1.00  0.00     0.016 A 
BRANCH  38  41
HETATM   41  O   UNL     1      21.686  44.972  42.250  1.00  0.00    -0.356 OA
HETATM   42  C   UNL     1      21.643  46.384  42.088  1.00  0.00     0.210 C 
ENDBRANCH  38  41
ENDBRANCH  12  35
TORSDOF 8
ENDMDL
