MODEL 1
REMARK VINA RESULT:     -10.5      0.000      0.000
REMARK  4 active torsions:
REMARK  status: ('A' for Active; 'I' for Inactive)
REMARK    1  A    between atoms: C_4  and  S_5 
REMARK    2  A    between atoms: S_5  and  C_6 
REMARK    3  A    between atoms: C_6  and  C_7 
REMARK    4  A    between atoms: C_23  and  N_24 
ROOT
HETATM    1  C   UNL     1      26.775  46.597  53.493  1.00  0.00    -0.029 C 
HETATM    2  C   UNL     1      27.818  45.864  54.292  1.00  0.00     0.016 A 
HETATM    3  C   UNL     1      28.134  46.433  55.541  1.00  0.00     0.091 A 
HETATM    4  C   UNL     1      29.149  45.958  56.366  1.00  0.00     0.039 A 
HETATM    5  C   UNL     1      29.888  44.862  55.964  1.00  0.00     0.015 A 
HETATM    6  C   UNL     1      29.594  44.208  54.767  1.00  0.00    -0.025 A 
HETATM    7  C   UNL     1      28.539  44.664  53.916  1.00  0.00    -0.012 A 
HETATM    8  C   UNL     1      30.364  43.076  54.444  1.00  0.00     0.012 A 
HETATM    9  C   UNL     1      30.116  42.335  53.296  1.00  0.00     0.001 A 
HETATM   10  C   UNL     1      29.074  42.709  52.470  1.00  0.00     0.001 A 
HETATM   11  C   UNL     1      28.301  43.836  52.781  1.00  0.00     0.013 A 
HETATM   12  O   UNL     1      27.428  47.518  56.098  1.00  0.00    -0.275 OA
HETATM   13  C   UNL     1      26.323  48.041  55.473  1.00  0.00     0.288 C 
HETATM   14  O   UNL     1      25.607  48.888  55.991  1.00  0.00    -0.260 OA
HETATM   15  C   UNL     1      26.080  47.573  54.108  1.00  0.00     0.091 C 
ENDROOT
BRANCH   1  16
HETATM   16  C   UNL     1      26.551  46.262  52.033  1.00  0.00     0.122 C 
BRANCH  16  17
HETATM   17  S   UNL     1      24.905  46.635  51.355  1.00  0.00    -0.085 SA
BRANCH  17  18
HETATM   18  C   UNL     1      25.354  47.895  50.185  1.00  0.00     0.190 A 
HETATM   19  N   UNL     1      24.341  48.503  49.547  1.00  0.00    -0.228 NA
HETATM   20  C   UNL     1      24.671  49.447  48.645  1.00  0.00     0.036 A 
HETATM   21  C   UNL     1      23.553  50.125  47.913  1.00  0.00     0.070 C 
HETATM   22  C   UNL     1      25.982  49.792  48.391  1.00  0.00     0.071 A 
HETATM   23  C   UNL     1      26.945  49.125  49.113  1.00  0.00     0.105 A 
HETATM   24  N   UNL     1      26.655  48.171  50.002  1.00  0.00    -0.211 NA
BRANCH  23  25
HETATM   25  N   UNL     1      28.297  49.393  48.903  1.00  0.00    -0.287 NA
HETATM   26  H   UNL     1      28.835  48.637  49.316  1.00  0.00     0.125 HD
HETATM   27  H   UNL     1      28.569  50.295  49.279  1.00  0.00     0.125 HD
ENDBRANCH  23  25
ENDBRANCH  17  18
ENDBRANCH  16  17
ENDBRANCH   1  16
TORSDOF 4
ENDMDL
MODEL 2
REMARK VINA RESULT:     -10.0      0.702      1.704
REMARK  4 active torsions:
REMARK  status: ('A' for Active; 'I' for Inactive)
REMARK    1  A    between atoms: C_4  and  S_5 
REMARK    2  A    between atoms: S_5  and  C_6 
REMARK    3  A    between atoms: C_6  and  C_7 
REMARK    4  A    between atoms: C_23  and  N_24 
ROOT
HETATM    1  C   UNL     1      26.758  46.486  53.520  1.00  0.00    -0.029 C 
HETATM    2  C   UNL     1      27.838  45.798  54.310  1.00  0.00     0.016 A 
HETATM    3  C   UNL     1      28.177  46.411  55.532  1.00  0.00     0.091 A 
HETATM    4  C   UNL     1      29.225  45.981  56.341  1.00  0.00     0.039 A 
HETATM    5  C   UNL     1      29.976  44.889  55.950  1.00  0.00     0.015 A 
HETATM    6  C   UNL     1      29.661  44.193  54.782  1.00  0.00    -0.025 A 
HETATM    7  C   UNL     1      28.573  44.602  53.949  1.00  0.00    -0.012 A 
HETATM    8  C   UNL     1      30.445  43.067  54.471  1.00  0.00     0.012 A 
HETATM    9  C   UNL     1      30.180  42.288  53.354  1.00  0.00     0.001 A 
HETATM   10  C   UNL     1      29.108  42.616  52.547  1.00  0.00     0.001 A 
HETATM   11  C   UNL     1      28.321  43.735  52.847  1.00  0.00     0.013 A 
HETATM   12  O   UNL     1      27.465  47.498  56.076  1.00  0.00    -0.275 OA
HETATM   13  C   UNL     1      26.332  47.979  55.468  1.00  0.00     0.288 C 
HETATM   14  O   UNL     1      25.613  48.828  55.981  1.00  0.00    -0.260 OA
HETATM   15  C   UNL     1      26.060  47.466  54.126  1.00  0.00     0.091 C 
ENDROOT
BRANCH   1  16
HETATM   16  C   UNL     1      26.500  46.102  52.077  1.00  0.00     0.122 C 
BRANCH  16  17
HETATM   17  S   UNL     1      24.788  46.267  51.485  1.00  0.00    -0.085 SA
BRANCH  17  18
HETATM   18  C   UNL     1      25.029  47.532  50.259  1.00  0.00     0.190 A 
HETATM   19  N   UNL     1      26.279  48.004  50.129  1.00  0.00    -0.228 NA
HETATM   20  C   UNL     1      26.470  48.975  49.215  1.00  0.00     0.036 A 
HETATM   21  C   UNL     1      27.856  49.524  49.068  1.00  0.00     0.070 C 
HETATM   22  C   UNL     1      25.441  49.459  48.435  1.00  0.00     0.071 A 
HETATM   23  C   UNL     1      24.202  48.894  48.630  1.00  0.00     0.105 A 
HETATM   24  N   UNL     1      23.972  47.942  49.539  1.00  0.00    -0.211 NA
BRANCH  23  25
HETATM   25  N   UNL     1      23.100  49.340  47.902  1.00  0.00    -0.287 NA
HETATM   26  H   UNL     1      22.343  48.677  48.040  1.00  0.00     0.125 HD
HETATM   27  H   UNL     1      23.318  49.461  46.919  1.00  0.00     0.125 HD
ENDBRANCH  23  25
ENDBRANCH  17  18
ENDBRANCH  16  17
ENDBRANCH   1  16
TORSDOF 4
ENDMDL
MODEL 3
REMARK VINA RESULT:      -9.6      4.448      6.482
REMARK  4 active torsions:
REMARK  status: ('A' for Active; 'I' for Inactive)
REMARK    1  A    between atoms: C_4  and  S_5 
REMARK    2  A    between atoms: S_5  and  C_6 
REMARK    3  A    between atoms: C_6  and  C_7 
REMARK    4  A    between atoms: C_23  and  N_24 
ROOT
HETATM    1  C   UNL     1      27.493  43.885  52.463  1.00  0.00    -0.029 C 
HETATM    2  C   UNL     1      27.837  44.760  53.639  1.00  0.00     0.016 A 
HETATM    3  C   UNL     1      27.040  45.911  53.790  1.00  0.00     0.091 A 
HETATM    4  C   UNL     1      27.280  46.890  54.750  1.00  0.00     0.039 A 
HETATM    5  C   UNL     1      28.342  46.736  55.620  1.00  0.00     0.015 A 
HETATM    6  C   UNL     1      29.140  45.591  55.571  1.00  0.00    -0.025 A 
HETATM    7  C   UNL     1      28.895  44.562  54.609  1.00  0.00    -0.012 A 
HETATM    8  C   UNL     1      30.177  45.487  56.516  1.00  0.00     0.012 A 
HETATM    9  C   UNL     1      30.993  44.366  56.572  1.00  0.00     0.001 A 
HETATM   10  C   UNL     1      30.763  43.324  55.694  1.00  0.00     0.001 A 
HETATM   11  C   UNL     1      29.733  43.418  54.749  1.00  0.00     0.013 A 
HETATM   12  O   UNL     1      25.897  46.169  53.007  1.00  0.00    -0.275 OA
HETATM   13  C   UNL     1      25.446  45.255  52.087  1.00  0.00     0.288 C 
HETATM   14  O   UNL     1      24.385  45.384  51.490  1.00  0.00    -0.260 OA
HETATM   15  C   UNL     1      26.346  44.137  51.804  1.00  0.00     0.091 C 
ENDROOT
BRANCH   1  16
HETATM   16  C   UNL     1      28.437  42.785  52.023  1.00  0.00     0.122 C 
BRANCH  16  17
HETATM   17  S   UNL     1      27.975  41.086  52.479  1.00  0.00    -0.085 SA
BRANCH  17  18
HETATM   18  C   UNL     1      28.429  40.252  50.976  1.00  0.00     0.190 A 
HETATM   19  N   UNL     1      28.060  40.847  49.831  1.00  0.00    -0.228 NA
HETATM   20  C   UNL     1      28.383  40.215  48.686  1.00  0.00     0.036 A 
HETATM   21  C   UNL     1      27.966  40.858  47.399  1.00  0.00     0.070 C 
HETATM   22  C   UNL     1      29.073  39.021  48.678  1.00  0.00     0.071 A 
HETATM   23  C   UNL     1      29.424  38.505  49.904  1.00  0.00     0.105 A 
HETATM   24  N   UNL     1      29.105  39.095  51.060  1.00  0.00    -0.211 NA
BRANCH  23  25
HETATM   25  N   UNL     1      30.101  37.289  49.991  1.00  0.00    -0.287 NA
HETATM   26  H   UNL     1      31.084  37.488  50.153  1.00  0.00     0.125 HD
HETATM   27  H   UNL     1      29.966  36.719  49.163  1.00  0.00     0.125 HD
ENDBRANCH  23  25
ENDBRANCH  17  18
ENDBRANCH  16  17
ENDBRANCH   1  16
TORSDOF 4
ENDMDL
MODEL 4
REMARK VINA RESULT:      -9.6      1.244      2.013
REMARK  4 active torsions:
REMARK  status: ('A' for Active; 'I' for Inactive)
REMARK    1  A    between atoms: C_4  and  S_5 
REMARK    2  A    between atoms: S_5  and  C_6 
REMARK    3  A    between atoms: C_6  and  C_7 
REMARK    4  A    between atoms: C_23  and  N_24 
ROOT
HETATM    1  C   UNL     1      26.521  46.583  53.488  1.00  0.00    -0.029 C 
HETATM    2  C   UNL     1      27.607  45.760  54.127  1.00  0.00     0.016 A 
HETATM    3  C   UNL     1      28.123  46.271  55.334  1.00  0.00     0.091 A 
HETATM    4  C   UNL     1      29.202  45.706  56.007  1.00  0.00     0.039 A 
HETATM    5  C   UNL     1      29.804  44.576  55.489  1.00  0.00     0.015 A 
HETATM    6  C   UNL     1      29.311  43.977  54.329  1.00  0.00    -0.025 A 
HETATM    7  C   UNL     1      28.187  44.526  53.635  1.00  0.00    -0.012 A 
HETATM    8  C   UNL     1      29.951  42.806  53.885  1.00  0.00     0.012 A 
HETATM    9  C   UNL     1      29.504  42.117  52.766  1.00  0.00     0.001 A 
HETATM   10  C   UNL     1      28.391  42.582  52.093  1.00  0.00     0.001 A 
HETATM   11  C   UNL     1      27.746  43.748  52.526  1.00  0.00     0.013 A 
HETATM   12  O   UNL     1      27.573  47.384  56.000  1.00  0.00    -0.275 OA
HETATM   13  C   UNL     1      26.434  47.996  55.537  1.00  0.00     0.288 C 
HETATM   14  O   UNL     1      25.853  48.875  56.163  1.00  0.00    -0.260 OA
HETATM   15  C   UNL     1      25.983  47.585  54.208  1.00  0.00     0.091 C 
ENDROOT
BRANCH   1  16
HETATM   16  C   UNL     1      26.086  46.305  52.064  1.00  0.00     0.122 C 
BRANCH  16  17
HETATM   17  S   UNL     1      26.625  47.498  50.801  1.00  0.00    -0.085 SA
BRANCH  17  18
HETATM   18  C   UNL     1      25.107  47.656  49.888  1.00  0.00     0.190 A 
HETATM   19  N   UNL     1      24.883  48.845  49.307  1.00  0.00    -0.228 NA
HETATM   20  C   UNL     1      23.728  48.982  48.628  1.00  0.00     0.036 A 
HETATM   21  C   UNL     1      23.456  50.308  47.986  1.00  0.00     0.070 C 
HETATM   22  C   UNL     1      22.818  47.952  48.516  1.00  0.00     0.071 A 
HETATM   23  C   UNL     1      23.152  46.766  49.129  1.00  0.00     0.105 A 
HETATM   24  N   UNL     1      24.279  46.601  49.826  1.00  0.00    -0.211 NA
BRANCH  23  25
HETATM   25  N   UNL     1      22.279  45.680  49.087  1.00  0.00    -0.287 NA
HETATM   26  H   UNL     1      21.709  45.767  48.250  1.00  0.00     0.125 HD
HETATM   27  H   UNL     1      21.709  45.617  49.924  1.00  0.00     0.125 HD
ENDBRANCH  23  25
ENDBRANCH  17  18
ENDBRANCH  16  17
ENDBRANCH   1  16
TORSDOF 4
ENDMDL
MODEL 5
REMARK VINA RESULT:      -9.5      2.774      4.621
REMARK  4 active torsions:
REMARK  status: ('A' for Active; 'I' for Inactive)
REMARK    1  A    between atoms: C_4  and  S_5 
REMARK    2  A    between atoms: S_5  and  C_6 
REMARK    3  A    between atoms: C_6  and  C_7 
REMARK    4  A    between atoms: C_23  and  N_24 
ROOT
HETATM    1  C   UNL     1      26.841  42.988  51.877  1.00  0.00    -0.029 C 
HETATM    2  C   UNL     1      27.709  43.588  52.950  1.00  0.00     0.016 A 
HETATM    3  C   UNL     1      28.727  42.750  53.443  1.00  0.00     0.091 A 
HETATM    4  C   UNL     1      29.554  43.092  54.509  1.00  0.00     0.039 A 
HETATM    5  C   UNL     1      29.392  44.320  55.121  1.00  0.00     0.015 A 
HETATM    6  C   UNL     1      28.444  45.229  54.650  1.00  0.00    -0.025 A 
HETATM    7  C   UNL     1      27.602  44.908  53.539  1.00  0.00    -0.012 A 
HETATM    8  C   UNL     1      28.366  46.475  55.298  1.00  0.00     0.012 A 
HETATM    9  C   UNL     1      27.483  47.458  54.872  1.00  0.00     0.001 A 
HETATM   10  C   UNL     1      26.685  47.211  53.772  1.00  0.00     0.001 A 
HETATM   11  C   UNL     1      26.754  45.973  53.119  1.00  0.00     0.013 A 
HETATM   12  O   UNL     1      29.037  41.495  52.881  1.00  0.00    -0.275 OA
HETATM   13  C   UNL     1      28.398  41.047  51.751  1.00  0.00     0.288 C 
HETATM   14  O   UNL     1      28.735  40.029  51.159  1.00  0.00    -0.260 OA
HETATM   15  C   UNL     1      27.234  41.824  51.325  1.00  0.00     0.091 C 
ENDROOT
BRANCH   1  16
HETATM   16  C   UNL     1      25.549  43.665  51.468  1.00  0.00     0.122 C 
BRANCH  16  17
HETATM   17  S   UNL     1      25.275  43.885  49.683  1.00  0.00    -0.085 SA
BRANCH  17  18
HETATM   18  C   UNL     1      25.238  45.661  49.615  1.00  0.00     0.190 A 
HETATM   19  N   UNL     1      26.423  46.277  49.486  1.00  0.00    -0.228 NA
HETATM   20  C   UNL     1      26.408  47.624  49.451  1.00  0.00     0.036 A 
HETATM   21  C   UNL     1      27.725  48.327  49.322  1.00  0.00     0.070 C 
HETATM   22  C   UNL     1      25.236  48.345  49.530  1.00  0.00     0.071 A 
HETATM   23  C   UNL     1      24.072  47.619  49.639  1.00  0.00     0.105 A 
HETATM   24  N   UNL     1      24.051  46.284  49.694  1.00  0.00    -0.211 NA
BRANCH  23  25
HETATM   25  N   UNL     1      22.843  48.268  49.748  1.00  0.00    -0.287 NA
HETATM   26  H   UNL     1      22.917  48.958  50.490  1.00  0.00     0.125 HD
HETATM   27  H   UNL     1      22.083  47.617  49.916  1.00  0.00     0.125 HD
ENDBRANCH  23  25
ENDBRANCH  17  18
ENDBRANCH  16  17
ENDBRANCH   1  16
TORSDOF 4
ENDMDL
MODEL 6
REMARK VINA RESULT:      -9.5      4.188      6.325
REMARK  4 active torsions:
REMARK  status: ('A' for Active; 'I' for Inactive)
REMARK    1  A    between atoms: C_4  and  S_5 
REMARK    2  A    between atoms: S_5  and  C_6 
REMARK    3  A    between atoms: C_6  and  C_7 
REMARK    4  A    between atoms: C_23  and  N_24 
ROOT
HETATM    1  C   UNL     1      27.581  43.571  52.835  1.00  0.00    -0.029 C 
HETATM    2  C   UNL     1      27.887  44.523  53.959  1.00  0.00     0.016 A 
HETATM    3  C   UNL     1      26.987  45.597  54.104  1.00  0.00     0.091 A 
HETATM    4  C   UNL     1      27.170  46.634  55.014  1.00  0.00     0.039 A 
HETATM    5  C   UNL     1      28.278  46.620  55.839  1.00  0.00     0.015 A 
HETATM    6  C   UNL     1      29.183  45.558  55.796  1.00  0.00    -0.025 A 
HETATM    7  C   UNL     1      29.000  44.471  54.885  1.00  0.00    -0.012 A 
HETATM    8  C   UNL     1      30.264  45.595  56.694  1.00  0.00     0.012 A 
HETATM    9  C   UNL     1      31.190  44.562  56.753  1.00  0.00     0.001 A 
HETATM   10  C   UNL     1      31.027  43.467  55.927  1.00  0.00     0.001 A 
HETATM   11  C   UNL     1      29.953  43.421  55.028  1.00  0.00     0.013 A 
HETATM   12  O   UNL     1      25.792  45.710  53.366  1.00  0.00    -0.275 OA
HETATM   13  C   UNL     1      25.395  44.718  52.504  1.00  0.00     0.288 C 
HETATM   14  O   UNL     1      24.301  44.718  51.953  1.00  0.00    -0.260 OA
HETATM   15  C   UNL     1      26.387  43.682  52.221  1.00  0.00     0.091 C 
ENDROOT
BRANCH   1  16
HETATM   16  C   UNL     1      28.610  42.551  52.392  1.00  0.00     0.122 C 
BRANCH  16  17
HETATM   17  S   UNL     1      28.090  40.808  52.418  1.00  0.00    -0.085 SA
BRANCH  17  18
HETATM   18  C   UNL     1      28.184  40.455  50.678  1.00  0.00     0.190 A 
HETATM   19  N   UNL     1      28.863  39.350  50.331  1.00  0.00    -0.228 NA
HETATM   20  C   UNL     1      28.955  39.081  49.014  1.00  0.00     0.036 A 
HETATM   21  C   UNL     1      29.721  37.860  48.609  1.00  0.00     0.070 C 
HETATM   22  C   UNL     1      28.372  39.888  48.060  1.00  0.00     0.071 A 
HETATM   23  C   UNL     1      27.680  40.985  48.520  1.00  0.00     0.105 A 
HETATM   24  N   UNL     1      27.583  41.292  49.817  1.00  0.00    -0.211 NA
BRANCH  23  25
HETATM   25  N   UNL     1      27.080  41.869  47.624  1.00  0.00    -0.287 NA
HETATM   26  H   UNL     1      26.173  41.488  47.367  1.00  0.00     0.125 HD
HETATM   27  H   UNL     1      27.661  42.036  46.809  1.00  0.00     0.125 HD
ENDBRANCH  23  25
ENDBRANCH  17  18
ENDBRANCH  16  17
ENDBRANCH   1  16
TORSDOF 4
ENDMDL
MODEL 7
REMARK VINA RESULT:      -9.5      2.515      3.825
REMARK  4 active torsions:
REMARK  status: ('A' for Active; 'I' for Inactive)
REMARK    1  A    between atoms: C_4  and  S_5 
REMARK    2  A    between atoms: S_5  and  C_6 
REMARK    3  A    between atoms: C_6  and  C_7 
REMARK    4  A    between atoms: C_23  and  N_24 
ROOT
HETATM    1  C   UNL     1      26.864  44.668  51.560  1.00  0.00    -0.029 C 
HETATM    2  C   UNL     1      27.866  44.132  52.546  1.00  0.00     0.016 A 
HETATM    3  C   UNL     1      28.371  42.849  52.258  1.00  0.00     0.091 A 
HETATM    4  C   UNL     1      29.220  42.149  53.111  1.00  0.00     0.039 A 
HETATM    5  C   UNL     1      29.612  42.732  54.301  1.00  0.00     0.015 A 
HETATM    6  C   UNL     1      29.202  44.026  54.627  1.00  0.00    -0.025 A 
HETATM    7  C   UNL     1      28.350  44.772  53.753  1.00  0.00    -0.012 A 
HETATM    8  C   UNL     1      29.675  44.567  55.835  1.00  0.00     0.012 A 
HETATM    9  C   UNL     1      29.355  45.862  56.222  1.00  0.00     0.001 A 
HETATM   10  C   UNL     1      28.576  46.638  55.386  1.00  0.00     0.001 A 
HETATM   11  C   UNL     1      28.098  46.108  54.180  1.00  0.00     0.013 A 
HETATM   12  O   UNL     1      28.096  42.160  51.060  1.00  0.00    -0.275 OA
HETATM   13  C   UNL     1      27.368  42.748  50.055  1.00  0.00     0.288 C 
HETATM   14  O   UNL     1      27.227  42.235  48.952  1.00  0.00    -0.260 OA
HETATM   15  C   UNL     1      26.704  44.005  50.399  1.00  0.00     0.091 C 
ENDROOT
BRANCH   1  16
HETATM   16  C   UNL     1      26.039  45.894  51.895  1.00  0.00     0.122 C 
BRANCH  16  17
HETATM   17  S   UNL     1      24.611  46.232  50.820  1.00  0.00    -0.085 SA
BRANCH  17  18
HETATM   18  C   UNL     1      25.251  47.627  49.922  1.00  0.00     0.190 A 
HETATM   19  N   UNL     1      24.343  48.464  49.396  1.00  0.00    -0.228 NA
HETATM   20  C   UNL     1      24.816  49.514  48.699  1.00  0.00     0.036 A 
HETATM   21  C   UNL     1      23.815  50.450  48.093  1.00  0.00     0.070 C 
HETATM   22  C   UNL     1      26.167  49.737  48.538  1.00  0.00     0.071 A 
HETATM   23  C   UNL     1      27.016  48.833  49.134  1.00  0.00     0.105 A 
HETATM   24  N   UNL     1      26.582  47.771  49.818  1.00  0.00    -0.211 NA
BRANCH  23  25
HETATM   25  N   UNL     1      28.398  48.969  49.002  1.00  0.00    -0.287 NA
HETATM   26  H   UNL     1      28.580  49.808  48.460  1.00  0.00     0.125 HD
HETATM   27  H   UNL     1      28.821  48.150  48.578  1.00  0.00     0.125 HD
ENDBRANCH  23  25
ENDBRANCH  17  18
ENDBRANCH  16  17
ENDBRANCH   1  16
TORSDOF 4
ENDMDL
MODEL 8
REMARK VINA RESULT:      -9.3      3.784      6.345
REMARK  4 active torsions:
REMARK  status: ('A' for Active; 'I' for Inactive)
REMARK    1  A    between atoms: C_4  and  S_5 
REMARK    2  A    between atoms: S_5  and  C_6 
REMARK    3  A    between atoms: C_6  and  C_7 
REMARK    4  A    between atoms: C_23  and  N_24 
ROOT
HETATM    1  C   UNL     1      28.706  43.197  54.162  1.00  0.00    -0.029 C 
HETATM    2  C   UNL     1      28.267  44.631  54.283  1.00  0.00     0.016 A 
HETATM    3  C   UNL     1      28.917  45.381  55.283  1.00  0.00     0.091 A 
HETATM    4  C   UNL     1      28.567  46.686  55.613  1.00  0.00     0.039 A 
HETATM    5  C   UNL     1      27.538  47.303  54.927  1.00  0.00     0.015 A 
HETATM    6  C   UNL     1      26.886  46.646  53.883  1.00  0.00    -0.025 A 
HETATM    7  C   UNL     1      27.248  45.313  53.510  1.00  0.00    -0.012 A 
HETATM    8  C   UNL     1      25.877  47.353  53.205  1.00  0.00     0.012 A 
HETATM    9  C   UNL     1      25.204  46.796  52.126  1.00  0.00     0.001 A 
HETATM   10  C   UNL     1      25.553  45.530  51.699  1.00  0.00     0.001 A 
HETATM   11  C   UNL     1      26.557  44.816  52.368  1.00  0.00     0.013 A 
HETATM   12  O   UNL     1      30.014  44.896  56.022  1.00  0.00    -0.275 OA
HETATM   13  C   UNL     1      30.567  43.669  55.750  1.00  0.00     0.288 C 
HETATM   14  O   UNL     1      31.601  43.276  56.276  1.00  0.00    -0.260 OA
HETATM   15  C   UNL     1      29.809  42.816  54.834  1.00  0.00     0.091 C 
ENDROOT
BRANCH   1  16
HETATM   16  C   UNL     1      27.900  42.215  53.336  1.00  0.00     0.122 C 
BRANCH  16  17
HETATM   17  S   UNL     1      28.805  40.794  52.650  1.00  0.00    -0.085 SA
BRANCH  17  18
HETATM   18  C   UNL     1      28.250  40.887  50.964  1.00  0.00     0.190 A 
HETATM   19  N   UNL     1      28.540  39.834  50.183  1.00  0.00    -0.228 NA
HETATM   20  C   UNL     1      28.139  39.901  48.899  1.00  0.00     0.036 A 
HETATM   21  C   UNL     1      28.467  38.740  48.011  1.00  0.00     0.070 C 
HETATM   22  C   UNL     1      27.451  40.988  48.403  1.00  0.00     0.071 A 
HETATM   23  C   UNL     1      27.185  42.006  49.289  1.00  0.00     0.105 A 
HETATM   24  N   UNL     1      27.582  41.981  50.564  1.00  0.00    -0.211 NA
BRANCH  23  25
HETATM   25  N   UNL     1      26.516  43.154  48.866  1.00  0.00    -0.287 NA
HETATM   26  H   UNL     1      27.150  43.942  48.967  1.00  0.00     0.125 HD
HETATM   27  H   UNL     1      25.652  43.300  49.376  1.00  0.00     0.125 HD
ENDBRANCH  23  25
ENDBRANCH  17  18
ENDBRANCH  16  17
ENDBRANCH   1  16
TORSDOF 4
ENDMDL
MODEL 9
REMARK VINA RESULT:      -8.9      3.131      8.180
REMARK  4 active torsions:
REMARK  status: ('A' for Active; 'I' for Inactive)
REMARK    1  A    between atoms: C_4  and  S_5 
REMARK    2  A    between atoms: S_5  and  C_6 
REMARK    3  A    between atoms: C_6  and  C_7 
REMARK    4  A    between atoms: C_23  and  N_24 
ROOT
HETATM    1  C   UNL     1      25.116  47.667  49.678  1.00  0.00    -0.029 C 
HETATM    2  C   UNL     1      24.176  48.542  48.894  1.00  0.00     0.016 A 
HETATM    3  C   UNL     1      24.728  49.746  48.414  1.00  0.00     0.091 A 
HETATM    4  C   UNL     1      23.983  50.727  47.766  1.00  0.00     0.039 A 
HETATM    5  C   UNL     1      22.632  50.522  47.560  1.00  0.00     0.015 A 
HETATM    6  C   UNL     1      22.026  49.328  47.953  1.00  0.00    -0.025 A 
HETATM    7  C   UNL     1      22.778  48.297  48.598  1.00  0.00    -0.012 A 
HETATM    8  C   UNL     1      20.656  49.177  47.673  1.00  0.00     0.012 A 
HETATM    9  C   UNL     1      19.979  48.007  47.988  1.00  0.00     0.001 A 
HETATM   10  C   UNL     1      20.676  46.964  48.566  1.00  0.00     0.001 A 
HETATM   11  C   UNL     1      22.040  47.105  48.851  1.00  0.00     0.013 A 
HETATM   12  O   UNL     1      26.098  50.061  48.510  1.00  0.00    -0.275 OA
HETATM   13  C   UNL     1      26.999  49.158  49.018  1.00  0.00     0.288 C 
HETATM   14  O   UNL     1      28.210  49.343  48.989  1.00  0.00    -0.260 OA
HETATM   15  C   UNL     1      26.426  47.978  49.665  1.00  0.00     0.091 C 
ENDROOT
BRANCH   1  16
HETATM   16  C   UNL     1      24.585  46.499  50.484  1.00  0.00     0.122 C 
BRANCH  16  17
HETATM   17  S   UNL     1      25.775  45.187  50.896  1.00  0.00    -0.085 SA
BRANCH  17  18
HETATM   18  C   UNL     1      26.314  45.777  52.485  1.00  0.00     0.190 A 
HETATM   19  N   UNL     1      27.273  45.060  53.092  1.00  0.00    -0.228 NA
HETATM   20  C   UNL     1      27.676  45.487  54.304  1.00  0.00     0.036 A 
HETATM   21  C   UNL     1      28.736  44.690  55.001  1.00  0.00     0.070 C 
HETATM   22  C   UNL     1      27.147  46.614  54.896  1.00  0.00     0.071 A 
HETATM   23  C   UNL     1      26.184  47.291  54.183  1.00  0.00     0.105 A 
HETATM   24  N   UNL     1      25.747  46.886  52.987  1.00  0.00    -0.211 NA
BRANCH  23  25
HETATM   25  N   UNL     1      25.577  48.427  54.717  1.00  0.00    -0.287 NA
HETATM   26  H   UNL     1      26.291  49.141  54.827  1.00  0.00     0.125 HD
HETATM   27  H   UNL     1      25.106  48.229  55.594  1.00  0.00     0.125 HD
ENDBRANCH  23  25
ENDBRANCH  17  18
ENDBRANCH  16  17
ENDBRANCH   1  16
TORSDOF 4
ENDMDL
MODEL 10
REMARK VINA RESULT:      -8.7      6.040     10.931
REMARK  4 active torsions:
REMARK  status: ('A' for Active; 'I' for Inactive)
REMARK    1  A    between atoms: C_4  and  S_5 
REMARK    2  A    between atoms: S_5  and  C_6 
REMARK    3  A    between atoms: C_6  and  C_7 
REMARK    4  A    between atoms: C_23  and  N_24 
ROOT
HETATM    1  C   UNL     1      19.435  47.913  48.840  1.00  0.00    -0.029 C 
HETATM    2  C   UNL     1      18.085  48.543  48.626  1.00  0.00     0.016 A 
HETATM    3  C   UNL     1      17.119  47.712  48.025  1.00  0.00     0.091 A 
HETATM    4  C   UNL     1      15.854  48.154  47.650  1.00  0.00     0.039 A 
HETATM    5  C   UNL     1      15.501  49.469  47.884  1.00  0.00     0.015 A 
HETATM    6  C   UNL     1      16.383  50.337  48.530  1.00  0.00    -0.025 A 
HETATM    7  C   UNL     1      17.679  49.897  48.946  1.00  0.00    -0.012 A 
HETATM    8  C   UNL     1      15.938  51.649  48.768  1.00  0.00     0.012 A 
HETATM    9  C   UNL     1      16.729  52.570  49.443  1.00  0.00     0.001 A 
HETATM   10  C   UNL     1      17.969  52.175  49.908  1.00  0.00     0.001 A 
HETATM   11  C   UNL     1      18.422  50.870  49.674  1.00  0.00     0.013 A 
HETATM   12  O   UNL     1      17.324  46.340  47.778  1.00  0.00    -0.275 OA
HETATM   13  C   UNL     1      18.473  45.710  48.188  1.00  0.00     0.288 C 
HETATM   14  O   UNL     1      18.626  44.497  48.113  1.00  0.00    -0.260 OA
HETATM   15  C   UNL     1      19.546  46.583  48.663  1.00  0.00     0.091 C 
ENDROOT
BRANCH   1  16
HETATM   16  C   UNL     1      20.630  48.769  49.207  1.00  0.00     0.122 C 
BRANCH  16  17
HETATM   17  S   UNL     1      21.563  49.498  47.826  1.00  0.00    -0.085 SA
BRANCH  17  18
HETATM   18  C   UNL     1      23.215  49.136  48.372  1.00  0.00     0.190 A 
HETATM   19  N   UNL     1      23.335  48.196  49.323  1.00  0.00    -0.228 NA
HETATM   20  C   UNL     1      24.581  47.925  49.756  1.00  0.00     0.036 A 
HETATM   21  C   UNL     1      24.732  46.889  50.828  1.00  0.00     0.070 C 
HETATM   22  C   UNL     1      25.690  48.568  49.246  1.00  0.00     0.071 A 
HETATM   23  C   UNL     1      25.462  49.500  48.260  1.00  0.00     0.105 A 
HETATM   24  N   UNL     1      24.239  49.806  47.818  1.00  0.00    -0.211 NA
BRANCH  23  25
HETATM   25  N   UNL     1      26.523  50.214  47.705  1.00  0.00    -0.287 NA
HETATM   26  H   UNL     1      27.124  49.556  47.218  1.00  0.00     0.125 HD
HETATM   27  H   UNL     1      27.033  50.742  48.405  1.00  0.00     0.125 HD
ENDBRANCH  23  25
ENDBRANCH  17  18
ENDBRANCH  16  17
ENDBRANCH   1  16
TORSDOF 4
ENDMDL
