MODEL 1
REMARK VINA RESULT:      -9.3      0.000      0.000
REMARK  5 active torsions:
REMARK  status: ('A' for Active; 'I' for Inactive)
REMARK    1  A    between atoms: C_3  and  O_4 
REMARK    2  A    between atoms: O_4  and  C_5 
REMARK    3  A    between atoms: C_5  and  C_6 
REMARK       I    between atoms: C_6  and  N_7 
REMARK    4  A    between atoms: N_7  and  C_8 
REMARK    5  A    between atoms: C_14  and  C_15 
ROOT
HETATM    1  C   UNL     1      27.112  43.774  51.980  1.00  0.00     0.137 A 
HETATM    2  N   UNL     1      26.762  42.793  51.086  1.00  0.00    -0.262 N 
HETATM    3  H   UNL     1      26.154  42.905  50.277  1.00  0.00     0.191 HD
HETATM    4  N   UNL     1      27.295  41.590  51.359  1.00  0.00    -0.177 NA
HETATM    5  C   UNL     1      28.027  41.806  52.459  1.00  0.00     0.065 A 
HETATM    6  C   UNL     1      28.803  40.692  53.059  1.00  0.00     0.073 C 
HETATM    7  C   UNL     1      27.944  43.159  52.896  1.00  0.00     0.046 A 
ENDROOT
BRANCH   1   8
HETATM    8  N   UNL     1      26.667  45.083  51.895  1.00  0.00    -0.309 N 
HETATM    9  C   UNL     1      25.314  45.400  51.958  1.00  0.00     0.247 C 
HETATM   10  O   UNL     1      24.428  44.566  52.147  1.00  0.00    -0.271 OA
HETATM   11  H   UNL     1      27.361  45.809  51.764  1.00  0.00     0.170 HD
BRANCH   9  12
HETATM   12  C   UNL     1      25.039  46.893  51.765  1.00  0.00     0.278 C 
BRANCH  12  13
HETATM   13  O   UNL     1      24.606  47.125  50.432  1.00  0.00    -0.342 OA
BRANCH  13  14
HETATM   14  C   UNL     1      25.292  48.051  49.696  1.00  0.00     0.075 A 
HETATM   15  C   UNL     1      24.503  48.915  48.915  1.00  0.00    -0.029 A 
HETATM   16  C   UNL     1      23.002  48.797  48.916  1.00  0.00     0.051 C 
HETATM   17  C   UNL     1      25.122  49.908  48.142  1.00  0.00     0.009 A 
HETATM   18  C   UNL     1      26.510  50.040  48.141  1.00  0.00     0.001 A 
HETATM   19  C   UNL     1      27.288  49.188  48.919  1.00  0.00     0.003 A 
HETATM   20  C   UNL     1      26.683  48.198  49.698  1.00  0.00     0.037 A 
ENDBRANCH  13  14
ENDBRANCH  12  13
ENDBRANCH   9  12
ENDBRANCH   1   8
BRANCH   7  21
HETATM   21  C   UNL     1      28.561  43.812  54.032  1.00  0.00    -0.020 A 
HETATM   22  C   UNL     1      29.845  43.444  54.456  1.00  0.00     0.014 A 
HETATM   23  C   UNL     1      30.428  44.070  55.561  1.00  0.00     0.020 A 
HETATM   24  C   UNL     1      29.725  45.059  56.247  1.00  0.00     0.011 A 
HETATM   25 BR   UNL     1      30.510  45.900  57.746  1.00  0.00    -0.051 Br
HETATM   26  C   UNL     1      28.445  45.429  55.838  1.00  0.00     0.020 A 
HETATM   27  C   UNL     1      27.863  44.806  54.731  1.00  0.00     0.014 A 
ENDBRANCH   7  21
TORSDOF 5
ENDMDL
MODEL 2
REMARK VINA RESULT:      -9.3      3.096      4.760
REMARK  5 active torsions:
REMARK  status: ('A' for Active; 'I' for Inactive)
REMARK    1  A    between atoms: C_3  and  O_4 
REMARK    2  A    between atoms: O_4  and  C_5 
REMARK    3  A    between atoms: C_5  and  C_6 
REMARK       I    between atoms: C_6  and  N_7 
REMARK    4  A    between atoms: N_7  and  C_8 
REMARK    5  A    between atoms: C_14  and  C_15 
ROOT
HETATM    1  C   UNL     1      28.518  45.416  55.488  1.00  0.00     0.137 A 
HETATM    2  N   UNL     1      29.170  46.014  56.538  1.00  0.00    -0.262 N 
HETATM    3  H   UNL     1      28.861  46.839  57.046  1.00  0.00     0.191 HD
HETATM    4  N   UNL     1      30.324  45.414  56.877  1.00  0.00    -0.177 NA
HETATM    5  C   UNL     1      30.411  44.384  56.026  1.00  0.00     0.065 A 
HETATM    6  C   UNL     1      31.566  43.454  56.110  1.00  0.00     0.073 C 
HETATM    7  C   UNL     1      29.307  44.341  55.127  1.00  0.00     0.046 A 
ENDROOT
BRANCH   1   8
HETATM    8  N   UNL     1      27.319  45.876  54.968  1.00  0.00    -0.309 N 
HETATM    9  C   UNL     1      27.180  47.175  54.491  1.00  0.00     0.247 C 
HETATM   10  O   UNL     1      28.107  47.984  54.443  1.00  0.00    -0.271 OA
HETATM   11  H   UNL     1      26.532  45.237  54.965  1.00  0.00     0.170 HD
BRANCH   9  12
HETATM   12  C   UNL     1      25.755  47.496  54.037  1.00  0.00     0.278 C 
BRANCH  12  13
HETATM   13  O   UNL     1      25.729  47.638  52.624  1.00  0.00    -0.342 OA
BRANCH  13  14
HETATM   14  C   UNL     1      25.634  46.497  51.876  1.00  0.00     0.075 A 
HETATM   15  C   UNL     1      26.089  46.599  50.549  1.00  0.00    -0.029 A 
HETATM   16  C   UNL     1      26.638  47.898  50.023  1.00  0.00     0.051 C 
HETATM   17  C   UNL     1      26.046  45.473  49.715  1.00  0.00     0.009 A 
HETATM   18  C   UNL     1      25.553  44.259  50.191  1.00  0.00     0.001 A 
HETATM   19  C   UNL     1      25.109  44.158  51.506  1.00  0.00     0.003 A 
HETATM   20  C   UNL     1      25.152  45.272  52.349  1.00  0.00     0.037 A 
ENDBRANCH  13  14
ENDBRANCH  12  13
ENDBRANCH   9  12
ENDBRANCH   1   8
BRANCH   7  21
HETATM   21  C   UNL     1      29.012  43.412  54.055  1.00  0.00    -0.020 A 
HETATM   22  C   UNL     1      28.945  43.854  52.727  1.00  0.00     0.014 A 
HETATM   23  C   UNL     1      28.647  42.954  51.700  1.00  0.00     0.020 A 
HETATM   24  C   UNL     1      28.410  41.614  52.002  1.00  0.00     0.011 A 
HETATM   25 BR   UNL     1      28.000  40.398  50.614  1.00  0.00    -0.051 Br
HETATM   26  C   UNL     1      28.469  41.165  53.319  1.00  0.00     0.020 A 
HETATM   27  C   UNL     1      28.769  42.063  54.346  1.00  0.00     0.014 A 
ENDBRANCH   7  21
TORSDOF 5
ENDMDL
MODEL 3
REMARK VINA RESULT:      -9.3      3.015      4.322
REMARK  5 active torsions:
REMARK  status: ('A' for Active; 'I' for Inactive)
REMARK    1  A    between atoms: C_3  and  O_4 
REMARK    2  A    between atoms: O_4  and  C_5 
REMARK    3  A    between atoms: C_5  and  C_6 
REMARK       I    between atoms: C_6  and  N_7 
REMARK    4  A    between atoms: N_7  and  C_8 
REMARK    5  A    between atoms: C_14  and  C_15 
ROOT
HETATM    1  C   UNL     1      25.987  41.268  50.668  1.00  0.00     0.137 A 
HETATM    2  N   UNL     1      25.629  40.386  49.679  1.00  0.00    -0.262 N 
HETATM    3  H   UNL     1      24.742  40.368  49.181  1.00  0.00     0.191 HD
HETATM    4  N   UNL     1      26.575  39.477  49.389  1.00  0.00    -0.177 NA
HETATM    5  C   UNL     1      27.586  39.793  50.209  1.00  0.00     0.065 A 
HETATM    6  C   UNL     1      28.846  39.010  50.162  1.00  0.00     0.073 C 
HETATM    7  C   UNL     1      27.268  40.906  51.039  1.00  0.00     0.046 A 
ENDROOT
BRANCH   1   8
HETATM    8  N   UNL     1      25.160  42.278  51.132  1.00  0.00    -0.309 N 
HETATM    9  C   UNL     1      25.137  43.534  50.535  1.00  0.00     0.247 C 
HETATM   10  O   UNL     1      25.793  43.824  49.536  1.00  0.00    -0.271 OA
HETATM   11  H   UNL     1      24.582  42.078  51.939  1.00  0.00     0.170 HD
BRANCH   9  12
HETATM   12  C   UNL     1      24.212  44.520  51.254  1.00  0.00     0.278 C 
BRANCH  12  13
HETATM   13  O   UNL     1      24.453  44.460  52.653  1.00  0.00    -0.342 OA
BRANCH  13  14
HETATM   14  C   UNL     1      25.380  45.322  53.173  1.00  0.00     0.075 A 
HETATM   15  C   UNL     1      26.131  44.828  54.254  1.00  0.00    -0.029 A 
HETATM   16  C   UNL     1      25.901  43.436  54.778  1.00  0.00     0.051 C 
HETATM   17  C   UNL     1      27.116  45.637  54.838  1.00  0.00     0.009 A 
HETATM   18  C   UNL     1      27.351  46.924  54.356  1.00  0.00     0.001 A 
HETATM   19  C   UNL     1      26.610  47.408  53.282  1.00  0.00     0.003 A 
HETATM   20  C   UNL     1      25.629  46.609  52.688  1.00  0.00     0.037 A 
ENDBRANCH  13  14
ENDBRANCH  12  13
ENDBRANCH   9  12
ENDBRANCH   1   8
BRANCH   7  21
HETATM   21  C   UNL     1      28.058  41.563  52.060  1.00  0.00    -0.020 A 
HETATM   22  C   UNL     1      28.268  40.951  53.303  1.00  0.00     0.014 A 
HETATM   23  C   UNL     1      29.020  41.598  54.288  1.00  0.00     0.020 A 
HETATM   24  C   UNL     1      29.556  42.859  54.032  1.00  0.00     0.011 A 
HETATM   25 BR   UNL     1      30.566  43.737  55.366  1.00  0.00    -0.051 Br
HETATM   26  C   UNL     1      29.348  43.480  52.802  1.00  0.00     0.020 A 
HETATM   27  C   UNL     1      28.599  42.833  51.816  1.00  0.00     0.014 A 
ENDBRANCH   7  21
TORSDOF 5
ENDMDL
MODEL 4
REMARK VINA RESULT:      -9.1      2.874      7.081
REMARK  5 active torsions:
REMARK  status: ('A' for Active; 'I' for Inactive)
REMARK    1  A    between atoms: C_3  and  O_4 
REMARK    2  A    between atoms: O_4  and  C_5 
REMARK    3  A    between atoms: C_5  and  C_6 
REMARK       I    between atoms: C_6  and  N_7 
REMARK    4  A    between atoms: N_7  and  C_8 
REMARK    5  A    between atoms: C_14  and  C_15 
ROOT
HETATM    1  C   UNL     1      25.572  43.888  51.593  1.00  0.00     0.137 A 
HETATM    2  N   UNL     1      24.955  42.662  51.568  1.00  0.00    -0.262 N 
HETATM    3  H   UNL     1      24.986  41.957  52.301  1.00  0.00     0.191 HD
HETATM    4  N   UNL     1      24.266  42.420  50.440  1.00  0.00    -0.177 NA
HETATM    5  C   UNL     1      24.431  43.537  49.718  1.00  0.00     0.065 A 
HETATM    6  C   UNL     1      23.782  43.658  48.389  1.00  0.00     0.073 C 
HETATM    7  C   UNL     1      25.248  44.489  50.392  1.00  0.00     0.046 A 
ENDROOT
BRANCH   1   8
HETATM    8  N   UNL     1      26.343  44.336  52.653  1.00  0.00    -0.309 N 
HETATM    9  C   UNL     1      25.812  44.489  53.930  1.00  0.00     0.247 C 
HETATM   10  O   UNL     1      24.655  44.190  54.225  1.00  0.00    -0.271 OA
HETATM   11  H   UNL     1      27.310  44.572  52.464  1.00  0.00     0.170 HD
BRANCH   9  12
HETATM   12  C   UNL     1      26.814  45.070  54.929  1.00  0.00     0.278 C 
BRANCH  12  13
HETATM   13  O   UNL     1      28.123  45.004  54.379  1.00  0.00    -0.342 OA
BRANCH  13  14
HETATM   14  C   UNL     1      29.156  44.742  55.236  1.00  0.00     0.075 A 
HETATM   15  C   UNL     1      29.887  43.571  54.968  1.00  0.00    -0.029 A 
HETATM   16  C   UNL     1      29.524  42.687  53.805  1.00  0.00     0.051 C 
HETATM   17  C   UNL     1      30.976  43.234  55.785  1.00  0.00     0.009 A 
HETATM   18  C   UNL     1      31.333  44.049  56.858  1.00  0.00     0.001 A 
HETATM   19  C   UNL     1      30.613  45.210  57.117  1.00  0.00     0.003 A 
HETATM   20  C   UNL     1      29.529  45.560  56.307  1.00  0.00     0.037 A 
ENDBRANCH  13  14
ENDBRANCH  12  13
ENDBRANCH   9  12
ENDBRANCH   1   8
BRANCH   7  21
HETATM   21  C   UNL     1      25.683  45.807  49.975  1.00  0.00    -0.020 A 
HETATM   22  C   UNL     1      27.022  46.042  49.636  1.00  0.00     0.014 A 
HETATM   23  C   UNL     1      27.435  47.319  49.247  1.00  0.00     0.020 A 
HETATM   24  C   UNL     1      26.511  48.362  49.204  1.00  0.00     0.011 A 
HETATM   25 BR   UNL     1      27.071  50.091  48.686  1.00  0.00    -0.051 Br
HETATM   26  C   UNL     1      25.178  48.141  49.545  1.00  0.00     0.020 A 
HETATM   27  C   UNL     1      24.764  46.863  49.931  1.00  0.00     0.014 A 
ENDBRANCH   7  21
TORSDOF 5
ENDMDL
MODEL 5
REMARK VINA RESULT:      -8.9      3.486      7.307
REMARK  5 active torsions:
REMARK  status: ('A' for Active; 'I' for Inactive)
REMARK    1  A    between atoms: C_3  and  O_4 
REMARK    2  A    between atoms: O_4  and  C_5 
REMARK    3  A    between atoms: C_5  and  C_6 
REMARK       I    between atoms: C_6  and  N_7 
REMARK    4  A    between atoms: N_7  and  C_8 
REMARK    5  A    between atoms: C_14  and  C_15 
ROOT
HETATM    1  C   UNL     1      26.495  41.558  51.503  1.00  0.00     0.137 A 
HETATM    2  N   UNL     1      26.668  40.218  51.262  1.00  0.00    -0.262 N 
HETATM    3  H   UNL     1      27.063  39.536  51.907  1.00  0.00     0.191 HD
HETATM    4  N   UNL     1      26.268  39.827  50.041  1.00  0.00    -0.177 NA
HETATM    5  C   UNL     1      25.807  40.952  49.479  1.00  0.00     0.065 A 
HETATM    6  C   UNL     1      25.244  40.913  48.106  1.00  0.00     0.073 C 
HETATM    7  C   UNL     1      25.931  42.071  50.351  1.00  0.00     0.046 A 
ENDROOT
BRANCH   1   8
HETATM    8  N   UNL     1      26.850  42.176  52.692  1.00  0.00    -0.309 N 
HETATM    9  C   UNL     1      28.173  42.490  52.985  1.00  0.00     0.247 C 
HETATM   10  O   UNL     1      29.106  42.300  52.205  1.00  0.00    -0.271 OA
HETATM   11  H   UNL     1      26.112  42.374  53.357  1.00  0.00     0.170 HD
BRANCH   9  12
HETATM   12  C   UNL     1      28.349  43.093  54.381  1.00  0.00     0.278 C 
BRANCH  12  13
HETATM   13  O   UNL     1      29.465  43.971  54.379  1.00  0.00    -0.342 OA
BRANCH  13  14
HETATM   14  C   UNL     1      30.118  44.167  55.565  1.00  0.00     0.075 A 
HETATM   15  C   UNL     1      29.797  45.354  56.247  1.00  0.00    -0.029 A 
HETATM   16  C   UNL     1      28.795  46.322  55.677  1.00  0.00     0.051 C 
HETATM   17  C   UNL     1      30.405  45.629  57.480  1.00  0.00     0.009 A 
HETATM   18  C   UNL     1      31.325  44.736  58.029  1.00  0.00     0.001 A 
HETATM   19  C   UNL     1      31.636  43.559  57.355  1.00  0.00     0.003 A 
HETATM   20  C   UNL     1      31.032  43.272  56.127  1.00  0.00     0.037 A 
ENDBRANCH  13  14
ENDBRANCH  12  13
ENDBRANCH   9  12
ENDBRANCH   1   8
BRANCH   7  21
HETATM   21  C   UNL     1      25.570  43.459  50.145  1.00  0.00    -0.020 A 
HETATM   22  C   UNL     1      26.549  44.413  49.837  1.00  0.00     0.014 A 
HETATM   23  C   UNL     1      26.195  45.752  49.652  1.00  0.00     0.020 A 
HETATM   24  C   UNL     1      24.862  46.138  49.783  1.00  0.00     0.011 A 
HETATM   25 BR   UNL     1      24.383  47.950  49.541  1.00  0.00    -0.051 Br
HETATM   26  C   UNL     1      23.880  45.199  50.095  1.00  0.00     0.020 A 
HETATM   27  C   UNL     1      24.234  43.860  50.276  1.00  0.00     0.014 A 
ENDBRANCH   7  21
TORSDOF 5
ENDMDL
MODEL 6
REMARK VINA RESULT:      -8.9      3.533      5.762
REMARK  5 active torsions:
REMARK  status: ('A' for Active; 'I' for Inactive)
REMARK    1  A    between atoms: C_3  and  O_4 
REMARK    2  A    between atoms: O_4  and  C_5 
REMARK    3  A    between atoms: C_5  and  C_6 
REMARK       I    between atoms: C_6  and  N_7 
REMARK    4  A    between atoms: N_7  and  C_8 
REMARK    5  A    between atoms: C_14  and  C_15 
ROOT
HETATM    1  C   UNL     1      28.024  41.616  51.641  1.00  0.00     0.137 A 
HETATM    2  N   UNL     1      28.602  40.409  51.333  1.00  0.00    -0.262 N 
HETATM    3  H   UNL     1      29.133  39.816  51.967  1.00  0.00     0.191 HD
HETATM    4  N   UNL     1      28.424  40.029  50.057  1.00  0.00    -0.177 NA
HETATM    5  C   UNL     1      27.693  41.018  49.527  1.00  0.00     0.065 A 
HETATM    6  C   UNL     1      27.267  40.941  48.107  1.00  0.00     0.073 C 
HETATM    7  C   UNL     1      27.418  42.044  50.476  1.00  0.00     0.046 A 
ENDROOT
BRANCH   1   8
HETATM    8  N   UNL     1      28.095  42.202  52.895  1.00  0.00    -0.309 N 
HETATM    9  C   UNL     1      29.219  42.908  53.309  1.00  0.00     0.247 C 
HETATM   10  O   UNL     1      30.197  43.113  52.589  1.00  0.00    -0.271 OA
HETATM   11  H   UNL     1      27.303  42.081  53.516  1.00  0.00     0.170 HD
BRANCH   9  12
HETATM   12  C   UNL     1      29.117  43.401  54.754  1.00  0.00     0.278 C 
BRANCH  12  13
HETATM   13  O   UNL     1      27.794  43.851  55.008  1.00  0.00    -0.342 OA
BRANCH  13  14
HETATM   14  C   UNL     1      27.511  45.164  54.748  1.00  0.00     0.075 A 
HETATM   15  C   UNL     1      26.281  45.407  54.110  1.00  0.00    -0.029 A 
HETATM   16  C   UNL     1      25.363  44.270  53.751  1.00  0.00     0.051 C 
HETATM   17  C   UNL     1      25.902  46.726  53.822  1.00  0.00     0.009 A 
HETATM   18  C   UNL     1      26.735  47.792  54.160  1.00  0.00     0.001 A 
HETATM   19  C   UNL     1      27.947  47.548  54.797  1.00  0.00     0.003 A 
HETATM   20  C   UNL     1      28.335  46.239  55.094  1.00  0.00     0.037 A 
ENDBRANCH  13  14
ENDBRANCH  12  13
ENDBRANCH   9  12
ENDBRANCH   1   8
BRANCH   7  21
HETATM   21  C   UNL     1      26.680  43.281  50.325  1.00  0.00    -0.020 A 
HETATM   22  C   UNL     1      27.346  44.515  50.334  1.00  0.00     0.014 A 
HETATM   23  C   UNL     1      26.625  45.704  50.201  1.00  0.00     0.020 A 
HETATM   24  C   UNL     1      25.238  45.661  50.066  1.00  0.00     0.011 A 
HETATM   25 BR   UNL     1      24.261  47.270  49.895  1.00  0.00    -0.051 Br
HETATM   26  C   UNL     1      24.565  44.441  50.063  1.00  0.00     0.020 A 
HETATM   27  C   UNL     1      25.286  43.251  50.193  1.00  0.00     0.014 A 
ENDBRANCH   7  21
TORSDOF 5
ENDMDL
MODEL 7
REMARK VINA RESULT:      -8.8      3.292      6.193
REMARK  5 active torsions:
REMARK  status: ('A' for Active; 'I' for Inactive)
REMARK    1  A    between atoms: C_3  and  O_4 
REMARK    2  A    between atoms: O_4  and  C_5 
REMARK    3  A    between atoms: C_5  and  C_6 
REMARK       I    between atoms: C_6  and  N_7 
REMARK    4  A    between atoms: N_7  and  C_8 
REMARK    5  A    between atoms: C_14  and  C_15 
ROOT
HETATM    1  C   UNL     1      26.431  45.730  53.017  1.00  0.00     0.137 A 
HETATM    2  N   UNL     1      25.476  46.669  52.711  1.00  0.00    -0.262 N 
HETATM    3  H   UNL     1      24.805  46.619  51.948  1.00  0.00     0.191 HD
HETATM    4  N   UNL     1      25.481  47.737  53.526  1.00  0.00    -0.177 NA
HETATM    5  C   UNL     1      26.463  47.472  54.397  1.00  0.00     0.065 A 
HETATM    6  C   UNL     1      26.759  48.432  55.490  1.00  0.00     0.073 C 
HETATM    7  C   UNL     1      27.097  46.226  54.120  1.00  0.00     0.046 A 
ENDROOT
BRANCH   1   8
HETATM    8  N   UNL     1      26.610  44.558  52.300  1.00  0.00    -0.309 N 
HETATM    9  C   UNL     1      25.532  43.838  51.796  1.00  0.00     0.247 C 
HETATM   10  O   UNL     1      24.362  44.207  51.895  1.00  0.00    -0.271 OA
HETATM   11  H   UNL     1      27.558  44.227  52.171  1.00  0.00     0.170 HD
BRANCH   9  12
HETATM   12  C   UNL     1      25.952  42.537  51.108  1.00  0.00     0.278 C 
BRANCH  12  13
HETATM   13  O   UNL     1      27.365  42.405  51.167  1.00  0.00    -0.342 OA
BRANCH  13  14
HETATM   14  C   UNL     1      27.917  41.270  50.641  1.00  0.00     0.075 A 
HETATM   15  C   UNL     1      28.598  40.445  51.554  1.00  0.00    -0.029 A 
HETATM   16  C   UNL     1      28.692  40.822  53.008  1.00  0.00     0.051 C 
HETATM   17  C   UNL     1      29.180  39.251  51.105  1.00  0.00     0.009 A 
HETATM   18  C   UNL     1      29.090  38.881  49.764  1.00  0.00     0.001 A 
HETATM   19  C   UNL     1      28.410  39.695  48.864  1.00  0.00     0.003 A 
HETATM   20  C   UNL     1      27.821  40.886  49.300  1.00  0.00     0.037 A 
ENDBRANCH  13  14
ENDBRANCH  12  13
ENDBRANCH   9  12
ENDBRANCH   1   8
BRANCH   7  21
HETATM   21  C   UNL     1      28.196  45.568  54.797  1.00  0.00    -0.020 A 
HETATM   22  C   UNL     1      28.789  46.150  55.925  1.00  0.00     0.014 A 
HETATM   23  C   UNL     1      29.857  45.514  56.565  1.00  0.00     0.020 A 
HETATM   24  C   UNL     1      30.336  44.301  56.072  1.00  0.00     0.011 A 
HETATM   25 BR   UNL     1      31.785  43.446  56.932  1.00  0.00    -0.051 Br
HETATM   26  C   UNL     1      29.757  43.717  54.947  1.00  0.00     0.020 A 
HETATM   27  C   UNL     1      28.688  44.350  54.309  1.00  0.00     0.014 A 
ENDBRANCH   7  21
TORSDOF 5
ENDMDL
MODEL 8
REMARK VINA RESULT:      -8.7      4.259      6.708
REMARK  5 active torsions:
REMARK  status: ('A' for Active; 'I' for Inactive)
REMARK    1  A    between atoms: C_3  and  O_4 
REMARK    2  A    between atoms: O_4  and  C_5 
REMARK    3  A    between atoms: C_5  and  C_6 
REMARK       I    between atoms: C_6  and  N_7 
REMARK    4  A    between atoms: N_7  and  C_8 
REMARK    5  A    between atoms: C_14  and  C_15 
ROOT
HETATM    1  C   UNL     1      23.971  48.623  49.213  1.00  0.00     0.137 A 
HETATM    2  N   UNL     1      24.349  49.524  48.248  1.00  0.00    -0.262 N 
HETATM    3  H   UNL     1      23.726  50.072  47.659  1.00  0.00     0.191 HD
HETATM    4  N   UNL     1      25.679  49.646  48.106  1.00  0.00    -0.177 NA
HETATM    5  C   UNL     1      26.178  48.806  49.022  1.00  0.00     0.065 A 
HETATM    6  C   UNL     1      27.648  48.682  49.187  1.00  0.00     0.073 C 
HETATM    7  C   UNL     1      25.149  48.133  49.742  1.00  0.00     0.046 A 
ENDROOT
BRANCH   1   8
HETATM    8  N   UNL     1      22.650  48.334  49.516  1.00  0.00    -0.309 N 
HETATM    9  C   UNL     1      21.731  47.996  48.528  1.00  0.00     0.247 C 
HETATM   10  O   UNL     1      22.025  47.875  47.339  1.00  0.00    -0.271 OA
HETATM   11  H   UNL     1      22.367  48.397  50.486  1.00  0.00     0.170 HD
BRANCH   9  12
HETATM   12  C   UNL     1      20.315  47.795  49.073  1.00  0.00     0.278 C 
BRANCH  12  13
HETATM   13  O   UNL     1      19.387  48.476  48.241  1.00  0.00    -0.342 OA
BRANCH  13  14
HETATM   14  C   UNL     1      19.167  49.802  48.492  1.00  0.00     0.075 A 
HETATM   15  C   UNL     1      18.873  50.594  47.368  1.00  0.00    -0.029 A 
HETATM   16  C   UNL     1      18.813  49.985  45.993  1.00  0.00     0.051 C 
HETATM   17  C   UNL     1      18.615  51.962  47.535  1.00  0.00     0.009 A 
HETATM   18  C   UNL     1      18.654  52.540  48.803  1.00  0.00     0.001 A 
HETATM   19  C   UNL     1      18.939  51.752  49.915  1.00  0.00     0.003 A 
HETATM   20  C   UNL     1      19.192  50.386  49.762  1.00  0.00     0.037 A 
ENDBRANCH  13  14
ENDBRANCH  12  13
ENDBRANCH   9  12
ENDBRANCH   1   8
BRANCH   7  21
HETATM   21  C   UNL     1      25.242  47.147  50.799  1.00  0.00    -0.020 A 
HETATM   22  C   UNL     1      24.744  45.850  50.611  1.00  0.00     0.014 A 
HETATM   23  C   UNL     1      24.826  44.908  51.640  1.00  0.00     0.020 A 
HETATM   24  C   UNL     1      25.399  45.265  52.860  1.00  0.00     0.011 A 
HETATM   25 BR   UNL     1      25.503  43.995  54.255  1.00  0.00    -0.051 Br
HETATM   26  C   UNL     1      25.892  46.554  53.060  1.00  0.00     0.020 A 
HETATM   27  C   UNL     1      25.813  47.494  52.030  1.00  0.00     0.014 A 
ENDBRANCH   7  21
TORSDOF 5
ENDMDL
MODEL 9
REMARK VINA RESULT:      -8.6     11.890     13.490
REMARK  5 active torsions:
REMARK  status: ('A' for Active; 'I' for Inactive)
REMARK    1  A    between atoms: C_3  and  O_4 
REMARK    2  A    between atoms: O_4  and  C_5 
REMARK    3  A    between atoms: C_5  and  C_6 
REMARK       I    between atoms: C_6  and  N_7 
REMARK    4  A    between atoms: N_7  and  C_8 
REMARK    5  A    between atoms: C_14  and  C_15 
ROOT
HETATM    1  C   UNL     1      26.579  49.512  40.093  1.00  0.00     0.137 A 
HETATM    2  N   UNL     1      25.262  49.133  40.015  1.00  0.00    -0.262 N 
HETATM    3  H   UNL     1      24.488  49.709  39.691  1.00  0.00     0.191 HD
HETATM    4  N   UNL     1      25.030  47.875  40.427  1.00  0.00    -0.177 NA
HETATM    5  C   UNL     1      26.243  47.421  40.769  1.00  0.00     0.065 A 
HETATM    6  C   UNL     1      26.398  46.029  41.259  1.00  0.00     0.073 C 
HETATM    7  C   UNL     1      27.252  48.410  40.584  1.00  0.00     0.046 A 
ENDROOT
BRANCH   1   8
HETATM    8  N   UNL     1      27.039  50.768  39.731  1.00  0.00    -0.309 N 
HETATM    9  C   UNL     1      27.668  50.991  38.510  1.00  0.00     0.247 C 
HETATM   10  O   UNL     1      27.812  50.123  37.651  1.00  0.00    -0.271 OA
HETATM   11  H   UNL     1      26.921  51.521  40.397  1.00  0.00     0.170 HD
BRANCH   9  12
HETATM   12  C   UNL     1      28.165  52.430  38.349  1.00  0.00     0.278 C 
BRANCH  12  13
HETATM   13  O   UNL     1      29.585  52.435  38.292  1.00  0.00    -0.342 OA
BRANCH  13  14
HETATM   14  C   UNL     1      30.265  52.375  39.477  1.00  0.00     0.075 A 
HETATM   15  C   UNL     1      31.509  51.719  39.432  1.00  0.00    -0.029 A 
HETATM   16  C   UNL     1      32.023  51.134  38.144  1.00  0.00     0.051 C 
HETATM   17  C   UNL     1      32.284  51.627  40.597  1.00  0.00     0.009 A 
HETATM   18  C   UNL     1      31.828  52.176  41.795  1.00  0.00     0.001 A 
HETATM   19  C   UNL     1      30.600  52.829  41.835  1.00  0.00     0.003 A 
HETATM   20  C   UNL     1      29.821  52.933  40.679  1.00  0.00     0.037 A 
ENDBRANCH  13  14
ENDBRANCH  12  13
ENDBRANCH   9  12
ENDBRANCH   1   8
BRANCH   7  21
HETATM   21  C   UNL     1      28.678  48.345  40.834  1.00  0.00    -0.020 A 
HETATM   22  C   UNL     1      29.206  48.759  42.064  1.00  0.00     0.014 A 
HETATM   23  C   UNL     1      30.583  48.706  42.293  1.00  0.00     0.020 A 
HETATM   24  C   UNL     1      31.434  48.246  41.288  1.00  0.00     0.011 A 
HETATM   25 BR   UNL     1      33.297  48.181  41.594  1.00  0.00    -0.051 Br
HETATM   26  C   UNL     1      30.920  47.838  40.059  1.00  0.00     0.020 A 
HETATM   27  C   UNL     1      29.543  47.888  39.831  1.00  0.00     0.014 A 
ENDBRANCH   7  21
TORSDOF 5
ENDMDL
MODEL 10
REMARK VINA RESULT:      -8.4      8.138     10.103
REMARK  5 active torsions:
REMARK  status: ('A' for Active; 'I' for Inactive)
REMARK    1  A    between atoms: C_3  and  O_4 
REMARK    2  A    between atoms: O_4  and  C_5 
REMARK    3  A    between atoms: C_5  and  C_6 
REMARK       I    between atoms: C_6  and  N_7 
REMARK    4  A    between atoms: N_7  and  C_8 
REMARK    5  A    between atoms: C_14  and  C_15 
ROOT
HETATM    1  C   UNL     1      21.600  47.034  48.591  1.00  0.00     0.137 A 
HETATM    2  N   UNL     1      22.649  46.149  48.556  1.00  0.00    -0.262 N 
HETATM    3  H   UNL     1      23.561  46.278  48.991  1.00  0.00     0.191 HD
HETATM    4  N   UNL     1      22.395  45.027  47.863  1.00  0.00    -0.177 NA
HETATM    5  C   UNL     1      21.131  45.186  47.447  1.00  0.00     0.065 A 
HETATM    6  C   UNL     1      20.476  44.117  46.653  1.00  0.00     0.073 C 
HETATM    7  C   UNL     1      20.586  46.432  47.871  1.00  0.00     0.046 A 
ENDROOT
BRANCH   1   8
HETATM    8  N   UNL     1      21.650  48.257  49.239  1.00  0.00    -0.309 N 
HETATM    9  C   UNL     1      22.273  49.362  48.668  1.00  0.00     0.247 C 
HETATM   10  O   UNL     1      22.769  49.356  47.542  1.00  0.00    -0.271 OA
HETATM   11  H   UNL     1      21.234  48.317  50.161  1.00  0.00     0.170 HD
BRANCH   9  12
HETATM   12  C   UNL     1      22.281  50.585  49.588  1.00  0.00     0.278 C 
BRANCH  12  13
HETATM   13  O   UNL     1      21.068  50.630  50.326  1.00  0.00    -0.342 OA
BRANCH  13  14
HETATM   14  C   UNL     1      19.940  51.029  49.664  1.00  0.00     0.075 A 
HETATM   15  C   UNL     1      18.762  50.335  49.997  1.00  0.00    -0.029 A 
HETATM   16  C   UNL     1      18.783  49.232  51.020  1.00  0.00     0.051 C 
HETATM   17  C   UNL     1      17.554  50.690  49.380  1.00  0.00     0.009 A 
HETATM   18  C   UNL     1      17.515  51.719  48.440  1.00  0.00     0.001 A 
HETATM   19  C   UNL     1      18.681  52.407  48.117  1.00  0.00     0.003 A 
HETATM   20  C   UNL     1      19.890  52.067  48.729  1.00  0.00     0.037 A 
ENDBRANCH  13  14
ENDBRANCH  12  13
ENDBRANCH   9  12
ENDBRANCH   1   8
BRANCH   7  21
HETATM   21  C   UNL     1      19.276  47.005  47.638  1.00  0.00    -0.020 A 
HETATM   22  C   UNL     1      18.164  46.563  48.367  1.00  0.00     0.014 A 
HETATM   23  C   UNL     1      16.901  47.111  48.127  1.00  0.00     0.020 A 
HETATM   24  C   UNL     1      16.749  48.096  47.152  1.00  0.00     0.011 A 
HETATM   25 BR   UNL     1      15.040  48.832  46.821  1.00  0.00    -0.051 Br
HETATM   26  C   UNL     1      17.847  48.539  46.416  1.00  0.00     0.020 A 
HETATM   27  C   UNL     1      19.110  47.993  46.659  1.00  0.00     0.014 A 
ENDBRANCH   7  21
TORSDOF 5
ENDMDL
