MODEL 1
REMARK VINA RESULT:      -9.5      0.000      0.000
REMARK  8 active torsions:
REMARK  status: ('A' for Active; 'I' for Inactive)
REMARK    1  A    between atoms: O_2  and  C_3 
REMARK    2  A    between atoms: C_6  and  C_7 
REMARK    3  A    between atoms: C_11  and  S_12 
REMARK    4  A    between atoms: S_12  and  C_13 
REMARK    5  A    between atoms: C_13  and  C_14 
REMARK       I    between atoms: C_14  and  N_15 
REMARK    6  A    between atoms: N_15  and  C_16 
REMARK    7  A    between atoms: C_16  and  C_17 
REMARK       I    between atoms: C_17  and  N_18 
REMARK    8  A    between atoms: N_18  and  C_19 
ROOT
HETATM    1  C   UNL     1      25.657  46.298  50.131  1.00  0.00     0.185 C 
ENDROOT
BRANCH   1   2
HETATM    2  S   UNL     1      26.437  47.912  49.801  1.00  0.00    -0.081 SA
BRANCH   2   3
HETATM    3  C   UNL     1      25.104  48.756  49.119  1.00  0.00     0.185 A 
HETATM    4  N   UNL     1      25.235  49.508  47.998  1.00  0.00    -0.253 N 
HETATM    5  N   UNL     1      24.073  50.100  47.677  1.00  0.00    -0.152 NA
HETATM    6  H   UNL     1      26.057  49.663  47.428  1.00  0.00     0.191 HD
HETATM    7  C   UNL     1      23.257  49.661  48.653  1.00  0.00     0.182 A 
HETATM    8  N   UNL     1      23.875  48.817  49.557  1.00  0.00    -0.201 NA
BRANCH   7   9
HETATM    9  C   UNL     1      21.851  50.035  48.776  1.00  0.00     0.014 A 
HETATM   10  C   UNL     1      21.415  51.326  48.452  1.00  0.00     0.018 A 
HETATM   11  C   UNL     1      20.065  51.670  48.576  1.00  0.00     0.037 A 
HETATM   12  C   UNL     1      19.128  50.735  49.017  1.00  0.00     0.068 A 
HETATM   13  C   UNL     1      19.554  49.449  49.348  1.00  0.00     0.037 A 
HETATM   14  C   UNL     1      20.907  49.103  49.227  1.00  0.00     0.018 A 
BRANCH  12  15
HETATM   15  O   UNL     1      17.844  51.200  49.087  1.00  0.00    -0.356 OA
HETATM   16  C   UNL     1      17.643  52.428  49.777  1.00  0.00     0.210 C 
ENDBRANCH  12  15
ENDBRANCH   7   9
ENDBRANCH   2   3
ENDBRANCH   1   2
BRANCH   1  17
HETATM   17  C   UNL     1      26.652  45.211  50.515  1.00  0.00     0.227 C 
HETATM   18  N   UNL     1      26.489  44.594  51.728  1.00  0.00    -0.352 N 
HETATM   19  H   UNL     1      25.721  44.889  52.321  1.00  0.00     0.162 HD
HETATM   20  O   UNL     1      27.610  44.930  49.791  1.00  0.00    -0.273 OA
BRANCH  18  21
HETATM   21  C   UNL     1      27.290  43.457  52.150  1.00  0.00     0.225 C 
BRANCH  21  22
HETATM   22  C   UNL     1      27.694  43.513  53.628  1.00  0.00     0.239 C 
HETATM   23  N   UNL     1      28.961  44.040  53.818  1.00  0.00    -0.326 N 
HETATM   24  H   UNL     1      29.433  44.362  52.970  1.00  0.00     0.169 HD
HETATM   25  O   UNL     1      26.947  43.071  54.497  1.00  0.00    -0.271 OA
BRANCH  23  26
HETATM   26  C   UNL     1      29.667  44.186  55.025  1.00  0.00     0.035 A 
HETATM   27  C   UNL     1      30.625  43.277  55.485  1.00  0.00     0.032 A 
HETATM   28  C   UNL     1      31.289  43.504  56.695  1.00  0.00     0.044 A 
HETATM   29  C   UNL     1      30.995  44.638  57.441  1.00  0.00     0.116 A 
HETATM   30  F   UNL     1      31.634  44.854  58.598  1.00  0.00    -0.206 F 
HETATM   31  C   UNL     1      30.047  45.552  57.001  1.00  0.00     0.044 A 
HETATM   32  C   UNL     1      29.383  45.325  55.792  1.00  0.00     0.032 A 
ENDBRANCH  23  26
ENDBRANCH  21  22
ENDBRANCH  18  21
ENDBRANCH   1  17
TORSDOF 8
ENDMDL
MODEL 2
REMARK VINA RESULT:      -9.3      1.478      1.770
REMARK  8 active torsions:
REMARK  status: ('A' for Active; 'I' for Inactive)
REMARK    1  A    between atoms: O_2  and  C_3 
REMARK    2  A    between atoms: C_6  and  C_7 
REMARK    3  A    between atoms: C_11  and  S_12 
REMARK    4  A    between atoms: S_12  and  C_13 
REMARK    5  A    between atoms: C_13  and  C_14 
REMARK       I    between atoms: C_14  and  N_15 
REMARK    6  A    between atoms: N_15  and  C_16 
REMARK    7  A    between atoms: C_16  and  C_17 
REMARK       I    between atoms: C_17  and  N_18 
REMARK    8  A    between atoms: N_18  and  C_19 
ROOT
HETATM    1  C   UNL     1      25.818  46.521  50.009  1.00  0.00     0.185 C 
ENDROOT
BRANCH   1   2
HETATM    2  S   UNL     1      26.509  48.176  49.688  1.00  0.00    -0.081 SA
BRANCH   2   3
HETATM    3  C   UNL     1      25.124  48.960  49.038  1.00  0.00     0.185 A 
HETATM    4  N   UNL     1      25.196  49.720  47.918  1.00  0.00    -0.253 N 
HETATM    5  N   UNL     1      24.002  50.259  47.624  1.00  0.00    -0.152 NA
HETATM    6  H   UNL     1      25.998  49.914  47.331  1.00  0.00     0.191 HD
HETATM    7  C   UNL     1      23.228  49.781  48.615  1.00  0.00     0.182 A 
HETATM    8  N   UNL     1      23.903  48.963  49.503  1.00  0.00    -0.201 NA
BRANCH   7   9
HETATM    9  C   UNL     1      21.809  50.089  48.770  1.00  0.00     0.014 A 
HETATM   10  C   UNL     1      21.314  51.370  48.497  1.00  0.00     0.018 A 
HETATM   11  C   UNL     1      19.953  51.652  48.651  1.00  0.00     0.037 A 
HETATM   12  C   UNL     1      19.062  50.662  49.072  1.00  0.00     0.068 A 
HETATM   13  C   UNL     1      19.548  49.385  49.353  1.00  0.00     0.037 A 
HETATM   14  C   UNL     1      20.913  49.102  49.201  1.00  0.00     0.018 A 
BRANCH  12  15
HETATM   15  O   UNL     1      17.761  51.068  49.175  1.00  0.00    -0.356 OA
HETATM   16  C   UNL     1      16.838  50.503  48.252  1.00  0.00     0.210 C 
ENDBRANCH  12  15
ENDBRANCH   7   9
ENDBRANCH   2   3
ENDBRANCH   1   2
BRANCH   1  17
HETATM   17  C   UNL     1      25.531  46.258  51.482  1.00  0.00     0.227 C 
HETATM   18  N   UNL     1      26.308  46.904  52.409  1.00  0.00    -0.352 N 
HETATM   19  H   UNL     1      27.042  47.521  52.080  1.00  0.00     0.162 HD
HETATM   20  O   UNL     1      24.672  45.448  51.836  1.00  0.00    -0.273 OA
BRANCH  18  21
HETATM   21  C   UNL     1      26.050  46.838  53.838  1.00  0.00     0.225 C 
BRANCH  21  22
HETATM   22  C   UNL     1      26.851  45.741  54.549  1.00  0.00     0.239 C 
HETATM   23  N   UNL     1      28.138  46.139  54.871  1.00  0.00    -0.326 N 
HETATM   24  H   UNL     1      28.367  47.109  54.641  1.00  0.00     0.169 HD
HETATM   25  O   UNL     1      26.360  44.630  54.735  1.00  0.00    -0.271 OA
BRANCH  23  26
HETATM   26  C   UNL     1      29.156  45.380  55.472  1.00  0.00     0.035 A 
HETATM   27  C   UNL     1      29.758  45.705  56.692  1.00  0.00     0.032 A 
HETATM   28  C   UNL     1      30.760  44.888  57.226  1.00  0.00     0.044 A 
HETATM   29  C   UNL     1      31.159  43.749  56.539  1.00  0.00     0.116 A 
HETATM   30  F   UNL     1      32.117  42.968  57.053  1.00  0.00    -0.206 F 
HETATM   31  C   UNL     1      30.574  43.409  55.326  1.00  0.00     0.044 A 
HETATM   32  C   UNL     1      29.573  44.225  54.793  1.00  0.00     0.032 A 
ENDBRANCH  23  26
ENDBRANCH  21  22
ENDBRANCH  18  21
ENDBRANCH   1  17
TORSDOF 8
ENDMDL
MODEL 3
REMARK VINA RESULT:      -9.2      4.549      9.944
REMARK  8 active torsions:
REMARK  status: ('A' for Active; 'I' for Inactive)
REMARK    1  A    between atoms: O_2  and  C_3 
REMARK    2  A    between atoms: C_6  and  C_7 
REMARK    3  A    between atoms: C_11  and  S_12 
REMARK    4  A    between atoms: S_12  and  C_13 
REMARK    5  A    between atoms: C_13  and  C_14 
REMARK       I    between atoms: C_14  and  N_15 
REMARK    6  A    between atoms: N_15  and  C_16 
REMARK    7  A    between atoms: C_16  and  C_17 
REMARK       I    between atoms: C_17  and  N_18 
REMARK    8  A    between atoms: N_18  and  C_19 
ROOT
HETATM    1  C   UNL     1      25.481  41.679  50.363  1.00  0.00     0.185 C 
ENDROOT
BRANCH   1   2
HETATM    2  S   UNL     1      27.094  42.194  49.690  1.00  0.00    -0.081 SA
BRANCH   2   3
HETATM    3  C   UNL     1      28.015  42.269  51.141  1.00  0.00     0.185 A 
HETATM    4  N   UNL     1      28.675  41.187  51.622  1.00  0.00    -0.253 N 
HETATM    5  N   UNL     1      29.289  41.474  52.781  1.00  0.00    -0.152 NA
HETATM    6  H   UNL     1      28.739  40.255  51.232  1.00  0.00     0.191 HD
HETATM    7  C   UNL     1      28.965  42.768  52.956  1.00  0.00     0.182 A 
HETATM    8  N   UNL     1      28.179  43.287  51.943  1.00  0.00    -0.201 NA
BRANCH   7   9
HETATM    9  C   UNL     1      29.381  43.570  54.103  1.00  0.00     0.014 A 
HETATM   10  C   UNL     1      28.675  44.723  54.473  1.00  0.00     0.018 A 
HETATM   11  C   UNL     1      29.086  45.482  55.574  1.00  0.00     0.037 A 
HETATM   12  C   UNL     1      30.200  45.104  56.326  1.00  0.00     0.068 A 
HETATM   13  C   UNL     1      30.912  43.962  55.961  1.00  0.00     0.037 A 
HETATM   14  C   UNL     1      30.503  43.201  54.856  1.00  0.00     0.018 A 
BRANCH  12  15
HETATM   15  O   UNL     1      30.488  45.930  57.377  1.00  0.00    -0.356 OA
HETATM   16  C   UNL     1      31.061  45.323  58.529  1.00  0.00     0.210 C 
ENDBRANCH  12  15
ENDBRANCH   7   9
ENDBRANCH   2   3
ENDBRANCH   1   2
BRANCH   1  17
HETATM   17  C   UNL     1      24.715  42.811  51.034  1.00  0.00     0.227 C 
HETATM   18  N   UNL     1      25.289  43.414  52.124  1.00  0.00    -0.352 N 
HETATM   19  H   UNL     1      26.192  43.079  52.442  1.00  0.00     0.162 HD
HETATM   20  O   UNL     1      23.589  43.141  50.654  1.00  0.00    -0.273 OA
BRANCH  18  21
HETATM   21  C   UNL     1      24.720  44.585  52.769  1.00  0.00     0.225 C 
BRANCH  21  22
HETATM   22  C   UNL     1      25.291  45.907  52.241  1.00  0.00     0.239 C 
HETATM   23  N   UNL     1      24.863  46.201  50.957  1.00  0.00    -0.326 N 
HETATM   24  H   UNL     1      24.197  45.537  50.554  1.00  0.00     0.169 HD
HETATM   25  O   UNL     1      26.081  46.560  52.917  1.00  0.00    -0.271 OA
BRANCH  23  26
HETATM   26  C   UNL     1      25.228  47.293  50.150  1.00  0.00     0.035 A 
HETATM   27  C   UNL     1      26.548  47.615  49.820  1.00  0.00     0.032 A 
HETATM   28  C   UNL     1      26.824  48.715  49.002  1.00  0.00     0.044 A 
HETATM   29  C   UNL     1      25.780  49.490  48.516  1.00  0.00     0.116 A 
HETATM   30  F   UNL     1      26.047  50.543  47.731  1.00  0.00    -0.206 F 
HETATM   31  C   UNL     1      24.462  49.188  48.832  1.00  0.00     0.044 A 
HETATM   32  C   UNL     1      24.187  48.088  49.649  1.00  0.00     0.032 A 
ENDBRANCH  23  26
ENDBRANCH  21  22
ENDBRANCH  18  21
ENDBRANCH   1  17
TORSDOF 8
ENDMDL
MODEL 4
REMARK VINA RESULT:      -9.1      4.186     11.460
REMARK  8 active torsions:
REMARK  status: ('A' for Active; 'I' for Inactive)
REMARK    1  A    between atoms: O_2  and  C_3 
REMARK    2  A    between atoms: C_6  and  C_7 
REMARK    3  A    between atoms: C_11  and  S_12 
REMARK    4  A    between atoms: S_12  and  C_13 
REMARK    5  A    between atoms: C_13  and  C_14 
REMARK       I    between atoms: C_14  and  N_15 
REMARK    6  A    between atoms: N_15  and  C_16 
REMARK    7  A    between atoms: C_16  and  C_17 
REMARK       I    between atoms: C_17  and  N_18 
REMARK    8  A    between atoms: N_18  and  C_19 
ROOT
HETATM    1  C   UNL     1      24.656  45.529  50.978  1.00  0.00     0.185 C 
ENDROOT
BRANCH   1   2
HETATM    2  S   UNL     1      25.538  44.284  49.983  1.00  0.00    -0.081 SA
BRANCH   2   3
HETATM    3  C   UNL     1      26.730  43.783  51.116  1.00  0.00     0.185 A 
HETATM    4  N   UNL     1      27.275  42.542  51.075  1.00  0.00    -0.253 N 
HETATM    5  N   UNL     1      28.150  42.367  52.078  1.00  0.00    -0.152 NA
HETATM    6  H   UNL     1      27.096  41.790  50.422  1.00  0.00     0.191 HD
HETATM    7  C   UNL     1      28.098  43.558  52.704  1.00  0.00     0.182 A 
HETATM    8  N   UNL     1      27.227  44.457  52.118  1.00  0.00    -0.201 NA
BRANCH   7   9
HETATM    9  C   UNL     1      28.870  43.890  53.898  1.00  0.00     0.014 A 
HETATM   10  C   UNL     1      29.951  43.098  54.305  1.00  0.00     0.018 A 
HETATM   11  C   UNL     1      30.680  43.428  55.452  1.00  0.00     0.037 A 
HETATM   12  C   UNL     1      30.350  44.553  56.209  1.00  0.00     0.068 A 
HETATM   13  C   UNL     1      29.270  45.344  55.815  1.00  0.00     0.037 A 
HETATM   14  C   UNL     1      28.537  45.014  54.667  1.00  0.00     0.018 A 
BRANCH  12  15
HETATM   15  O   UNL     1      31.146  44.764  57.300  1.00  0.00    -0.356 OA
HETATM   16  C   UNL     1      30.696  45.728  58.244  1.00  0.00     0.210 C 
ENDBRANCH  12  15
ENDBRANCH   7   9
ENDBRANCH   2   3
ENDBRANCH   1   2
BRANCH   1  17
HETATM   17  C   UNL     1      25.159  46.950  50.757  1.00  0.00     0.227 C 
HETATM   18  N   UNL     1      25.071  47.469  49.491  1.00  0.00    -0.352 N 
HETATM   19  H   UNL     1      24.682  46.889  48.756  1.00  0.00     0.162 HD
HETATM   20  O   UNL     1      25.686  47.595  51.666  1.00  0.00    -0.273 OA
BRANCH  18  21
HETATM   21  C   UNL     1      25.395  48.852  49.181  1.00  0.00     0.225 C 
BRANCH  21  22
HETATM   22  C   UNL     1      24.287  49.579  48.411  1.00  0.00     0.239 C 
HETATM   23  N   UNL     1      23.052  49.481  49.030  1.00  0.00    -0.326 N 
HETATM   24  H   UNL     1      23.048  48.989  49.927  1.00  0.00     0.169 HD
HETATM   25  O   UNL     1      24.527  50.125  47.337  1.00  0.00    -0.271 OA
BRANCH  23  26
HETATM   26  C   UNL     1      21.815  49.975  48.580  1.00  0.00     0.035 A 
HETATM   27  C   UNL     1      21.322  51.247  48.888  1.00  0.00     0.032 A 
HETATM   28  C   UNL     1      20.083  51.665  48.391  1.00  0.00     0.044 A 
HETATM   29  C   UNL     1      19.340  50.810  47.588  1.00  0.00     0.116 A 
HETATM   30  F   UNL     1      18.155  51.212  47.111  1.00  0.00    -0.206 F 
HETATM   31  C   UNL     1      19.811  49.542  47.272  1.00  0.00     0.044 A 
HETATM   32  C   UNL     1      21.049  49.126  47.768  1.00  0.00     0.032 A 
ENDBRANCH  23  26
ENDBRANCH  21  22
ENDBRANCH  18  21
ENDBRANCH   1  17
TORSDOF 8
ENDMDL
MODEL 5
REMARK VINA RESULT:      -9.0      5.027      6.013
REMARK  8 active torsions:
REMARK  status: ('A' for Active; 'I' for Inactive)
REMARK    1  A    between atoms: O_2  and  C_3 
REMARK    2  A    between atoms: C_6  and  C_7 
REMARK    3  A    between atoms: C_11  and  S_12 
REMARK    4  A    between atoms: S_12  and  C_13 
REMARK    5  A    between atoms: C_13  and  C_14 
REMARK       I    between atoms: C_14  and  N_15 
REMARK    6  A    between atoms: N_15  and  C_16 
REMARK    7  A    between atoms: C_16  and  C_17 
REMARK       I    between atoms: C_17  and  N_18 
REMARK    8  A    between atoms: N_18  and  C_19 
ROOT
HETATM    1  C   UNL     1      26.220  39.798  50.035  1.00  0.00     0.185 C 
ENDROOT
BRANCH   1   2
HETATM    2  S   UNL     1      25.455  40.870  48.775  1.00  0.00    -0.081 SA
BRANCH   2   3
HETATM    3  C   UNL     1      24.897  42.155  49.773  1.00  0.00     0.185 A 
HETATM    4  N   UNL     1      23.576  42.429  49.908  1.00  0.00    -0.253 N 
HETATM    5  N   UNL     1      23.384  43.494  50.703  1.00  0.00    -0.152 NA
HETATM    6  H   UNL     1      22.782  41.954  49.496  1.00  0.00     0.191 HD
HETATM    7  C   UNL     1      24.645  43.829  51.030  1.00  0.00     0.182 A 
HETATM    8  N   UNL     1      25.603  43.005  50.470  1.00  0.00    -0.201 NA
BRANCH   7   9
HETATM    9  C   UNL     1      24.998  44.959  51.885  1.00  0.00     0.014 A 
HETATM   10  C   UNL     1      25.296  44.774  53.241  1.00  0.00     0.018 A 
HETATM   11  C   UNL     1      25.630  45.866  54.048  1.00  0.00     0.037 A 
HETATM   12  C   UNL     1      25.681  47.156  53.519  1.00  0.00     0.068 A 
HETATM   13  C   UNL     1      25.379  47.351  52.171  1.00  0.00     0.037 A 
HETATM   14  C   UNL     1      25.041  46.258  51.361  1.00  0.00     0.018 A 
BRANCH  12  15
HETATM   15  O   UNL     1      26.027  48.130  54.414  1.00  0.00    -0.356 OA
HETATM   16  C   UNL     1      27.135  47.857  55.262  1.00  0.00     0.210 C 
ENDBRANCH  12  15
ENDBRANCH   7   9
ENDBRANCH   2   3
ENDBRANCH   1   2
BRANCH   1  17
HETATM   17  C   UNL     1      27.566  40.309  50.531  1.00  0.00     0.227 C 
HETATM   18  N   UNL     1      27.636  40.780  51.817  1.00  0.00    -0.352 N 
HETATM   19  H   UNL     1      26.794  40.776  52.380  1.00  0.00     0.162 HD
HETATM   20  O   UNL     1      28.549  40.357  49.788  1.00  0.00    -0.273 OA
BRANCH  18  21
HETATM   21  C   UNL     1      28.887  41.172  52.446  1.00  0.00     0.225 C 
BRANCH  21  22
HETATM   22  C   UNL     1      28.697  42.107  53.647  1.00  0.00     0.239 C 
HETATM   23  N   UNL     1      29.868  42.742  54.021  1.00  0.00    -0.326 N 
HETATM   24  H   UNL     1      30.681  42.549  53.431  1.00  0.00     0.169 HD
HETATM   25  O   UNL     1      27.605  42.193  54.203  1.00  0.00    -0.271 OA
BRANCH  23  26
HETATM   26  C   UNL     1      30.072  43.617  55.104  1.00  0.00     0.035 A 
HETATM   27  C   UNL     1      29.390  44.825  55.272  1.00  0.00     0.032 A 
HETATM   28  C   UNL     1      29.647  45.633  56.384  1.00  0.00     0.044 A 
HETATM   29  C   UNL     1      30.586  45.231  57.325  1.00  0.00     0.116 A 
HETATM   30  F   UNL     1      30.829  46.006  58.390  1.00  0.00    -0.206 F 
HETATM   31  C   UNL     1      31.275  44.035  57.175  1.00  0.00     0.044 A 
HETATM   32  C   UNL     1      31.018  43.228  56.064  1.00  0.00     0.032 A 
ENDBRANCH  23  26
ENDBRANCH  21  22
ENDBRANCH  18  21
ENDBRANCH   1  17
TORSDOF 8
ENDMDL
MODEL 6
REMARK VINA RESULT:      -9.0      4.342     11.506
REMARK  8 active torsions:
REMARK  status: ('A' for Active; 'I' for Inactive)
REMARK    1  A    between atoms: O_2  and  C_3 
REMARK    2  A    between atoms: C_6  and  C_7 
REMARK    3  A    between atoms: C_11  and  S_12 
REMARK    4  A    between atoms: S_12  and  C_13 
REMARK    5  A    between atoms: C_13  and  C_14 
REMARK       I    between atoms: C_14  and  N_15 
REMARK    6  A    between atoms: N_15  and  C_16 
REMARK    7  A    between atoms: C_16  and  C_17 
REMARK       I    between atoms: C_17  and  N_18 
REMARK    8  A    between atoms: N_18  and  C_19 
ROOT
HETATM    1  C   UNL     1      24.770  43.940  50.791  1.00  0.00     0.185 C 
ENDROOT
BRANCH   1   2
HETATM    2  S   UNL     1      25.506  42.302  50.482  1.00  0.00    -0.081 SA
BRANCH   2   3
HETATM    3  C   UNL     1      26.672  42.254  51.745  1.00  0.00     0.185 A 
HETATM    4  N   UNL     1      27.162  41.082  52.218  1.00  0.00    -0.253 N 
HETATM    5  N   UNL     1      28.027  41.292  53.224  1.00  0.00    -0.152 NA
HETATM    6  H   UNL     1      26.951  40.137  51.920  1.00  0.00     0.191 HD
HETATM    7  C   UNL     1      28.026  42.634  53.316  1.00  0.00     0.182 A 
HETATM    8  N   UNL     1      27.197  43.255  52.400  1.00  0.00    -0.201 NA
BRANCH   7   9
HETATM    9  C   UNL     1      28.809  43.389  54.290  1.00  0.00     0.014 A 
HETATM   10  C   UNL     1      28.371  44.633  54.763  1.00  0.00     0.018 A 
HETATM   11  C   UNL     1      29.132  45.346  55.695  1.00  0.00     0.037 A 
HETATM   12  C   UNL     1      30.337  44.831  56.175  1.00  0.00     0.068 A 
HETATM   13  C   UNL     1      30.785  43.597  55.705  1.00  0.00     0.037 A 
HETATM   14  C   UNL     1      30.025  42.882  54.769  1.00  0.00     0.018 A 
BRANCH  12  15
HETATM   15  O   UNL     1      30.977  45.625  57.085  1.00  0.00    -0.356 OA
HETATM   16  C   UNL     1      30.230  46.021  58.229  1.00  0.00     0.210 C 
ENDBRANCH  12  15
ENDBRANCH   7   9
ENDBRANCH   2   3
ENDBRANCH   1   2
BRANCH   1  17
HETATM   17  C   UNL     1      23.364  44.090  50.224  1.00  0.00     0.227 C 
HETATM   18  N   UNL     1      23.127  45.139  49.374  1.00  0.00    -0.352 N 
HETATM   19  H   UNL     1      23.889  45.773  49.163  1.00  0.00     0.162 HD
HETATM   20  O   UNL     1      22.450  43.334  50.560  1.00  0.00    -0.273 OA
BRANCH  18  21
HETATM   21  C   UNL     1      21.868  45.314  48.668  1.00  0.00     0.225 C 
BRANCH  21  22
HETATM   22  C   UNL     1      21.670  46.732  48.120  1.00  0.00     0.239 C 
HETATM   23  N   UNL     1      21.156  47.604  49.065  1.00  0.00    -0.326 N 
HETATM   24  H   UNL     1      21.024  47.211  50.000  1.00  0.00     0.169 HD
HETATM   25  O   UNL     1      21.911  46.986  46.943  1.00  0.00    -0.271 OA
BRANCH  23  26
HETATM   26  C   UNL     1      20.800  48.954  48.896  1.00  0.00     0.035 A 
HETATM   27  C   UNL     1      21.723  50.000  48.800  1.00  0.00     0.032 A 
HETATM   28  C   UNL     1      21.284  51.316  48.624  1.00  0.00     0.044 A 
HETATM   29  C   UNL     1      19.923  51.583  48.544  1.00  0.00     0.116 A 
HETATM   30  F   UNL     1      19.505  52.844  48.373  1.00  0.00    -0.206 F 
HETATM   31  C   UNL     1      18.991  50.559  48.638  1.00  0.00     0.044 A 
HETATM   32  C   UNL     1      19.430  49.244  48.814  1.00  0.00     0.032 A 
ENDBRANCH  23  26
ENDBRANCH  21  22
ENDBRANCH  18  21
ENDBRANCH   1  17
TORSDOF 8
ENDMDL
MODEL 7
REMARK VINA RESULT:      -8.8     12.690     15.564
REMARK  8 active torsions:
REMARK  status: ('A' for Active; 'I' for Inactive)
REMARK    1  A    between atoms: O_2  and  C_3 
REMARK    2  A    between atoms: C_6  and  C_7 
REMARK    3  A    between atoms: C_11  and  S_12 
REMARK    4  A    between atoms: S_12  and  C_13 
REMARK    5  A    between atoms: C_13  and  C_14 
REMARK       I    between atoms: C_14  and  N_15 
REMARK    6  A    between atoms: N_15  and  C_16 
REMARK    7  A    between atoms: C_16  and  C_17 
REMARK       I    between atoms: C_17  and  N_18 
REMARK    8  A    between atoms: N_18  and  C_19 
ROOT
HETATM    1  C   UNL     1      37.811  51.924  40.913  1.00  0.00     0.185 C 
ENDROOT
BRANCH   1   2
HETATM    2  S   UNL     1      37.495  51.021  42.463  1.00  0.00    -0.081 SA
BRANCH   2   3
HETATM    3  C   UNL     1      35.775  50.985  42.445  1.00  0.00     0.185 A 
HETATM    4  N   UNL     1      35.037  51.972  43.008  1.00  0.00    -0.253 N 
HETATM    5  N   UNL     1      33.724  51.710  42.905  1.00  0.00    -0.152 NA
HETATM    6  H   UNL     1      35.350  52.817  43.470  1.00  0.00     0.191 HD
HETATM    7  C   UNL     1      33.725  50.531  42.256  1.00  0.00     0.182 A 
HETATM    8  N   UNL     1      34.991  50.064  41.951  1.00  0.00    -0.201 NA
BRANCH   7   9
HETATM    9  C   UNL     1      32.519  49.788  41.903  1.00  0.00     0.014 A 
HETATM   10  C   UNL     1      31.541  49.497  42.863  1.00  0.00     0.018 A 
HETATM   11  C   UNL     1      30.392  48.783  42.512  1.00  0.00     0.037 A 
HETATM   12  C   UNL     1      30.193  48.353  41.199  1.00  0.00     0.068 A 
HETATM   13  C   UNL     1      31.164  48.632  40.237  1.00  0.00     0.037 A 
HETATM   14  C   UNL     1      32.318  49.345  40.588  1.00  0.00     0.018 A 
BRANCH  12  15
HETATM   15  O   UNL     1      29.026  47.672  40.989  1.00  0.00    -0.356 OA
HETATM   16  C   UNL     1      28.178  48.156  39.955  1.00  0.00     0.210 C 
ENDBRANCH  12  15
ENDBRANCH   7   9
ENDBRANCH   2   3
ENDBRANCH   1   2
BRANCH   1  17
HETATM   17  C   UNL     1      36.755  52.976  40.597  1.00  0.00     0.227 C 
HETATM   18  N   UNL     1      35.849  52.695  39.607  1.00  0.00    -0.352 N 
HETATM   19  H   UNL     1      35.922  51.808  39.122  1.00  0.00     0.162 HD
HETATM   20  O   UNL     1      36.746  54.069  41.167  1.00  0.00    -0.273 OA
BRANCH  18  21
HETATM   21  C   UNL     1      34.720  53.558  39.304  1.00  0.00     0.225 C 
BRANCH  21  22
HETATM   22  C   UNL     1      33.379  52.814  39.266  1.00  0.00     0.239 C 
HETATM   23  N   UNL     1      32.472  53.298  40.193  1.00  0.00    -0.326 N 
HETATM   24  H   UNL     1      32.788  54.103  40.738  1.00  0.00     0.169 HD
HETATM   25  O   UNL     1      33.214  51.864  38.506  1.00  0.00    -0.271 OA
BRANCH  23  26
HETATM   26  C   UNL     1      31.178  52.821  40.471  1.00  0.00     0.035 A 
HETATM   27  C   UNL     1      30.582  52.871  41.735  1.00  0.00     0.032 A 
HETATM   28  C   UNL     1      29.285  52.382  41.924  1.00  0.00     0.044 A 
HETATM   29  C   UNL     1      28.588  51.845  40.849  1.00  0.00     0.116 A 
HETATM   30  F   UNL     1      27.346  51.380  41.032  1.00  0.00    -0.206 F 
HETATM   31  C   UNL     1      29.163  51.786  39.587  1.00  0.00     0.044 A 
HETATM   32  C   UNL     1      30.459  52.275  39.398  1.00  0.00     0.032 A 
ENDBRANCH  23  26
ENDBRANCH  21  22
ENDBRANCH  18  21
ENDBRANCH   1  17
TORSDOF 8
ENDMDL
MODEL 8
REMARK VINA RESULT:      -8.7      4.329     11.568
REMARK  8 active torsions:
REMARK  status: ('A' for Active; 'I' for Inactive)
REMARK    1  A    between atoms: O_2  and  C_3 
REMARK    2  A    between atoms: C_6  and  C_7 
REMARK    3  A    between atoms: C_11  and  S_12 
REMARK    4  A    between atoms: S_12  and  C_13 
REMARK    5  A    between atoms: C_13  and  C_14 
REMARK       I    between atoms: C_14  and  N_15 
REMARK    6  A    between atoms: N_15  and  C_16 
REMARK    7  A    between atoms: C_16  and  C_17 
REMARK       I    between atoms: C_17  and  N_18 
REMARK    8  A    between atoms: N_18  and  C_19 
ROOT
HETATM    1  C   UNL     1      24.488  44.748  49.286  1.00  0.00     0.185 C 
ENDROOT
BRANCH   1   2
HETATM    2  S   UNL     1      25.394  43.188  49.543  1.00  0.00    -0.081 SA
BRANCH   2   3
HETATM    3  C   UNL     1      25.959  43.430  51.149  1.00  0.00     0.185 A 
HETATM    4  N   UNL     1      25.104  43.630  52.182  1.00  0.00    -0.253 N 
HETATM    5  N   UNL     1      25.773  43.833  53.328  1.00  0.00    -0.152 NA
HETATM    6  H   UNL     1      24.092  43.651  52.176  1.00  0.00     0.191 HD
HETATM    7  C   UNL     1      27.053  43.738  52.924  1.00  0.00     0.182 A 
HETATM    8  N   UNL     1      27.193  43.479  51.573  1.00  0.00    -0.201 NA
BRANCH   7   9
HETATM    9  C   UNL     1      28.206  43.901  53.806  1.00  0.00     0.014 A 
HETATM   10  C   UNL     1      29.289  43.014  53.752  1.00  0.00     0.018 A 
HETATM   11  C   UNL     1      30.385  43.181  54.604  1.00  0.00     0.037 A 
HETATM   12  C   UNL     1      30.425  44.235  55.518  1.00  0.00     0.068 A 
HETATM   13  C   UNL     1      29.348  45.119  55.584  1.00  0.00     0.037 A 
HETATM   14  C   UNL     1      28.247  44.952  54.733  1.00  0.00     0.018 A 
BRANCH  12  15
HETATM   15  O   UNL     1      31.555  44.286  56.286  1.00  0.00    -0.356 OA
HETATM   16  C   UNL     1      31.676  43.311  57.315  1.00  0.00     0.210 C 
ENDBRANCH  12  15
ENDBRANCH   7   9
ENDBRANCH   2   3
ENDBRANCH   1   2
BRANCH   1  17
HETATM   17  C   UNL     1      22.988  44.624  49.519  1.00  0.00     0.227 C 
HETATM   18  N   UNL     1      22.169  45.533  48.902  1.00  0.00    -0.352 N 
HETATM   19  H   UNL     1      22.591  46.251  48.323  1.00  0.00     0.162 HD
HETATM   20  O   UNL     1      22.524  43.776  50.285  1.00  0.00    -0.273 OA
BRANCH  18  21
HETATM   21  C   UNL     1      20.718  45.442  48.941  1.00  0.00     0.225 C 
BRANCH  21  22
HETATM   22  C   UNL     1      20.016  46.751  48.561  1.00  0.00     0.239 C 
HETATM   23  N   UNL     1      20.519  47.846  49.243  1.00  0.00    -0.326 N 
HETATM   24  H   UNL     1      21.309  47.653  49.862  1.00  0.00     0.169 HD
HETATM   25  O   UNL     1      19.078  46.749  47.768  1.00  0.00    -0.271 OA
BRANCH  23  26
HETATM   26  C   UNL     1      20.080  49.181  49.185  1.00  0.00     0.035 A 
HETATM   27  C   UNL     1      20.689  50.171  48.409  1.00  0.00     0.032 A 
HETATM   28  C   UNL     1      20.182  51.475  48.401  1.00  0.00     0.044 A 
HETATM   29  C   UNL     1      19.068  51.785  49.169  1.00  0.00     0.116 A 
HETATM   30  F   UNL     1      18.583  53.033  49.159  1.00  0.00    -0.206 F 
HETATM   31  C   UNL     1      18.449  50.816  49.948  1.00  0.00     0.044 A 
HETATM   32  C   UNL     1      18.955  49.513  49.955  1.00  0.00     0.032 A 
ENDBRANCH  23  26
ENDBRANCH  21  22
ENDBRANCH  18  21
ENDBRANCH   1  17
TORSDOF 8
ENDMDL
MODEL 9
REMARK VINA RESULT:      -8.5      4.179      8.394
REMARK  8 active torsions:
REMARK  status: ('A' for Active; 'I' for Inactive)
REMARK    1  A    between atoms: O_2  and  C_3 
REMARK    2  A    between atoms: C_6  and  C_7 
REMARK    3  A    between atoms: C_11  and  S_12 
REMARK    4  A    between atoms: S_12  and  C_13 
REMARK    5  A    between atoms: C_13  and  C_14 
REMARK       I    between atoms: C_14  and  N_15 
REMARK    6  A    between atoms: N_15  and  C_16 
REMARK    7  A    between atoms: C_16  and  C_17 
REMARK       I    between atoms: C_17  and  N_18 
REMARK    8  A    between atoms: N_18  and  C_19 
ROOT
HETATM    1  C   UNL     1      22.325  50.451  49.502  1.00  0.00     0.185 C 
ENDROOT
BRANCH   1   2
HETATM    2  S   UNL     1      23.532  50.546  48.141  1.00  0.00    -0.081 SA
BRANCH   2   3
HETATM    3  C   UNL     1      24.718  49.439  48.712  1.00  0.00     0.185 A 
HETATM    4  N   UNL     1      26.026  49.564  48.381  1.00  0.00    -0.253 N 
HETATM    5  N   UNL     1      26.754  48.567  48.910  1.00  0.00    -0.152 NA
HETATM    6  H   UNL     1      26.475  50.272  47.812  1.00  0.00     0.191 HD
HETATM    7  C   UNL     1      25.819  47.857  49.567  1.00  0.00     0.182 A 
HETATM    8  N   UNL     1      24.545  48.386  49.465  1.00  0.00    -0.201 NA
BRANCH   7   9
HETATM    9  C   UNL     1      26.093  46.634  50.315  1.00  0.00     0.014 A 
HETATM   10  C   UNL     1      26.945  45.648  49.802  1.00  0.00     0.018 A 
HETATM   11  C   UNL     1      27.197  44.480  50.529  1.00  0.00     0.037 A 
HETATM   12  C   UNL     1      26.613  44.278  51.780  1.00  0.00     0.068 A 
HETATM   13  C   UNL     1      25.758  45.252  52.297  1.00  0.00     0.037 A 
HETATM   14  C   UNL     1      25.502  46.422  51.568  1.00  0.00     0.018 A 
BRANCH  12  15
HETATM   15  O   UNL     1      26.948  43.099  52.386  1.00  0.00    -0.356 OA
HETATM   16  C   UNL     1      27.664  42.155  51.600  1.00  0.00     0.210 C 
ENDBRANCH  12  15
ENDBRANCH   7   9
ENDBRANCH   2   3
ENDBRANCH   1   2
BRANCH   1  17
HETATM   17  C   UNL     1      21.139  49.544  49.199  1.00  0.00     0.227 C 
HETATM   18  N   UNL     1      21.391  48.214  48.980  1.00  0.00    -0.352 N 
HETATM   19  H   UNL     1      22.351  47.890  49.022  1.00  0.00     0.162 HD
HETATM   20  O   UNL     1      19.996  49.994  49.092  1.00  0.00    -0.273 OA
BRANCH  18  21
HETATM   21  C   UNL     1      20.336  47.229  48.811  1.00  0.00     0.225 C 
BRANCH  21  22
HETATM   22  C   UNL     1      20.850  45.784  48.799  1.00  0.00     0.239 C 
HETATM   23  N   UNL     1      22.189  45.689  49.136  1.00  0.00    -0.326 N 
HETATM   24  H   UNL     1      22.641  46.570  49.393  1.00  0.00     0.169 HD
HETATM   25  O   UNL     1      20.111  44.862  48.463  1.00  0.00    -0.271 OA
BRANCH  23  26
HETATM   26  C   UNL     1      22.995  44.537  49.172  1.00  0.00     0.035 A 
HETATM   27  C   UNL     1      23.822  44.129  48.121  1.00  0.00     0.032 A 
HETATM   28  C   UNL     1      24.599  42.972  48.242  1.00  0.00     0.044 A 
HETATM   29  C   UNL     1      24.548  42.227  49.413  1.00  0.00     0.116 A 
HETATM   30  F   UNL     1      25.295  41.121  49.527  1.00  0.00    -0.206 F 
HETATM   31  C   UNL     1      23.732  42.615  50.467  1.00  0.00     0.044 A 
HETATM   32  C   UNL     1      22.955  43.771  50.346  1.00  0.00     0.032 A 
ENDBRANCH  23  26
ENDBRANCH  21  22
ENDBRANCH  18  21
ENDBRANCH   1  17
TORSDOF 8
ENDMDL
MODEL 10
REMARK VINA RESULT:      -8.5     12.376     14.004
REMARK  8 active torsions:
REMARK  status: ('A' for Active; 'I' for Inactive)
REMARK    1  A    between atoms: O_2  and  C_3 
REMARK    2  A    between atoms: C_6  and  C_7 
REMARK    3  A    between atoms: C_11  and  S_12 
REMARK    4  A    between atoms: S_12  and  C_13 
REMARK    5  A    between atoms: C_13  and  C_14 
REMARK       I    between atoms: C_14  and  N_15 
REMARK    6  A    between atoms: N_15  and  C_16 
REMARK    7  A    between atoms: C_16  and  C_17 
REMARK       I    between atoms: C_17  and  N_18 
REMARK    8  A    between atoms: N_18  and  C_19 
ROOT
HETATM    1  C   UNL     1      25.648  47.453  38.899  1.00  0.00     0.185 C 
ENDROOT
BRANCH   1   2
HETATM    2  S   UNL     1      25.136  49.015  39.685  1.00  0.00    -0.081 SA
BRANCH   2   3
HETATM    3  C   UNL     1      26.441  50.031  39.212  1.00  0.00     0.185 A 
HETATM    4  N   UNL     1      26.456  50.655  38.008  1.00  0.00    -0.253 N 
HETATM    5  N   UNL     1      27.588  51.359  37.846  1.00  0.00    -0.152 NA
HETATM    6  H   UNL     1      25.760  50.637  37.273  1.00  0.00     0.191 HD
HETATM    7  C   UNL     1      28.230  51.126  39.005  1.00  0.00     0.182 A 
HETATM    8  N   UNL     1      27.532  50.308  39.874  1.00  0.00    -0.201 NA
BRANCH   7   9
HETATM    9  C   UNL     1      29.547  51.663  39.335  1.00  0.00     0.014 A 
HETATM   10  C   UNL     1      30.704  51.172  38.717  1.00  0.00     0.018 A 
HETATM   11  C   UNL     1      31.959  51.695  39.044  1.00  0.00     0.037 A 
HETATM   12  C   UNL     1      32.083  52.718  39.985  1.00  0.00     0.068 A 
HETATM   13  C   UNL     1      30.937  53.209  40.611  1.00  0.00     0.037 A 
HETATM   14  C   UNL     1      29.678  52.684  40.286  1.00  0.00     0.018 A 
BRANCH  12  15
HETATM   15  O   UNL     1      33.364  53.142  40.207  1.00  0.00    -0.356 OA
HETATM   16  C   UNL     1      34.391  52.488  39.473  1.00  0.00     0.210 C 
ENDBRANCH  12  15
ENDBRANCH   7   9
ENDBRANCH   2   3
ENDBRANCH   1   2
BRANCH   1  17
HETATM   17  C   UNL     1      26.960  46.901  39.442  1.00  0.00     0.227 C 
HETATM   18  N   UNL     1      27.905  46.493  38.537  1.00  0.00    -0.352 N 
HETATM   19  H   UNL     1      27.692  46.567  37.549  1.00  0.00     0.162 HD
HETATM   20  O   UNL     1      27.149  46.767  40.654  1.00  0.00    -0.273 OA
BRANCH  18  21
HETATM   21  C   UNL     1      29.240  46.072  38.927  1.00  0.00     0.225 C 
BRANCH  21  22
HETATM   22  C   UNL     1      30.174  47.242  39.258  1.00  0.00     0.239 C 
HETATM   23  N   UNL     1      30.365  47.407  40.619  1.00  0.00    -0.326 N 
HETATM   24  H   UNL     1      29.908  46.711  41.214  1.00  0.00     0.169 HD
HETATM   25  O   UNL     1      30.627  47.951  38.363  1.00  0.00    -0.271 OA
BRANCH  23  26
HETATM   26  C   UNL     1      31.107  48.404  41.277  1.00  0.00     0.035 A 
HETATM   27  C   UNL     1      30.549  49.356  42.134  1.00  0.00     0.032 A 
HETATM   28  C   UNL     1      31.362  50.310  42.756  1.00  0.00     0.044 A 
HETATM   29  C   UNL     1      32.730  50.308  42.520  1.00  0.00     0.116 A 
HETATM   30  F   UNL     1      33.507  51.220  43.118  1.00  0.00    -0.206 F 
HETATM   31  C   UNL     1      33.303  49.371  41.670  1.00  0.00     0.044 A 
HETATM   32  C   UNL     1      32.491  48.419  41.049  1.00  0.00     0.032 A 
ENDBRANCH  23  26
ENDBRANCH  21  22
ENDBRANCH  18  21
ENDBRANCH   1  17
TORSDOF 8
ENDMDL
