MODEL 1
REMARK VINA RESULT:     -10.6      0.000      0.000
REMARK  6 active torsions:
REMARK  status: ('A' for Active; 'I' for Inactive)
REMARK    1  A    between atoms: C_4  and  C_5 
REMARK    2  A    between atoms: N_7  and  C_8 
REMARK    3  A    between atoms: C_8  and  C_9 
REMARK    4  A    between atoms: C_9  and  C_10 
REMARK       I    between atoms: C_10  and  N_11 
REMARK    5  A    between atoms: N_11  and  N_12 
REMARK    6  A    between atoms: C_24  and  C_25 
ROOT
HETATM    1  C   UNL     1      26.000  44.954  51.974  1.00  0.00     0.161 C 
ENDROOT
BRANCH   1   2
HETATM    2  N   UNL     1      27.158  44.254  52.508  1.00  0.00    -0.268 N 
HETATM    3  N   UNL     1      27.755  44.763  53.599  1.00  0.00    -0.172 NA
HETATM    4  C   UNL     1      28.719  43.886  53.919  1.00  0.00     0.089 A 
HETATM    5  C   UNL     1      28.703  42.801  53.006  1.00  0.00     0.066 A 
HETATM    6  C   UNL     1      27.685  43.051  52.105  1.00  0.00     0.065 A 
BRANCH   4   7
HETATM    7  C   UNL     1      29.593  44.090  55.083  1.00  0.00    -0.006 A 
HETATM    8  C   UNL     1      29.498  45.263  55.846  1.00  0.00     0.014 A 
HETATM    9  C   UNL     1      30.325  45.469  56.955  1.00  0.00     0.001 A 
HETATM   10  C   UNL     1      31.258  44.501  57.317  1.00  0.00     0.000 A 
HETATM   11  C   UNL     1      31.364  43.328  56.573  1.00  0.00     0.001 A 
HETATM   12  C   UNL     1      30.537  43.124  55.463  1.00  0.00     0.014 A 
ENDBRANCH   4   7
BRANCH   6  13
HETATM   13  C   UNL     1      27.185  42.207  51.024  1.00  0.00    -0.008 A 
HETATM   14  C   UNL     1      27.176  42.649  49.696  1.00  0.00     0.014 A 
HETATM   15  C   UNL     1      26.682  41.825  48.681  1.00  0.00     0.001 A 
HETATM   16  C   UNL     1      26.208  40.550  48.983  1.00  0.00     0.000 A 
HETATM   17  C   UNL     1      26.231  40.094  50.298  1.00  0.00     0.001 A 
HETATM   18  C   UNL     1      26.719  40.918  51.314  1.00  0.00     0.014 A 
ENDBRANCH   6  13
ENDBRANCH   1   2
BRANCH   1  19
HETATM   19  C   UNL     1      26.369  45.964  50.903  1.00  0.00     0.126 C 
BRANCH  19  20
HETATM   20  C   UNL     1      25.418  47.138  50.904  1.00  0.00     0.239 C 
HETATM   21  N   UNL     1      25.097  47.600  49.641  1.00  0.00    -0.246 N 
HETATM   22  H   UNL     1      25.366  47.075  48.804  1.00  0.00     0.192 HD
HETATM   23  O   UNL     1      25.012  47.614  51.963  1.00  0.00    -0.272 OA
BRANCH  21  24
HETATM   24  N   UNL     1      24.272  48.677  49.502  1.00  0.00    -0.166 NA
HETATM   25  C   UNL     1      23.094  48.449  49.017  1.00  0.00     0.157 A 
HETATM   26  C   UNL     1      22.496  47.127  48.522  1.00  0.00     0.277 A 
HETATM   27  C   UNL     1      22.059  49.454  48.810  1.00  0.00     0.027 A 
HETATM   28  O   UNL     1      23.085  46.067  48.468  1.00  0.00    -0.266 OA
HETATM   29  N   UNL     1      21.213  47.429  48.120  1.00  0.00    -0.321 N 
HETATM   30  C   UNL     1      20.958  48.790  48.274  1.00  0.00     0.048 A 
HETATM   31  H   UNL     1      20.577  46.745  47.740  1.00  0.00     0.169 HD
HETATM   32  C   UNL     1      19.805  49.470  47.946  1.00  0.00     0.030 A 
HETATM   33  C   UNL     1      19.788  50.853  48.171  1.00  0.00     0.002 A 
HETATM   34  C   UNL     1      20.907  51.518  48.714  1.00  0.00     0.001 A 
HETATM   35  C   UNL     1      22.068  50.813  49.043  1.00  0.00     0.016 A 
ENDBRANCH  21  24
ENDBRANCH  19  20
ENDBRANCH   1  19
TORSDOF 6
ENDMDL
MODEL 2
REMARK VINA RESULT:     -10.6      0.036      1.187
REMARK  6 active torsions:
REMARK  status: ('A' for Active; 'I' for Inactive)
REMARK    1  A    between atoms: C_4  and  C_5 
REMARK    2  A    between atoms: N_7  and  C_8 
REMARK    3  A    between atoms: C_8  and  C_9 
REMARK    4  A    between atoms: C_9  and  C_10 
REMARK       I    between atoms: C_10  and  N_11 
REMARK    5  A    between atoms: N_11  and  N_12 
REMARK    6  A    between atoms: C_24  and  C_25 
ROOT
HETATM    1  C   UNL     1      26.011  44.949  51.992  1.00  0.00     0.161 C 
ENDROOT
BRANCH   1   2
HETATM    2  N   UNL     1      27.166  44.248  52.529  1.00  0.00    -0.268 N 
HETATM    3  N   UNL     1      27.765  44.760  53.618  1.00  0.00    -0.172 NA
HETATM    4  C   UNL     1      28.725  43.880  53.942  1.00  0.00     0.089 A 
HETATM    5  C   UNL     1      28.706  42.791  53.034  1.00  0.00     0.066 A 
HETATM    6  C   UNL     1      27.689  43.041  52.131  1.00  0.00     0.065 A 
BRANCH   4   7
HETATM    7  C   UNL     1      29.601  44.086  55.104  1.00  0.00    -0.006 A 
HETATM    8  C   UNL     1      30.544  43.111  55.465  1.00  0.00     0.014 A 
HETATM    9  C   UNL     1      31.382  43.295  56.569  1.00  0.00     0.001 A 
HETATM   10  C   UNL     1      31.289  44.459  57.328  1.00  0.00     0.000 A 
HETATM   11  C   UNL     1      30.362  45.439  56.982  1.00  0.00     0.001 A 
HETATM   12  C   UNL     1      29.522  45.254  55.878  1.00  0.00     0.014 A 
ENDBRANCH   4   7
BRANCH   6  13
HETATM   13  C   UNL     1      27.185  42.194  51.055  1.00  0.00    -0.008 A 
HETATM   14  C   UNL     1      26.688  40.910  51.305  1.00  0.00     0.014 A 
HETATM   15  C   UNL     1      26.221  40.115  50.255  1.00  0.00     0.001 A 
HETATM   16  C   UNL     1      26.233  40.603  48.950  1.00  0.00     0.000 A 
HETATM   17  C   UNL     1      26.706  41.887  48.692  1.00  0.00     0.001 A 
HETATM   18  C   UNL     1      27.178  42.680  49.740  1.00  0.00     0.014 A 
ENDBRANCH   6  13
ENDBRANCH   1   2
BRANCH   1  19
HETATM   19  C   UNL     1      26.385  45.963  50.925  1.00  0.00     0.126 C 
BRANCH  19  20
HETATM   20  C   UNL     1      25.432  47.134  50.921  1.00  0.00     0.239 C 
HETATM   21  N   UNL     1      25.112  47.593  49.657  1.00  0.00    -0.246 N 
HETATM   22  H   UNL     1      25.384  47.067  48.822  1.00  0.00     0.192 HD
HETATM   23  O   UNL     1      25.024  47.612  51.979  1.00  0.00    -0.272 OA
BRANCH  21  24
HETATM   24  N   UNL     1      24.286  48.669  49.514  1.00  0.00    -0.166 NA
HETATM   25  C   UNL     1      23.107  48.436  49.035  1.00  0.00     0.157 A 
HETATM   26  C   UNL     1      22.508  47.111  48.551  1.00  0.00     0.277 A 
HETATM   27  C   UNL     1      22.070  49.439  48.825  1.00  0.00     0.027 A 
HETATM   28  O   UNL     1      23.098  46.051  48.502  1.00  0.00    -0.266 OA
HETATM   29  N   UNL     1      21.223  47.409  48.152  1.00  0.00    -0.321 N 
HETATM   30  C   UNL     1      20.967  48.770  48.298  1.00  0.00     0.048 A 
HETATM   31  H   UNL     1      20.586  46.722  47.778  1.00  0.00     0.169 HD
HETATM   32  C   UNL     1      19.813  49.447  47.969  1.00  0.00     0.030 A 
HETATM   33  C   UNL     1      19.795  50.832  48.186  1.00  0.00     0.002 A 
HETATM   34  C   UNL     1      20.915  51.501  48.721  1.00  0.00     0.001 A 
HETATM   35  C   UNL     1      22.078  50.800  49.050  1.00  0.00     0.016 A 
ENDBRANCH  21  24
ENDBRANCH  19  20
ENDBRANCH   1  19
TORSDOF 6
ENDMDL
MODEL 3
REMARK VINA RESULT:     -10.3      2.103      9.969
REMARK  6 active torsions:
REMARK  status: ('A' for Active; 'I' for Inactive)
REMARK    1  A    between atoms: C_4  and  C_5 
REMARK    2  A    between atoms: N_7  and  C_8 
REMARK    3  A    between atoms: C_8  and  C_9 
REMARK    4  A    between atoms: C_9  and  C_10 
REMARK       I    between atoms: C_10  and  N_11 
REMARK    5  A    between atoms: N_11  and  N_12 
REMARK    6  A    between atoms: C_24  and  C_25 
ROOT
HETATM    1  C   UNL     1      23.033  46.754  48.271  1.00  0.00     0.161 C 
ENDROOT
BRANCH   1   2
HETATM    2  N   UNL     1      22.709  48.146  48.537  1.00  0.00    -0.268 N 
HETATM    3  N   UNL     1      21.411  48.492  48.593  1.00  0.00    -0.172 NA
HETATM    4  C   UNL     1      21.403  49.790  48.933  1.00  0.00     0.089 A 
HETATM    5  C   UNL     1      22.734  50.250  49.104  1.00  0.00     0.066 A 
HETATM    6  C   UNL     1      23.565  49.174  48.850  1.00  0.00     0.065 A 
BRANCH   4   7
HETATM    7  C   UNL     1      20.149  50.535  49.110  1.00  0.00    -0.006 A 
HETATM    8  C   UNL     1      19.983  51.798  48.522  1.00  0.00     0.014 A 
HETATM    9  C   UNL     1      18.794  52.517  48.684  1.00  0.00     0.001 A 
HETATM   10  C   UNL     1      17.753  51.980  49.436  1.00  0.00     0.000 A 
HETATM   11  C   UNL     1      17.898  50.725  50.024  1.00  0.00     0.001 A 
HETATM   12  C   UNL     1      19.088  50.008  49.863  1.00  0.00     0.014 A 
ENDBRANCH   4   7
BRANCH   6  13
HETATM   13  C   UNL     1      25.015  49.081  48.977  1.00  0.00    -0.008 A 
HETATM   14  C   UNL     1      25.867  49.956  48.293  1.00  0.00     0.014 A 
HETATM   15  C   UNL     1      27.253  49.839  48.424  1.00  0.00     0.001 A 
HETATM   16  C   UNL     1      27.798  48.859  49.251  1.00  0.00     0.000 A 
HETATM   17  C   UNL     1      26.959  47.997  49.953  1.00  0.00     0.001 A 
HETATM   18  C   UNL     1      25.574  48.109  49.818  1.00  0.00     0.014 A 
ENDBRANCH   6  13
ENDBRANCH   1   2
BRANCH   1  19
HETATM   19  C   UNL     1      22.950  45.886  49.515  1.00  0.00     0.126 C 
BRANCH  19  20
HETATM   20  C   UNL     1      24.175  45.014  49.658  1.00  0.00     0.239 C 
HETATM   21  N   UNL     1      24.605  44.863  50.964  1.00  0.00    -0.246 N 
HETATM   22  H   UNL     1      24.033  45.190  51.747  1.00  0.00     0.192 HD
HETATM   23  O   UNL     1      24.715  44.525  48.668  1.00  0.00    -0.272 OA
BRANCH  21  24
HETATM   24  N   UNL     1      25.722  44.126  51.230  1.00  0.00    -0.166 NA
HETATM   25  C   UNL     1      26.439  44.502  52.238  1.00  0.00     0.157 A 
HETATM   26  C   UNL     1      26.240  45.704  53.168  1.00  0.00     0.277 A 
HETATM   27  C   UNL     1      27.653  43.840  52.701  1.00  0.00     0.027 A 
HETATM   28  O   UNL     1      25.368  46.540  53.056  1.00  0.00    -0.266 OA
HETATM   29  N   UNL     1      27.271  45.641  54.081  1.00  0.00    -0.321 N 
HETATM   30  C   UNL     1      28.106  44.561  53.803  1.00  0.00     0.048 A 
HETATM   31  H   UNL     1      27.398  46.316  54.819  1.00  0.00     0.169 HD
HETATM   32  C   UNL     1      29.257  44.199  54.469  1.00  0.00     0.030 A 
HETATM   33  C   UNL     1      29.951  43.080  53.991  1.00  0.00     0.002 A 
HETATM   34  C   UNL     1      29.485  42.354  52.875  1.00  0.00     0.001 A 
HETATM   35  C   UNL     1      28.315  42.734  52.212  1.00  0.00     0.016 A 
ENDBRANCH  21  24
ENDBRANCH  19  20
ENDBRANCH   1  19
TORSDOF 6
ENDMDL
MODEL 4
REMARK VINA RESULT:     -10.2      1.868      5.231
REMARK  6 active torsions:
REMARK  status: ('A' for Active; 'I' for Inactive)
REMARK    1  A    between atoms: C_4  and  C_5 
REMARK    2  A    between atoms: N_7  and  C_8 
REMARK    3  A    between atoms: C_8  and  C_9 
REMARK    4  A    between atoms: C_9  and  C_10 
REMARK       I    between atoms: C_10  and  N_11 
REMARK    5  A    between atoms: N_11  and  N_12 
REMARK    6  A    between atoms: C_24  and  C_25 
ROOT
HETATM    1  C   UNL     1      26.767  44.021  52.576  1.00  0.00     0.161 C 
ENDROOT
BRANCH   1   2
HETATM    2  N   UNL     1      27.642  42.859  52.556  1.00  0.00    -0.268 N 
HETATM    3  N   UNL     1      27.432  41.927  51.609  1.00  0.00    -0.172 NA
HETATM    4  C   UNL     1      28.418  41.031  51.768  1.00  0.00     0.089 A 
HETATM    5  C   UNL     1      29.264  41.431  52.833  1.00  0.00     0.066 A 
HETATM    6  C   UNL     1      28.752  42.617  53.328  1.00  0.00     0.065 A 
BRANCH   4   7
HETATM    7  C   UNL     1      28.539  39.854  50.896  1.00  0.00    -0.006 A 
HETATM    8  C   UNL     1      27.677  39.689  49.801  1.00  0.00     0.014 A 
HETATM    9  C   UNL     1      27.782  38.574  48.964  1.00  0.00     0.001 A 
HETATM   10  C   UNL     1      28.754  37.607  49.211  1.00  0.00     0.000 A 
HETATM   11  C   UNL     1      29.621  37.756  50.291  1.00  0.00     0.001 A 
HETATM   12  C   UNL     1      29.514  38.873  51.129  1.00  0.00     0.014 A 
ENDBRANCH   4   7
BRANCH   6  13
HETATM   13  C   UNL     1      29.296  43.495  54.359  1.00  0.00    -0.008 A 
HETATM   14  C   UNL     1      28.671  44.701  54.697  1.00  0.00     0.014 A 
HETATM   15  C   UNL     1      29.217  45.528  55.681  1.00  0.00     0.001 A 
HETATM   16  C   UNL     1      30.382  45.150  56.346  1.00  0.00     0.000 A 
HETATM   17  C   UNL     1      31.000  43.942  56.032  1.00  0.00     0.001 A 
HETATM   18  C   UNL     1      30.458  43.117  55.044  1.00  0.00     0.014 A 
ENDBRANCH   6  13
ENDBRANCH   1   2
BRANCH   1  19
HETATM   19  C   UNL     1      26.577  44.634  51.200  1.00  0.00     0.126 C 
BRANCH  19  20
HETATM   20  C   UNL     1      25.205  45.250  51.058  1.00  0.00     0.239 C 
HETATM   21  N   UNL     1      25.104  46.161  50.023  1.00  0.00    -0.246 N 
HETATM   22  H   UNL     1      25.857  46.263  49.337  1.00  0.00     0.192 HD
HETATM   23  O   UNL     1      24.300  44.950  51.836  1.00  0.00    -0.272 OA
BRANCH  21  24
HETATM   24  N   UNL     1      23.927  46.815  49.806  1.00  0.00    -0.166 NA
HETATM   25  C   UNL     1      24.009  48.029  49.367  1.00  0.00     0.157 A 
HETATM   26  C   UNL     1      25.259  48.873  49.094  1.00  0.00     0.277 A 
HETATM   27  C   UNL     1      22.874  48.889  49.053  1.00  0.00     0.027 A 
HETATM   28  O   UNL     1      26.401  48.521  49.305  1.00  0.00    -0.266 OA
HETATM   29  N   UNL     1      24.794  50.083  48.629  1.00  0.00    -0.321 N 
HETATM   30  C   UNL     1      23.401  50.102  48.616  1.00  0.00     0.048 A 
HETATM   31  H   UNL     1      25.401  50.846  48.371  1.00  0.00     0.169 HD
HETATM   32  C   UNL     1      22.580  51.148  48.253  1.00  0.00     0.030 A 
HETATM   33  C   UNL     1      21.197  50.940  48.344  1.00  0.00     0.002 A 
HETATM   34  C   UNL     1      20.671  49.708  48.787  1.00  0.00     0.001 A 
HETATM   35  C   UNL     1      21.518  48.658  49.150  1.00  0.00     0.016 A 
ENDBRANCH  21  24
ENDBRANCH  19  20
ENDBRANCH   1  19
TORSDOF 6
ENDMDL
MODEL 5
REMARK VINA RESULT:     -10.2      1.726      2.794
REMARK  6 active torsions:
REMARK  status: ('A' for Active; 'I' for Inactive)
REMARK    1  A    between atoms: C_4  and  C_5 
REMARK    2  A    between atoms: N_7  and  C_8 
REMARK    3  A    between atoms: C_8  and  C_9 
REMARK    4  A    between atoms: C_9  and  C_10 
REMARK       I    between atoms: C_10  and  N_11 
REMARK    5  A    between atoms: N_11  and  N_12 
REMARK    6  A    between atoms: C_24  and  C_25 
ROOT
HETATM    1  C   UNL     1      26.118  43.265  50.096  1.00  0.00     0.161 C 
ENDROOT
BRANCH   1   2
HETATM    2  N   UNL     1      27.218  42.894  50.973  1.00  0.00    -0.268 N 
HETATM    3  N   UNL     1      27.530  43.727  51.981  1.00  0.00    -0.172 NA
HETATM    4  C   UNL     1      28.502  43.106  52.667  1.00  0.00     0.089 A 
HETATM    5  C   UNL     1      28.785  41.850  52.070  1.00  0.00     0.066 A 
HETATM    6  C   UNL     1      27.942  41.726  50.981  1.00  0.00     0.065 A 
BRANCH   4   7
HETATM    7  C   UNL     1      29.103  43.704  53.867  1.00  0.00    -0.006 A 
HETATM    8  C   UNL     1      30.238  43.126  54.457  1.00  0.00     0.014 A 
HETATM    9  C   UNL     1      30.819  43.685  55.599  1.00  0.00     0.001 A 
HETATM   10  C   UNL     1      30.273  44.834  56.167  1.00  0.00     0.000 A 
HETATM   11  C   UNL     1      29.150  45.424  55.592  1.00  0.00     0.001 A 
HETATM   12  C   UNL     1      28.568  44.862  54.450  1.00  0.00     0.014 A 
ENDBRANCH   4   7
BRANCH   6  13
HETATM   13  C   UNL     1      27.759  40.590  50.084  1.00  0.00    -0.008 A 
HETATM   14  C   UNL     1      26.767  39.630  50.313  1.00  0.00     0.014 A 
HETATM   15  C   UNL     1      26.619  38.545  49.444  1.00  0.00     0.001 A 
HETATM   16  C   UNL     1      27.451  38.420  48.333  1.00  0.00     0.000 A 
HETATM   17  C   UNL     1      28.427  39.381  48.085  1.00  0.00     0.001 A 
HETATM   18  C   UNL     1      28.580  40.462  48.955  1.00  0.00     0.014 A 
ENDBRANCH   6  13
ENDBRANCH   1   2
BRANCH   1  19
HETATM   19  C   UNL     1      24.772  42.790  50.613  1.00  0.00     0.126 C 
BRANCH  19  20
HETATM   20  C   UNL     1      23.684  43.795  50.318  1.00  0.00     0.239 C 
HETATM   21  N   UNL     1      24.126  44.915  49.637  1.00  0.00    -0.246 N 
HETATM   22  H   UNL     1      25.071  44.953  49.244  1.00  0.00     0.192 HD
HETATM   23  O   UNL     1      22.529  43.596  50.691  1.00  0.00    -0.272 OA
BRANCH  21  24
HETATM   24  N   UNL     1      23.250  45.916  49.336  1.00  0.00    -0.166 NA
HETATM   25  C   UNL     1      23.743  47.107  49.232  1.00  0.00     0.157 A 
HETATM   26  C   UNL     1      25.186  47.576  49.448  1.00  0.00     0.277 A 
HETATM   27  C   UNL     1      22.983  48.306  48.898  1.00  0.00     0.027 A 
HETATM   28  O   UNL     1      26.105  46.870  49.810  1.00  0.00    -0.266 OA
HETATM   29  N   UNL     1      25.177  48.931  49.201  1.00  0.00    -0.321 N 
HETATM   30  C   UNL     1      23.890  49.365  48.892  1.00  0.00     0.048 A 
HETATM   31  H   UNL     1      25.998  49.512  49.272  1.00  0.00     0.169 HD
HETATM   32  C   UNL     1      23.480  50.653  48.625  1.00  0.00     0.030 A 
HETATM   33  C   UNL     1      22.119  50.853  48.362  1.00  0.00     0.002 A 
HETATM   34  C   UNL     1      21.207  49.776  48.369  1.00  0.00     0.001 A 
HETATM   35  C   UNL     1      21.639  48.476  48.641  1.00  0.00     0.016 A 
ENDBRANCH  21  24
ENDBRANCH  19  20
ENDBRANCH   1  19
TORSDOF 6
ENDMDL
MODEL 6
REMARK VINA RESULT:      -9.8      2.119      9.776
REMARK  6 active torsions:
REMARK  status: ('A' for Active; 'I' for Inactive)
REMARK    1  A    between atoms: C_4  and  C_5 
REMARK    2  A    between atoms: N_7  and  C_8 
REMARK    3  A    between atoms: C_8  and  C_9 
REMARK    4  A    between atoms: C_9  and  C_10 
REMARK       I    between atoms: C_10  and  N_11 
REMARK    5  A    between atoms: N_11  and  N_12 
REMARK    6  A    between atoms: C_24  and  C_25 
ROOT
HETATM    1  C   UNL     1      24.559  46.947  49.630  1.00  0.00     0.161 C 
ENDROOT
BRANCH   1   2
HETATM    2  N   UNL     1      23.209  47.244  49.178  1.00  0.00    -0.268 N 
HETATM    3  N   UNL     1      22.750  48.497  49.344  1.00  0.00    -0.172 NA
HETATM    4  C   UNL     1      21.538  48.510  48.768  1.00  0.00     0.089 A 
HETATM    5  C   UNL     1      21.251  47.232  48.222  1.00  0.00     0.066 A 
HETATM    6  C   UNL     1      22.344  46.428  48.490  1.00  0.00     0.065 A 
BRANCH   4   7
HETATM    7  C   UNL     1      20.713  49.726  48.731  1.00  0.00    -0.006 A 
HETATM    8  C   UNL     1      20.145  50.163  47.524  1.00  0.00     0.014 A 
HETATM    9  C   UNL     1      19.359  51.318  47.476  1.00  0.00     0.001 A 
HETATM   10  C   UNL     1      19.129  52.053  48.637  1.00  0.00     0.000 A 
HETATM   11  C   UNL     1      19.681  51.632  49.844  1.00  0.00     0.001 A 
HETATM   12  C   UNL     1      20.468  50.476  49.891  1.00  0.00     0.014 A 
ENDBRANCH   4   7
BRANCH   6  13
HETATM   13  C   UNL     1      22.603  45.056  48.067  1.00  0.00    -0.008 A 
HETATM   14  C   UNL     1      22.957  44.753  46.747  1.00  0.00     0.014 A 
HETATM   15  C   UNL     1      23.190  43.429  46.364  1.00  0.00     0.001 A 
HETATM   16  C   UNL     1      23.085  42.402  47.300  1.00  0.00     0.000 A 
HETATM   17  C   UNL     1      22.754  42.695  48.620  1.00  0.00     0.001 A 
HETATM   18  C   UNL     1      22.515  44.017  49.002  1.00  0.00     0.014 A 
ENDBRANCH   6  13
ENDBRANCH   1   2
BRANCH   1  19
HETATM   19  C   UNL     1      24.583  46.038  50.846  1.00  0.00     0.126 C 
BRANCH  19  20
HETATM   20  C   UNL     1      25.692  46.422  51.797  1.00  0.00     0.239 C 
HETATM   21  N   UNL     1      25.994  45.446  52.728  1.00  0.00    -0.246 N 
HETATM   22  H   UNL     1      25.598  44.505  52.652  1.00  0.00     0.192 HD
HETATM   23  O   UNL     1      26.230  47.525  51.719  1.00  0.00    -0.272 OA
BRANCH  21  24
HETATM   24  N   UNL     1      26.956  45.678  53.668  1.00  0.00    -0.166 NA
HETATM   25  C   UNL     1      27.797  44.721  53.887  1.00  0.00     0.157 A 
HETATM   26  C   UNL     1      27.845  43.319  53.269  1.00  0.00     0.277 A 
HETATM   27  C   UNL     1      28.908  44.776  54.830  1.00  0.00     0.027 A 
HETATM   28  O   UNL     1      27.035  42.871  52.484  1.00  0.00    -0.266 OA
HETATM   29  N   UNL     1      28.941  42.703  53.833  1.00  0.00    -0.321 N 
HETATM   30  C   UNL     1      29.557  43.545  54.755  1.00  0.00     0.048 A 
HETATM   31  H   UNL     1      29.218  41.758  53.614  1.00  0.00     0.169 HD
HETATM   32  C   UNL     1      30.652  43.267  55.544  1.00  0.00     0.030 A 
HETATM   33  C   UNL     1      31.083  44.271  56.422  1.00  0.00     0.002 A 
HETATM   34  C   UNL     1      30.421  45.514  56.491  1.00  0.00     0.001 A 
HETATM   35  C   UNL     1      29.313  45.780  55.684  1.00  0.00     0.016 A 
ENDBRANCH  21  24
ENDBRANCH  19  20
ENDBRANCH   1  19
TORSDOF 6
ENDMDL
MODEL 7
REMARK VINA RESULT:      -9.6      1.493      2.274
REMARK  6 active torsions:
REMARK  status: ('A' for Active; 'I' for Inactive)
REMARK    1  A    between atoms: C_4  and  C_5 
REMARK    2  A    between atoms: N_7  and  C_8 
REMARK    3  A    between atoms: C_8  and  C_9 
REMARK    4  A    between atoms: C_9  and  C_10 
REMARK       I    between atoms: C_10  and  N_11 
REMARK    5  A    between atoms: N_11  and  N_12 
REMARK    6  A    between atoms: C_24  and  C_25 
ROOT
HETATM    1  C   UNL     1      25.975  44.844  49.568  1.00  0.00     0.161 C 
ENDROOT
BRANCH   1   2
HETATM    2  N   UNL     1      26.875  44.031  50.369  1.00  0.00    -0.268 N 
HETATM    3  N   UNL     1      27.411  44.583  51.472  1.00  0.00    -0.172 NA
HETATM    4  C   UNL     1      28.115  43.601  52.055  1.00  0.00     0.089 A 
HETATM    5  C   UNL     1      27.998  42.409  51.295  1.00  0.00     0.066 A 
HETATM    6  C   UNL     1      27.188  42.702  50.213  1.00  0.00     0.065 A 
BRANCH   4   7
HETATM    7  C   UNL     1      28.846  43.815  53.312  1.00  0.00    -0.006 A 
HETATM    8  C   UNL     1      29.923  42.985  53.659  1.00  0.00     0.014 A 
HETATM    9  C   UNL     1      30.625  43.178  54.853  1.00  0.00     0.001 A 
HETATM   10  C   UNL     1      30.260  44.207  55.716  1.00  0.00     0.000 A 
HETATM   11  C   UNL     1      29.195  45.044  55.387  1.00  0.00     0.001 A 
HETATM   12  C   UNL     1      28.492  44.848  54.193  1.00  0.00     0.014 A 
ENDBRANCH   4   7
BRANCH   6  13
HETATM   13  C   UNL     1      26.675  41.810  49.179  1.00  0.00    -0.008 A 
HETATM   14  C   UNL     1      27.526  41.200  48.251  1.00  0.00     0.014 A 
HETATM   15  C   UNL     1      27.008  40.357  47.264  1.00  0.00     0.001 A 
HETATM   16  C   UNL     1      25.637  40.107  47.206  1.00  0.00     0.000 A 
HETATM   17  C   UNL     1      24.785  40.693  48.138  1.00  0.00     0.001 A 
HETATM   18  C   UNL     1      25.301  41.539  49.121  1.00  0.00     0.014 A 
ENDBRANCH   6  13
ENDBRANCH   1   2
BRANCH   1  19
HETATM   19  C   UNL     1      26.151  46.332  49.817  1.00  0.00     0.126 C 
BRANCH  19  20
HETATM   20  C   UNL     1      24.859  46.970  50.271  1.00  0.00     0.239 C 
HETATM   21  N   UNL     1      23.908  47.082  49.274  1.00  0.00    -0.246 N 
HETATM   22  H   UNL     1      24.039  46.622  48.369  1.00  0.00     0.192 HD
HETATM   23  O   UNL     1      24.726  47.356  51.431  1.00  0.00    -0.272 OA
BRANCH  21  24
HETATM   24  N   UNL     1      22.708  47.671  49.543  1.00  0.00    -0.166 NA
HETATM   25  C   UNL     1      22.499  48.833  49.016  1.00  0.00     0.157 A 
HETATM   26  C   UNL     1      23.440  49.684  48.155  1.00  0.00     0.277 A 
HETATM   27  C   UNL     1      21.279  49.618  49.163  1.00  0.00     0.027 A 
HETATM   28  O   UNL     1      24.584  49.395  47.872  1.00  0.00    -0.266 OA
HETATM   29  N   UNL     1      22.729  50.823  47.845  1.00  0.00    -0.321 N 
HETATM   30  C   UNL     1      21.471  50.794  48.442  1.00  0.00     0.048 A 
HETATM   31  H   UNL     1      23.104  51.574  47.286  1.00  0.00     0.169 HD
HETATM   32  C   UNL     1      20.497  51.768  48.393  1.00  0.00     0.030 A 
HETATM   33  C   UNL     1      19.310  51.526  49.097  1.00  0.00     0.002 A 
HETATM   34  C   UNL     1      19.123  50.331  49.824  1.00  0.00     0.001 A 
HETATM   35  C   UNL     1      20.120  49.354  49.863  1.00  0.00     0.016 A 
ENDBRANCH  21  24
ENDBRANCH  19  20
ENDBRANCH   1  19
TORSDOF 6
ENDMDL
MODEL 8
REMARK VINA RESULT:      -9.6      2.636      8.226
REMARK  6 active torsions:
REMARK  status: ('A' for Active; 'I' for Inactive)
REMARK    1  A    between atoms: C_4  and  C_5 
REMARK    2  A    between atoms: N_7  and  C_8 
REMARK    3  A    between atoms: C_8  and  C_9 
REMARK    4  A    between atoms: C_9  and  C_10 
REMARK       I    between atoms: C_10  and  N_11 
REMARK    5  A    between atoms: N_11  and  N_12 
REMARK    6  A    between atoms: C_24  and  C_25 
ROOT
HETATM    1  C   UNL     1      24.495  45.107  49.242  1.00  0.00     0.161 C 
ENDROOT
BRANCH   1   2
HETATM    2  N   UNL     1      25.004  45.906  50.345  1.00  0.00    -0.268 N 
HETATM    3  N   UNL     1      25.679  45.275  51.322  1.00  0.00    -0.172 NA
HETATM    4  C   UNL     1      26.102  46.246  52.146  1.00  0.00     0.089 A 
HETATM    5  C   UNL     1      25.686  47.510  51.653  1.00  0.00     0.066 A 
HETATM    6  C   UNL     1      24.984  47.273  50.486  1.00  0.00     0.065 A 
BRANCH   4   7
HETATM    7  C   UNL     1      26.900  45.950  53.344  1.00  0.00    -0.006 A 
HETATM    8  C   UNL     1      27.227  46.970  54.250  1.00  0.00     0.014 A 
HETATM    9  C   UNL     1      27.986  46.700  55.394  1.00  0.00     0.001 A 
HETATM   10  C   UNL     1      28.427  45.404  55.647  1.00  0.00     0.000 A 
HETATM   11  C   UNL     1      28.109  44.378  54.760  1.00  0.00     0.001 A 
HETATM   12  C   UNL     1      27.350  44.649  53.616  1.00  0.00     0.014 A 
ENDBRANCH   4   7
BRANCH   6  13
HETATM   13  C   UNL     1      24.425  48.230  49.537  1.00  0.00    -0.008 A 
HETATM   14  C   UNL     1      23.058  48.253  49.240  1.00  0.00     0.014 A 
HETATM   15  C   UNL     1      22.549  49.173  48.320  1.00  0.00     0.001 A 
HETATM   16  C   UNL     1      23.400  50.088  47.702  1.00  0.00     0.000 A 
HETATM   17  C   UNL     1      24.759  50.088  48.006  1.00  0.00     0.001 A 
HETATM   18  C   UNL     1      25.269  49.164  48.921  1.00  0.00     0.014 A 
ENDBRANCH   6  13
ENDBRANCH   1   2
BRANCH   1  19
HETATM   19  C   UNL     1      23.277  44.285  49.628  1.00  0.00     0.126 C 
BRANCH  19  20
HETATM   20  C   UNL     1      23.542  42.806  49.473  1.00  0.00     0.239 C 
HETATM   21  N   UNL     1      24.866  42.452  49.652  1.00  0.00    -0.246 N 
HETATM   22  H   UNL     1      25.547  43.126  50.012  1.00  0.00     0.192 HD
HETATM   23  O   UNL     1      22.628  42.033  49.191  1.00  0.00    -0.272 OA
BRANCH  21  24
HETATM   24  N   UNL     1      25.246  41.150  49.506  1.00  0.00    -0.166 NA
HETATM   25  C   UNL     1      26.447  40.849  49.883  1.00  0.00     0.157 A 
HETATM   26  C   UNL     1      27.542  41.768  50.436  1.00  0.00     0.277 A 
HETATM   27  C   UNL     1      27.036  39.517  49.832  1.00  0.00     0.027 A 
HETATM   28  O   UNL     1      27.450  42.972  50.560  1.00  0.00    -0.266 OA
HETATM   29  N   UNL     1      28.619  40.948  50.691  1.00  0.00    -0.321 N 
HETATM   30  C   UNL     1      28.333  39.634  50.327  1.00  0.00     0.048 A 
HETATM   31  H   UNL     1      29.495  41.285  51.060  1.00  0.00     0.169 HD
HETATM   32  C   UNL     1      29.172  38.543  50.397  1.00  0.00     0.030 A 
HETATM   33  C   UNL     1      28.667  37.315  49.949  1.00  0.00     0.002 A 
HETATM   34  C   UNL     1      27.353  37.204  49.450  1.00  0.00     0.001 A 
HETATM   35  C   UNL     1      26.515  38.320  49.387  1.00  0.00     0.016 A 
ENDBRANCH  21  24
ENDBRANCH  19  20
ENDBRANCH   1  19
TORSDOF 6
ENDMDL
MODEL 9
REMARK VINA RESULT:      -9.5      4.558      9.475
REMARK  6 active torsions:
REMARK  status: ('A' for Active; 'I' for Inactive)
REMARK    1  A    between atoms: C_4  and  C_5 
REMARK    2  A    between atoms: N_7  and  C_8 
REMARK    3  A    between atoms: C_8  and  C_9 
REMARK    4  A    between atoms: C_9  and  C_10 
REMARK       I    between atoms: C_10  and  N_11 
REMARK    5  A    between atoms: N_11  and  N_12 
REMARK    6  A    between atoms: C_24  and  C_25 
ROOT
HETATM    1  C   UNL     1      20.126  47.823  48.032  1.00  0.00     0.161 C 
ENDROOT
BRANCH   1   2
HETATM    2  N   UNL     1      21.210  48.646  48.545  1.00  0.00    -0.268 N 
HETATM    3  N   UNL     1      22.457  48.146  48.498  1.00  0.00    -0.172 NA
HETATM    4  C   UNL     1      23.251  49.132  48.944  1.00  0.00     0.089 A 
HETATM    5  C   UNL     1      22.470  50.273  49.261  1.00  0.00     0.066 A 
HETATM    6  C   UNL     1      21.154  49.944  48.992  1.00  0.00     0.065 A 
BRANCH   4   7
HETATM    7  C   UNL     1      24.710  48.971  49.027  1.00  0.00    -0.006 A 
HETATM    8  C   UNL     1      25.266  47.887  49.724  1.00  0.00     0.014 A 
HETATM    9  C   UNL     1      26.652  47.723  49.811  1.00  0.00     0.001 A 
HETATM   10  C   UNL     1      27.502  48.641  49.199  1.00  0.00     0.000 A 
HETATM   11  C   UNL     1      26.967  49.721  48.500  1.00  0.00     0.001 A 
HETATM   12  C   UNL     1      25.580  49.885  48.415  1.00  0.00     0.014 A 
ENDBRANCH   4   7
BRANCH   6  13
HETATM   13  C   UNL     1      19.964  50.786  49.053  1.00  0.00    -0.008 A 
HETATM   14  C   UNL     1      19.814  51.903  48.223  1.00  0.00     0.014 A 
HETATM   15  C   UNL     1      18.669  52.699  48.309  1.00  0.00     0.001 A 
HETATM   16  C   UNL     1      17.659  52.376  49.214  1.00  0.00     0.000 A 
HETATM   17  C   UNL     1      17.789  51.255  50.030  1.00  0.00     0.001 A 
HETATM   18  C   UNL     1      18.936  50.462  49.948  1.00  0.00     0.014 A 
ENDBRANCH   6  13
ENDBRANCH   1   2
BRANCH   1  19
HETATM   19  C   UNL     1      19.659  46.779  49.032  1.00  0.00     0.126 C 
BRANCH  19  20
HETATM   20  C   UNL     1      19.834  45.381  48.488  1.00  0.00     0.239 C 
HETATM   21  N   UNL     1      21.154  45.013  48.302  1.00  0.00    -0.246 N 
HETATM   22  H   UNL     1      21.917  45.594  48.660  1.00  0.00     0.192 HD
HETATM   23  O   UNL     1      18.855  44.682  48.231  1.00  0.00    -0.272 OA
BRANCH  21  24
HETATM   24  N   UNL     1      21.450  43.786  47.785  1.00  0.00    -0.166 NA
HETATM   25  C   UNL     1      22.595  43.279  48.110  1.00  0.00     0.157 A 
HETATM   26  C   UNL     1      23.709  43.887  48.970  1.00  0.00     0.277 A 
HETATM   27  C   UNL     1      23.091  41.976  47.683  1.00  0.00     0.027 A 
HETATM   28  O   UNL     1      23.694  45.001  49.451  1.00  0.00    -0.266 OA
HETATM   29  N   UNL     1      24.704  42.935  49.014  1.00  0.00    -0.321 N 
HETATM   30  C   UNL     1      24.352  41.822  48.254  1.00  0.00     0.048 A 
HETATM   31  H   UNL     1      25.572  43.065  49.511  1.00  0.00     0.169 HD
HETATM   32  C   UNL     1      25.104  40.689  48.027  1.00  0.00     0.030 A 
HETATM   33  C   UNL     1      24.548  39.703  47.202  1.00  0.00     0.002 A 
HETATM   34  C   UNL     1      23.269  39.866  46.629  1.00  0.00     0.001 A 
HETATM   35  C   UNL     1      22.520  41.021  46.869  1.00  0.00     0.016 A 
ENDBRANCH  21  24
ENDBRANCH  19  20
ENDBRANCH   1  19
TORSDOF 6
ENDMDL
MODEL 10
REMARK VINA RESULT:      -9.5      1.737      2.328
REMARK  6 active torsions:
REMARK  status: ('A' for Active; 'I' for Inactive)
REMARK    1  A    between atoms: C_4  and  C_5 
REMARK    2  A    between atoms: N_7  and  C_8 
REMARK    3  A    between atoms: C_8  and  C_9 
REMARK    4  A    between atoms: C_9  and  C_10 
REMARK       I    between atoms: C_10  and  N_11 
REMARK    5  A    between atoms: N_11  and  N_12 
REMARK    6  A    between atoms: C_24  and  C_25 
ROOT
HETATM    1  C   UNL     1      26.408  42.720  49.339  1.00  0.00     0.161 C 
ENDROOT
BRANCH   1   2
HETATM    2  N   UNL     1      27.370  42.387  50.378  1.00  0.00    -0.268 N 
HETATM    3  N   UNL     1      27.597  43.298  51.341  1.00  0.00    -0.172 NA
HETATM    4  C   UNL     1      28.442  42.705  52.198  1.00  0.00     0.089 A 
HETATM    5  C   UNL     1      28.731  41.388  51.755  1.00  0.00     0.066 A 
HETATM    6  C   UNL     1      28.025  41.197  50.582  1.00  0.00     0.065 A 
BRANCH   4   7
HETATM    7  C   UNL     1      28.921  43.388  53.408  1.00  0.00    -0.006 A 
HETATM    8  C   UNL     1      28.220  44.487  53.928  1.00  0.00     0.014 A 
HETATM    9  C   UNL     1      28.666  45.145  55.078  1.00  0.00     0.001 A 
HETATM   10  C   UNL     1      29.819  44.711  55.727  1.00  0.00     0.000 A 
HETATM   11  C   UNL     1      30.525  43.619  55.227  1.00  0.00     0.001 A 
HETATM   12  C   UNL     1      30.079  42.962  54.075  1.00  0.00     0.014 A 
ENDBRANCH   4   7
BRANCH   6  13
HETATM   13  C   UNL     1      27.895  39.990  49.772  1.00  0.00    -0.008 A 
HETATM   14  C   UNL     1      28.885  39.612  48.858  1.00  0.00     0.014 A 
HETATM   15  C   UNL     1      28.732  38.457  48.088  1.00  0.00     0.001 A 
HETATM   16  C   UNL     1      27.596  37.663  48.234  1.00  0.00     0.000 A 
HETATM   17  C   UNL     1      26.614  38.020  49.155  1.00  0.00     0.001 A 
HETATM   18  C   UNL     1      26.764  39.177  49.922  1.00  0.00     0.014 A 
ENDBRANCH   6  13
ENDBRANCH   1   2
BRANCH   1  19
HETATM   19  C   UNL     1      25.162  43.392  49.888  1.00  0.00     0.126 C 
BRANCH  19  20
HETATM   20  C   UNL     1      25.198  44.885  49.661  1.00  0.00     0.239 C 
HETATM   21  N   UNL     1      24.023  45.532  49.998  1.00  0.00    -0.246 N 
HETATM   22  H   UNL     1      23.279  45.041  50.501  1.00  0.00     0.192 HD
HETATM   23  O   UNL     1      26.201  45.423  49.195  1.00  0.00    -0.272 OA
BRANCH  21  24
HETATM   24  N   UNL     1      23.912  46.878  49.810  1.00  0.00    -0.166 NA
HETATM   25  C   UNL     1      22.883  47.288  49.143  1.00  0.00     0.157 A 
HETATM   26  C   UNL     1      21.774  46.465  48.478  1.00  0.00     0.277 A 
HETATM   27  C   UNL     1      22.569  48.682  48.852  1.00  0.00     0.027 A 
HETATM   28  O   UNL     1      21.727  45.253  48.442  1.00  0.00    -0.266 OA
HETATM   29  N   UNL     1      20.918  47.385  47.912  1.00  0.00    -0.321 N 
HETATM   30  C   UNL     1      21.386  48.681  48.117  1.00  0.00     0.048 A 
HETATM   31  H   UNL     1      20.090  47.126  47.397  1.00  0.00     0.169 HD
HETATM   32  C   UNL     1      20.823  49.856  47.667  1.00  0.00     0.030 A 
HETATM   33  C   UNL     1      21.491  51.048  47.979  1.00  0.00     0.002 A 
HETATM   34  C   UNL     1      22.688  51.041  48.725  1.00  0.00     0.001 A 
HETATM   35  C   UNL     1      23.244  49.841  49.174  1.00  0.00     0.016 A 
ENDBRANCH  21  24
ENDBRANCH  19  20
ENDBRANCH   1  19
TORSDOF 6
ENDMDL
