MODEL 1
REMARK VINA RESULT:      -8.2      0.000      0.000
REMARK  8 active torsions:
REMARK  status: ('A' for Active; 'I' for Inactive)
REMARK    1  A    between atoms: N_4  and  C_5 
REMARK    2  A    between atoms: C_5  and  C_6 
REMARK    3  A    between atoms: C_6  and  C_7 
REMARK    4  A    between atoms: C_7  and  N_8 
REMARK       I    between atoms: N_8  and  C_9 
REMARK       I    between atoms: C_9  and  N_10 
REMARK    5  A    between atoms: N_10  and  N_11 
REMARK       I    between atoms: N_11  and  C_12 
REMARK    6  A    between atoms: C_12  and  C_13 
REMARK    7  A    between atoms: C_13  and  O_14 
REMARK    8  A    between atoms: O_14  and  C_15 
ROOT
HETATM    1  N   UNL     1      25.298  43.439  49.704  1.00  0.00    -0.341 N 
HETATM    2  C   UNL     1      24.651  42.777  50.705  1.00  0.00     0.334 C 
HETATM    3  N   UNL     1      25.190  41.558  51.038  1.00  0.00    -0.249 N 
HETATM    4  O   UNL     1      23.678  43.211  51.313  1.00  0.00    -0.246 OA
HETATM    5  H   UNL     1      26.216  43.089  49.459  1.00  0.00     0.164 HD
HETATM    6  H   UNL     1      24.636  41.042  51.718  1.00  0.00     0.192 HD
ENDROOT
BRANCH   1   7
HETATM    7  C   UNL     1      25.012  44.819  49.361  1.00  0.00     0.130 C 
BRANCH   7   8
HETATM    8  C   UNL     1      26.226  45.747  49.574  1.00  0.00     0.019 C 
HETATM    9  C   UNL     1      27.352  45.049  50.347  1.00  0.00     0.013 C 
BRANCH   8  10
HETATM   10  C   UNL     1      25.811  47.018  50.342  1.00  0.00     0.156 C 
BRANCH  10  11
HETATM   11  N   UNL     1      25.550  48.205  49.540  1.00  0.00    -0.274 N 
HETATM   12  N   UNL     1      24.289  48.549  49.222  1.00  0.00    -0.177 NA
HETATM   13  C   UNL     1      24.421  49.629  48.446  1.00  0.00     0.053 A 
HETATM   14  C   UNL     1      23.226  50.305  47.887  1.00  0.00     0.072 C 
HETATM   15  C   UNL     1      25.777  49.971  48.262  1.00  0.00     0.055 A 
HETATM   16  C   UNL     1      26.493  49.028  48.971  1.00  0.00     0.028 A 
HETATM   17  C   UNL     1      27.955  48.855  49.138  1.00  0.00     0.070 C 
ENDBRANCH  10  11
ENDBRANCH   8  10
ENDBRANCH   7   8
ENDBRANCH   1   7
BRANCH   3  18
HETATM   18  N   UNL     1      25.941  40.800  50.125  1.00  0.00    -0.264 N 
HETATM   19  C   UNL     1      27.219  40.387  50.428  1.00  0.00     0.260 C 
HETATM   20  O   UNL     1      27.639  39.325  49.971  1.00  0.00    -0.269 OA
HETATM   21  H   UNL     1      25.409  40.133  49.571  1.00  0.00     0.190 HD
BRANCH  19  22
HETATM   22  C   UNL     1      28.093  41.322  51.262  1.00  0.00     0.280 C 
BRANCH  22  23
HETATM   23  O   UNL     1      27.877  41.133  52.663  1.00  0.00    -0.342 OA
BRANCH  23  24
HETATM   24  C   UNL     1      28.188  42.263  53.369  1.00  0.00     0.069 A 
HETATM   25  C   UNL     1      27.206  43.218  53.630  1.00  0.00     0.038 A 
HETATM   26  C   UNL     1      27.531  44.361  54.362  1.00  0.00     0.022 A 
HETATM   27  C   UNL     1      28.828  44.526  54.847  1.00  0.00     0.011 A 
HETATM   28 BR   UNL     1      29.269  46.077  55.833  1.00  0.00    -0.051 Br
HETATM   29  C   UNL     1      29.801  43.553  54.616  1.00  0.00     0.022 A 
HETATM   30  C   UNL     1      29.477  42.410  53.881  1.00  0.00     0.038 A 
ENDBRANCH  23  24
ENDBRANCH  22  23
ENDBRANCH  19  22
ENDBRANCH   3  18
TORSDOF 8
ENDMDL
MODEL 2
REMARK VINA RESULT:      -8.2      1.546      2.144
REMARK  8 active torsions:
REMARK  status: ('A' for Active; 'I' for Inactive)
REMARK    1  A    between atoms: N_4  and  C_5 
REMARK    2  A    between atoms: C_5  and  C_6 
REMARK    3  A    between atoms: C_6  and  C_7 
REMARK    4  A    between atoms: C_7  and  N_8 
REMARK       I    between atoms: N_8  and  C_9 
REMARK       I    between atoms: C_9  and  N_10 
REMARK    5  A    between atoms: N_10  and  N_11 
REMARK       I    between atoms: N_11  and  C_12 
REMARK    6  A    between atoms: C_12  and  C_13 
REMARK    7  A    between atoms: C_13  and  O_14 
REMARK    8  A    between atoms: O_14  and  C_15 
ROOT
HETATM    1  N   UNL     1      25.424  44.115  51.017  1.00  0.00    -0.341 N 
HETATM    2  C   UNL     1      25.328  43.883  52.356  1.00  0.00     0.334 C 
HETATM    3  N   UNL     1      26.234  42.979  52.857  1.00  0.00    -0.249 N 
HETATM    4  O   UNL     1      24.530  44.438  53.105  1.00  0.00    -0.246 OA
HETATM    5  H   UNL     1      26.269  43.784  50.566  1.00  0.00     0.164 HD
HETATM    6  H   UNL     1      26.080  42.751  53.835  1.00  0.00     0.192 HD
ENDROOT
BRANCH   1   7
HETATM    7  C   UNL     1      24.705  45.184  50.350  1.00  0.00     0.130 C 
BRANCH   7   8
HETATM    8  C   UNL     1      25.647  46.187  49.653  1.00  0.00     0.019 C 
HETATM    9  C   UNL     1      27.112  45.740  49.721  1.00  0.00     0.013 C 
BRANCH   8  10
HETATM   10  C   UNL     1      25.525  47.584  50.295  1.00  0.00     0.156 C 
BRANCH  10  11
HETATM   11  N   UNL     1      24.815  48.593  49.524  1.00  0.00    -0.274 N 
HETATM   12  N   UNL     1      23.470  48.638  49.532  1.00  0.00    -0.177 NA
HETATM   13  C   UNL     1      23.160  49.626  48.688  1.00  0.00     0.053 A 
HETATM   14  C   UNL     1      21.745  49.979  48.428  1.00  0.00     0.072 C 
HETATM   15  C   UNL     1      24.317  50.210  48.129  1.00  0.00     0.055 A 
HETATM   16  C   UNL     1      25.378  49.518  48.676  1.00  0.00     0.028 A 
HETATM   17  C   UNL     1      26.837  49.664  48.458  1.00  0.00     0.070 C 
ENDBRANCH  10  11
ENDBRANCH   8  10
ENDBRANCH   7   8
ENDBRANCH   1   7
BRANCH   3  18
HETATM   18  N   UNL     1      26.811  41.980  52.055  1.00  0.00    -0.264 N 
HETATM   19  C   UNL     1      28.161  41.719  52.110  1.00  0.00     0.260 C 
HETATM   20  O   UNL     1      28.568  40.575  51.908  1.00  0.00    -0.269 OA
HETATM   21  H   UNL     1      26.234  41.157  51.902  1.00  0.00     0.190 HD
BRANCH  19  22
HETATM   22  C   UNL     1      29.108  42.895  52.340  1.00  0.00     0.280 C 
BRANCH  22  23
HETATM   23  O   UNL     1      30.175  42.545  53.227  1.00  0.00    -0.342 OA
BRANCH  23  24
HETATM   24  C   UNL     1      30.163  43.327  54.350  1.00  0.00     0.069 A 
HETATM   25  C   UNL     1      31.131  43.148  55.337  1.00  0.00     0.038 A 
HETATM   26  C   UNL     1      31.118  43.958  56.474  1.00  0.00     0.022 A 
HETATM   27  C   UNL     1      30.153  44.958  56.598  1.00  0.00     0.011 A 
HETATM   28 BR   UNL     1      30.132  46.053  58.139  1.00  0.00    -0.051 Br
HETATM   29  C   UNL     1      29.207  45.160  55.593  1.00  0.00     0.022 A 
HETATM   30  C   UNL     1      29.218  44.345  54.458  1.00  0.00     0.038 A 
ENDBRANCH  23  24
ENDBRANCH  22  23
ENDBRANCH  19  22
ENDBRANCH   3  18
TORSDOF 8
ENDMDL
MODEL 3
REMARK VINA RESULT:      -8.0      4.423      9.064
REMARK  8 active torsions:
REMARK  status: ('A' for Active; 'I' for Inactive)
REMARK    1  A    between atoms: N_4  and  C_5 
REMARK    2  A    between atoms: C_5  and  C_6 
REMARK    3  A    between atoms: C_6  and  C_7 
REMARK    4  A    between atoms: C_7  and  N_8 
REMARK       I    between atoms: N_8  and  C_9 
REMARK       I    between atoms: C_9  and  N_10 
REMARK    5  A    between atoms: N_10  and  N_11 
REMARK       I    between atoms: N_11  and  C_12 
REMARK    6  A    between atoms: C_12  and  C_13 
REMARK    7  A    between atoms: C_13  and  O_14 
REMARK    8  A    between atoms: O_14  and  C_15 
ROOT
HETATM    1  N   UNL     1      25.527  46.065  49.681  1.00  0.00    -0.341 N 
HETATM    2  C   UNL     1      25.235  47.318  50.130  1.00  0.00     0.334 C 
HETATM    3  N   UNL     1      23.897  47.628  50.163  1.00  0.00    -0.249 N 
HETATM    4  O   UNL     1      26.068  48.132  50.516  1.00  0.00    -0.246 OA
HETATM    5  H   UNL     1      24.749  45.419  49.627  1.00  0.00     0.164 HD
HETATM    6  H   UNL     1      23.711  48.596  50.410  1.00  0.00     0.192 HD
ENDROOT
BRANCH   1   7
HETATM    7  C   UNL     1      26.853  45.484  49.774  1.00  0.00     0.130 C 
BRANCH   7   8
HETATM    8  C   UNL     1      26.826  44.021  50.259  1.00  0.00     0.019 C 
HETATM    9  C   UNL     1      25.954  43.135  49.360  1.00  0.00     0.013 C 
BRANCH   8  10
HETATM   10  C   UNL     1      26.294  43.936  51.704  1.00  0.00     0.156 C 
BRANCH  10  11
HETATM   11  N   UNL     1      27.249  44.221  52.765  1.00  0.00    -0.274 N 
HETATM   12  N   UNL     1      28.295  43.402  52.980  1.00  0.00    -0.177 NA
HETATM   13  C   UNL     1      28.916  43.922  54.043  1.00  0.00     0.053 A 
HETATM   14  C   UNL     1      30.135  43.282  54.591  1.00  0.00     0.072 C 
HETATM   15  C   UNL     1      28.256  45.076  54.515  1.00  0.00     0.055 A 
HETATM   16  C   UNL     1      27.171  45.246  53.678  1.00  0.00     0.028 A 
HETATM   17  C   UNL     1      26.102  46.272  53.685  1.00  0.00     0.070 C 
ENDBRANCH  10  11
ENDBRANCH   8  10
ENDBRANCH   7   8
ENDBRANCH   1   7
BRANCH   3  18
HETATM   18  N   UNL     1      22.965  46.996  49.324  1.00  0.00    -0.264 N 
HETATM   19  C   UNL     1      22.541  47.593  48.158  1.00  0.00     0.260 C 
HETATM   20  O   UNL     1      22.233  46.893  47.194  1.00  0.00    -0.269 OA
HETATM   21  H   UNL     1      23.044  45.984  49.268  1.00  0.00     0.190 HD
BRANCH  19  22
HETATM   22  C   UNL     1      22.394  49.113  48.146  1.00  0.00     0.280 C 
BRANCH  22  23
HETATM   23  O   UNL     1      22.065  49.620  49.442  1.00  0.00    -0.342 OA
BRANCH  23  24
HETATM   24  C   UNL     1      20.866  50.280  49.428  1.00  0.00     0.069 A 
HETATM   25  C   UNL     1      19.811  49.831  50.221  1.00  0.00     0.038 A 
HETATM   26  C   UNL     1      18.596  50.517  50.208  1.00  0.00     0.022 A 
HETATM   27  C   UNL     1      18.457  51.661  49.422  1.00  0.00     0.011 A 
HETATM   28 BR   UNL     1      16.809  52.587  49.401  1.00  0.00    -0.051 Br
HETATM   29  C   UNL     1      19.524  52.129  48.656  1.00  0.00     0.022 A 
HETATM   30  C   UNL     1      20.739  51.440  48.666  1.00  0.00     0.038 A 
ENDBRANCH  23  24
ENDBRANCH  22  23
ENDBRANCH  19  22
ENDBRANCH   3  18
TORSDOF 8
ENDMDL
MODEL 4
REMARK VINA RESULT:      -7.9      2.555      4.209
REMARK  8 active torsions:
REMARK  status: ('A' for Active; 'I' for Inactive)
REMARK    1  A    between atoms: N_4  and  C_5 
REMARK    2  A    between atoms: C_5  and  C_6 
REMARK    3  A    between atoms: C_6  and  C_7 
REMARK    4  A    between atoms: C_7  and  N_8 
REMARK       I    between atoms: N_8  and  C_9 
REMARK       I    between atoms: C_9  and  N_10 
REMARK    5  A    between atoms: N_10  and  N_11 
REMARK       I    between atoms: N_11  and  C_12 
REMARK    6  A    between atoms: C_12  and  C_13 
REMARK    7  A    between atoms: C_13  and  O_14 
REMARK    8  A    between atoms: O_14  and  C_15 
ROOT
HETATM    1  N   UNL     1      22.484  45.939  48.951  1.00  0.00    -0.341 N 
HETATM    2  C   UNL     1      22.803  44.814  49.652  1.00  0.00     0.334 C 
HETATM    3  N   UNL     1      23.960  44.896  50.389  1.00  0.00    -0.249 N 
HETATM    4  O   UNL     1      22.124  43.793  49.678  1.00  0.00    -0.246 OA
HETATM    5  H   UNL     1      22.988  46.780  49.205  1.00  0.00     0.164 HD
HETATM    6  H   UNL     1      24.226  44.017  50.825  1.00  0.00     0.192 HD
ENDROOT
BRANCH   1   7
HETATM    7  C   UNL     1      21.205  46.119  48.292  1.00  0.00     0.130 C 
BRANCH   7   8
HETATM    8  C   UNL     1      20.527  47.453  48.666  1.00  0.00     0.019 C 
HETATM    9  C   UNL     1      19.011  47.297  48.837  1.00  0.00     0.013 C 
BRANCH   8  10
HETATM   10  C   UNL     1      20.797  48.521  47.586  1.00  0.00     0.156 C 
BRANCH  10  11
HETATM   11  N   UNL     1      21.909  49.426  47.833  1.00  0.00    -0.274 N 
HETATM   12  N   UNL     1      23.179  48.998  47.706  1.00  0.00    -0.177 NA
HETATM   13  C   UNL     1      23.925  50.048  48.058  1.00  0.00     0.053 A 
HETATM   14  C   UNL     1      25.405  49.959  48.048  1.00  0.00     0.072 C 
HETATM   15  C   UNL     1      23.126  51.152  48.421  1.00  0.00     0.055 A 
HETATM   16  C   UNL     1      21.822  50.724  48.278  1.00  0.00     0.028 A 
HETATM   17  C   UNL     1      20.544  51.431  48.529  1.00  0.00     0.070 C 
ENDBRANCH  10  11
ENDBRANCH   8  10
ENDBRANCH   7   8
ENDBRANCH   1   7
BRANCH   3  18
HETATM   18  N   UNL     1      24.999  45.777  50.049  1.00  0.00    -0.264 N 
HETATM   19  C   UNL     1      26.309  45.353  50.028  1.00  0.00     0.260 C 
HETATM   20  O   UNL     1      27.099  45.860  49.232  1.00  0.00    -0.269 OA
HETATM   21  H   UNL     1      24.773  46.464  49.335  1.00  0.00     0.190 HD
BRANCH  19  22
HETATM   22  C   UNL     1      26.743  44.317  51.063  1.00  0.00     0.280 C 
BRANCH  22  23
HETATM   23  O   UNL     1      26.452  44.751  52.395  1.00  0.00    -0.342 OA
BRANCH  23  24
HETATM   24  C   UNL     1      27.507  44.519  53.234  1.00  0.00     0.069 A 
HETATM   25  C   UNL     1      27.696  45.322  54.358  1.00  0.00     0.038 A 
HETATM   26  C   UNL     1      28.769  45.069  55.215  1.00  0.00     0.022 A 
HETATM   27  C   UNL     1      29.625  43.999  54.954  1.00  0.00     0.011 A 
HETATM   28 BR   UNL     1      31.080  43.660  56.112  1.00  0.00    -0.051 Br
HETATM   29  C   UNL     1      29.413  43.174  53.849  1.00  0.00     0.022 A 
HETATM   30  C   UNL     1      28.342  43.430  52.989  1.00  0.00     0.038 A 
ENDBRANCH  23  24
ENDBRANCH  22  23
ENDBRANCH  19  22
ENDBRANCH   3  18
TORSDOF 8
ENDMDL
MODEL 5
REMARK VINA RESULT:      -7.8      4.182      8.563
REMARK  8 active torsions:
REMARK  status: ('A' for Active; 'I' for Inactive)
REMARK    1  A    between atoms: N_4  and  C_5 
REMARK    2  A    between atoms: C_5  and  C_6 
REMARK    3  A    between atoms: C_6  and  C_7 
REMARK    4  A    between atoms: C_7  and  N_8 
REMARK       I    between atoms: N_8  and  C_9 
REMARK       I    between atoms: C_9  and  N_10 
REMARK    5  A    between atoms: N_10  and  N_11 
REMARK       I    between atoms: N_11  and  C_12 
REMARK    6  A    between atoms: C_12  and  C_13 
REMARK    7  A    between atoms: C_13  and  O_14 
REMARK    8  A    between atoms: O_14  and  C_15 
ROOT
HETATM    1  N   UNL     1      25.975  44.234  51.012  1.00  0.00    -0.341 N 
HETATM    2  C   UNL     1      24.897  44.884  51.533  1.00  0.00     0.334 C 
HETATM    3  N   UNL     1      24.451  45.955  50.796  1.00  0.00    -0.249 N 
HETATM    4  O   UNL     1      24.316  44.557  52.562  1.00  0.00    -0.246 OA
HETATM    5  H   UNL     1      26.204  44.450  50.049  1.00  0.00     0.164 HD
HETATM    6  H   UNL     1      23.709  46.480  51.251  1.00  0.00     0.192 HD
ENDROOT
BRANCH   1   7
HETATM    7  C   UNL     1      26.453  42.965  51.527  1.00  0.00     0.130 C 
BRANCH   7   8
HETATM    8  C   UNL     1      27.756  43.108  52.340  1.00  0.00     0.019 C 
HETATM    9  C   UNL     1      28.683  41.900  52.156  1.00  0.00     0.013 C 
BRANCH   8  10
HETATM   10  C   UNL     1      27.444  43.268  53.843  1.00  0.00     0.156 C 
BRANCH  10  11
HETATM   11  N   UNL     1      27.880  44.508  54.467  1.00  0.00    -0.274 N 
HETATM   12  N   UNL     1      27.094  45.600  54.438  1.00  0.00    -0.177 NA
HETATM   13  C   UNL     1      27.816  46.551  55.038  1.00  0.00     0.053 A 
HETATM   14  C   UNL     1      27.274  47.921  55.196  1.00  0.00     0.072 C 
HETATM   15  C   UNL     1      29.076  46.064  55.445  1.00  0.00     0.055 A 
HETATM   16  C   UNL     1      29.101  44.740  55.056  1.00  0.00     0.028 A 
HETATM   17  C   UNL     1      30.164  43.716  55.194  1.00  0.00     0.070 C 
ENDBRANCH  10  11
ENDBRANCH   8  10
ENDBRANCH   7   8
ENDBRANCH   1   7
BRANCH   3  18
HETATM   18  N   UNL     1      25.297  46.669  49.932  1.00  0.00    -0.264 N 
HETATM   19  C   UNL     1      24.995  47.957  49.549  1.00  0.00     0.260 C 
HETATM   20  O   UNL     1      25.906  48.751  49.318  1.00  0.00    -0.269 OA
HETATM   21  H   UNL     1      26.291  46.493  50.052  1.00  0.00     0.190 HD
BRANCH  19  22
HETATM   22  C   UNL     1      23.525  48.317  49.347  1.00  0.00     0.280 C 
BRANCH  22  23
HETATM   23  O   UNL     1      23.207  49.580  49.941  1.00  0.00    -0.342 OA
BRANCH  23  24
HETATM   24  C   UNL     1      22.071  50.113  49.393  1.00  0.00     0.069 A 
HETATM   25  C   UNL     1      21.209  50.877  50.178  1.00  0.00     0.038 A 
HETATM   26  C   UNL     1      20.059  51.426  49.608  1.00  0.00     0.022 A 
HETATM   27  C   UNL     1      19.798  51.227  48.252  1.00  0.00     0.011 A 
HETATM   28 BR   UNL     1      18.239  51.967  47.481  1.00  0.00    -0.051 Br
HETATM   29  C   UNL     1      20.680  50.492  47.460  1.00  0.00     0.022 A 
HETATM   30  C   UNL     1      21.828  49.939  48.032  1.00  0.00     0.038 A 
ENDBRANCH  23  24
ENDBRANCH  22  23
ENDBRANCH  19  22
ENDBRANCH   3  18
TORSDOF 8
ENDMDL
MODEL 6
REMARK VINA RESULT:      -7.7      2.871      4.531
REMARK  8 active torsions:
REMARK  status: ('A' for Active; 'I' for Inactive)
REMARK    1  A    between atoms: N_4  and  C_5 
REMARK    2  A    between atoms: C_5  and  C_6 
REMARK    3  A    between atoms: C_6  and  C_7 
REMARK    4  A    between atoms: C_7  and  N_8 
REMARK       I    between atoms: N_8  and  C_9 
REMARK       I    between atoms: C_9  and  N_10 
REMARK    5  A    between atoms: N_10  and  N_11 
REMARK       I    between atoms: N_11  and  C_12 
REMARK    6  A    between atoms: C_12  and  C_13 
REMARK    7  A    between atoms: C_13  and  O_14 
REMARK    8  A    between atoms: O_14  and  C_15 
ROOT
HETATM    1  N   UNL     1      24.236  47.234  49.828  1.00  0.00    -0.341 N 
HETATM    2  C   UNL     1      25.544  47.095  50.181  1.00  0.00     0.334 C 
HETATM    3  N   UNL     1      26.053  45.826  50.042  1.00  0.00    -0.249 N 
HETATM    4  O   UNL     1      26.263  48.011  50.568  1.00  0.00    -0.246 OA
HETATM    5  H   UNL     1      23.832  46.469  49.301  1.00  0.00     0.164 HD
HETATM    6  H   UNL     1      26.999  45.727  50.400  1.00  0.00     0.192 HD
ENDROOT
BRANCH   1   7
HETATM    7  C   UNL     1      23.587  48.526  49.702  1.00  0.00     0.130 C 
BRANCH   7   8
HETATM    8  C   UNL     1      23.543  49.028  48.245  1.00  0.00     0.019 C 
HETATM    9  C   UNL     1      24.597  50.111  47.979  1.00  0.00     0.013 C 
BRANCH   8  10
HETATM   10  C   UNL     1      22.150  49.600  47.908  1.00  0.00     0.156 C 
BRANCH  10  11
HETATM   11  N   UNL     1      21.007  48.900  48.475  1.00  0.00    -0.274 N 
HETATM   12  N   UNL     1      20.405  49.364  49.585  1.00  0.00    -0.177 NA
HETATM   13  C   UNL     1      19.454  48.464  49.854  1.00  0.00     0.053 A 
HETATM   14  C   UNL     1      18.567  48.633  51.028  1.00  0.00     0.072 C 
HETATM   15  C   UNL     1      19.457  47.413  48.912  1.00  0.00     0.055 A 
HETATM   16  C   UNL     1      20.478  47.710  48.033  1.00  0.00     0.028 A 
HETATM   17  C   UNL     1      20.974  46.971  46.849  1.00  0.00     0.070 C 
ENDBRANCH  10  11
ENDBRANCH   8  10
ENDBRANCH   7   8
ENDBRANCH   1   7
BRANCH   3  18
HETATM   18  N   UNL     1      25.234  44.686  50.088  1.00  0.00    -0.264 N 
HETATM   19  C   UNL     1      25.277  43.824  51.161  1.00  0.00     0.260 C 
HETATM   20  O   UNL     1      24.259  43.220  51.496  1.00  0.00    -0.269 OA
HETATM   21  H   UNL     1      24.309  44.797  49.681  1.00  0.00     0.190 HD
BRANCH  19  22
HETATM   22  C   UNL     1      26.626  43.596  51.841  1.00  0.00     0.280 C 
BRANCH  22  23
HETATM   23  O   UNL     1      27.076  44.770  52.523  1.00  0.00    -0.342 OA
BRANCH  23  24
HETATM   24  C   UNL     1      28.043  44.468  53.443  1.00  0.00     0.069 A 
HETATM   25  C   UNL     1      28.893  43.383  53.234  1.00  0.00     0.038 A 
HETATM   26  C   UNL     1      29.884  43.090  54.172  1.00  0.00     0.022 A 
HETATM   27  C   UNL     1      30.032  43.902  55.297  1.00  0.00     0.011 A 
HETATM   28 BR   UNL     1      31.371  43.503  56.571  1.00  0.00    -0.051 Br
HETATM   29  C   UNL     1      29.204  45.009  55.487  1.00  0.00     0.022 A 
HETATM   30  C   UNL     1      28.210  45.299  54.550  1.00  0.00     0.038 A 
ENDBRANCH  23  24
ENDBRANCH  22  23
ENDBRANCH  19  22
ENDBRANCH   3  18
TORSDOF 8
ENDMDL
MODEL 7
REMARK VINA RESULT:      -7.5      2.768      4.146
REMARK  8 active torsions:
REMARK  status: ('A' for Active; 'I' for Inactive)
REMARK    1  A    between atoms: N_4  and  C_5 
REMARK    2  A    between atoms: C_5  and  C_6 
REMARK    3  A    between atoms: C_6  and  C_7 
REMARK    4  A    between atoms: C_7  and  N_8 
REMARK       I    between atoms: N_8  and  C_9 
REMARK       I    between atoms: C_9  and  N_10 
REMARK    5  A    between atoms: N_10  and  N_11 
REMARK       I    between atoms: N_11  and  C_12 
REMARK    6  A    between atoms: C_12  and  C_13 
REMARK    7  A    between atoms: C_13  and  O_14 
REMARK    8  A    between atoms: O_14  and  C_15 
ROOT
HETATM    1  N   UNL     1      24.634  47.014  49.565  1.00  0.00    -0.341 N 
HETATM    2  C   UNL     1      25.423  46.910  50.672  1.00  0.00     0.334 C 
HETATM    3  N   UNL     1      26.523  46.100  50.528  1.00  0.00    -0.249 N 
HETATM    4  O   UNL     1      25.223  47.500  51.728  1.00  0.00    -0.246 OA
HETATM    5  H   UNL     1      25.036  46.678  48.698  1.00  0.00     0.164 HD
HETATM    6  H   UNL     1      27.041  45.962  51.392  1.00  0.00     0.192 HD
ENDROOT
BRANCH   1   7
HETATM    7  C   UNL     1      23.557  47.980  49.454  1.00  0.00     0.130 C 
BRANCH   7   8
HETATM    8  C   UNL     1      22.299  47.390  48.785  1.00  0.00     0.019 C 
HETATM    9  C   UNL     1      22.600  46.073  48.060  1.00  0.00     0.013 C 
BRANCH   8  10
HETATM   10  C   UNL     1      21.702  48.388  47.772  1.00  0.00     0.156 C 
BRANCH  10  11
HETATM   11  N   UNL     1      20.905  49.474  48.323  1.00  0.00    -0.274 N 
HETATM   12  N   UNL     1      19.602  49.289  48.604  1.00  0.00    -0.177 NA
HETATM   13  C   UNL     1      19.176  50.482  49.028  1.00  0.00     0.053 A 
HETATM   14  C   UNL     1      17.764  50.678  49.433  1.00  0.00     0.072 C 
HETATM   15  C   UNL     1      20.213  51.438  49.009  1.00  0.00     0.055 A 
HETATM   16  C   UNL     1      21.323  50.765  48.539  1.00  0.00     0.028 A 
HETATM   17  C   UNL     1      22.702  51.245  48.285  1.00  0.00     0.070 C 
ENDBRANCH  10  11
ENDBRANCH   8  10
ENDBRANCH   7   8
ENDBRANCH   1   7
BRANCH   3  18
HETATM   18  N   UNL     1      26.562  45.054  49.591  1.00  0.00    -0.264 N 
HETATM   19  C   UNL     1      26.816  43.759  49.984  1.00  0.00     0.260 C 
HETATM   20  O   UNL     1      26.308  42.826  49.363  1.00  0.00    -0.269 OA
HETATM   21  H   UNL     1      25.902  45.134  48.822  1.00  0.00     0.190 HD
BRANCH  19  22
HETATM   22  C   UNL     1      27.794  43.540  51.137  1.00  0.00     0.280 C 
BRANCH  22  23
HETATM   23  O   UNL     1      27.262  44.018  52.376  1.00  0.00    -0.342 OA
BRANCH  23  24
HETATM   24  C   UNL     1      28.198  43.963  53.372  1.00  0.00     0.069 A 
HETATM   25  C   UNL     1      29.169  42.962  53.364  1.00  0.00     0.038 A 
HETATM   26  C   UNL     1      30.127  42.920  54.378  1.00  0.00     0.022 A 
HETATM   27  C   UNL     1      30.121  43.897  55.374  1.00  0.00     0.011 A 
HETATM   28 BR   UNL     1      31.416  43.838  56.750  1.00  0.00    -0.051 Br
HETATM   29  C   UNL     1      29.171  44.919  55.361  1.00  0.00     0.022 A 
HETATM   30  C   UNL     1      28.210  44.957  54.348  1.00  0.00     0.038 A 
ENDBRANCH  23  24
ENDBRANCH  22  23
ENDBRANCH  19  22
ENDBRANCH   3  18
TORSDOF 8
ENDMDL
MODEL 8
REMARK VINA RESULT:      -7.4      2.649      3.913
REMARK  8 active torsions:
REMARK  status: ('A' for Active; 'I' for Inactive)
REMARK    1  A    between atoms: N_4  and  C_5 
REMARK    2  A    between atoms: C_5  and  C_6 
REMARK    3  A    between atoms: C_6  and  C_7 
REMARK    4  A    between atoms: C_7  and  N_8 
REMARK       I    between atoms: N_8  and  C_9 
REMARK       I    between atoms: C_9  and  N_10 
REMARK    5  A    between atoms: N_10  and  N_11 
REMARK       I    between atoms: N_11  and  C_12 
REMARK    6  A    between atoms: C_12  and  C_13 
REMARK    7  A    between atoms: C_13  and  O_14 
REMARK    8  A    between atoms: O_14  and  C_15 
ROOT
HETATM    1  N   UNL     1      22.731  44.990  48.768  1.00  0.00    -0.341 N 
HETATM    2  C   UNL     1      23.271  43.757  48.982  1.00  0.00     0.334 C 
HETATM    3  N   UNL     1      24.586  43.759  49.381  1.00  0.00    -0.249 N 
HETATM    4  O   UNL     1      22.659  42.699  48.870  1.00  0.00    -0.246 OA
HETATM    5  H   UNL     1      23.259  45.776  49.126  1.00  0.00     0.164 HD
HETATM    6  H   UNL     1      24.992  42.829  49.441  1.00  0.00     0.192 HD
ENDROOT
BRANCH   1   7
HETATM    7  C   UNL     1      21.312  45.201  48.552  1.00  0.00     0.130 C 
BRANCH   7   8
HETATM    8  C   UNL     1      20.972  46.675  48.248  1.00  0.00     0.019 C 
HETATM    9  C   UNL     1      20.816  46.928  46.743  1.00  0.00     0.013 C 
BRANCH   8  10
HETATM   10  C   UNL     1      22.068  47.611  48.796  1.00  0.00     0.156 C 
BRANCH  10  11
HETATM   11  N   UNL     1      21.709  49.014  48.941  1.00  0.00    -0.274 N 
HETATM   12  N   UNL     1      20.517  49.364  49.459  1.00  0.00    -0.177 NA
HETATM   13  C   UNL     1      20.499  50.698  49.391  1.00  0.00     0.053 A 
HETATM   14  C   UNL     1      19.324  51.461  49.873  1.00  0.00     0.072 C 
HETATM   15  C   UNL     1      21.685  51.202  48.816  1.00  0.00     0.055 A 
HETATM   16  C   UNL     1      22.451  50.093  48.523  1.00  0.00     0.028 A 
HETATM   17  C   UNL     1      23.788  49.987  47.892  1.00  0.00     0.070 C 
ENDBRANCH  10  11
ENDBRANCH   8  10
ENDBRANCH   7   8
ENDBRANCH   1   7
BRANCH   3  18
HETATM   18  N   UNL     1      25.458  44.814  49.068  1.00  0.00    -0.264 N 
HETATM   19  C   UNL     1      26.563  45.074  49.847  1.00  0.00     0.260 C 
HETATM   20  O   UNL     1      27.577  45.540  49.326  1.00  0.00    -0.269 OA
HETATM   21  H   UNL     1      25.599  44.983  48.075  1.00  0.00     0.190 HD
BRANCH  19  22
HETATM   22  C   UNL     1      26.447  44.846  51.352  1.00  0.00     0.280 C 
BRANCH  22  23
HETATM   23  O   UNL     1      26.892  43.537  51.721  1.00  0.00    -0.342 OA
BRANCH  23  24
HETATM   24  C   UNL     1      27.831  43.595  52.715  1.00  0.00     0.069 A 
HETATM   25  C   UNL     1      28.907  42.707  52.712  1.00  0.00     0.038 A 
HETATM   26  C   UNL     1      29.866  42.780  53.723  1.00  0.00     0.022 A 
HETATM   27  C   UNL     1      29.755  43.759  54.711  1.00  0.00     0.011 A 
HETATM   28 BR   UNL     1      31.052  43.856  56.082  1.00  0.00    -0.051 Br
HETATM   29  C   UNL     1      28.698  44.670  54.692  1.00  0.00     0.022 A 
HETATM   30  C   UNL     1      27.736  44.593  53.683  1.00  0.00     0.038 A 
ENDBRANCH  23  24
ENDBRANCH  22  23
ENDBRANCH  19  22
ENDBRANCH   3  18
TORSDOF 8
ENDMDL
MODEL 9
REMARK VINA RESULT:      -7.4      3.474      5.342
REMARK  8 active torsions:
REMARK  status: ('A' for Active; 'I' for Inactive)
REMARK    1  A    between atoms: N_4  and  C_5 
REMARK    2  A    between atoms: C_5  and  C_6 
REMARK    3  A    between atoms: C_6  and  C_7 
REMARK    4  A    between atoms: C_7  and  N_8 
REMARK       I    between atoms: N_8  and  C_9 
REMARK       I    between atoms: C_9  and  N_10 
REMARK    5  A    between atoms: N_10  and  N_11 
REMARK       I    between atoms: N_11  and  C_12 
REMARK    6  A    between atoms: C_12  and  C_13 
REMARK    7  A    between atoms: C_13  and  O_14 
REMARK    8  A    between atoms: O_14  and  C_15 
ROOT
HETATM    1  N   UNL     1      22.753  47.495  49.457  1.00  0.00    -0.341 N 
HETATM    2  C   UNL     1      24.030  47.870  49.748  1.00  0.00     0.334 C 
HETATM    3  N   UNL     1      24.853  46.855  50.172  1.00  0.00    -0.249 N 
HETATM    4  O   UNL     1      24.467  49.010  49.626  1.00  0.00    -0.246 OA
HETATM    5  H   UNL     1      22.590  46.500  49.367  1.00  0.00     0.164 HD
HETATM    6  H   UNL     1      25.770  47.175  50.474  1.00  0.00     0.192 HD
ENDROOT
BRANCH   1   7
HETATM    7  C   UNL     1      21.805  48.374  48.798  1.00  0.00     0.130 C 
BRANCH   7   8
HETATM    8  C   UNL     1      20.415  47.727  48.631  1.00  0.00     0.019 C 
HETATM    9  C   UNL     1      20.032  47.565  47.155  1.00  0.00     0.013 C 
BRANCH   8  10
HETATM   10  C   UNL     1      19.333  48.574  49.333  1.00  0.00     0.156 C 
BRANCH  10  11
HETATM   11  N   UNL     1      19.125  49.919  48.815  1.00  0.00    -0.274 N 
HETATM   12  N   UNL     1      18.337  50.123  47.744  1.00  0.00    -0.177 NA
HETATM   13  C   UNL     1      18.418  51.436  47.512  1.00  0.00     0.053 A 
HETATM   14  C   UNL     1      17.674  52.050  46.387  1.00  0.00     0.072 C 
HETATM   15  C   UNL     1      19.272  52.073  48.437  1.00  0.00     0.055 A 
HETATM   16  C   UNL     1      19.728  51.069  49.267  1.00  0.00     0.028 A 
HETATM   17  C   UNL     1      20.665  51.119  50.414  1.00  0.00     0.070 C 
ENDBRANCH  10  11
ENDBRANCH   8  10
ENDBRANCH   7   8
ENDBRANCH   1   7
BRANCH   3  18
HETATM   18  N   UNL     1      24.351  45.697  50.788  1.00  0.00    -0.264 N 
HETATM   19  C   UNL     1      25.078  45.033  51.750  1.00  0.00     0.260 C 
HETATM   20  O   UNL     1      24.491  44.440  52.655  1.00  0.00    -0.269 OA
HETATM   21  H   UNL     1      23.346  45.687  50.945  1.00  0.00     0.190 HD
BRANCH  19  22
HETATM   22  C   UNL     1      26.598  44.996  51.600  1.00  0.00     0.280 C 
BRANCH  22  23
HETATM   23  O   UNL     1      27.114  43.677  51.804  1.00  0.00    -0.342 OA
BRANCH  23  24
HETATM   24  C   UNL     1      28.044  43.659  52.808  1.00  0.00     0.069 A 
HETATM   25  C   UNL     1      29.220  42.925  52.659  1.00  0.00     0.038 A 
HETATM   26  C   UNL     1      30.167  42.921  53.684  1.00  0.00     0.022 A 
HETATM   27  C   UNL     1      29.941  43.674  54.836  1.00  0.00     0.011 A 
HETATM   28 BR   UNL     1      31.222  43.666  56.226  1.00  0.00    -0.051 Br
HETATM   29  C   UNL     1      28.780  44.437  54.969  1.00  0.00     0.022 A 
HETATM   30  C   UNL     1      27.830  44.436  53.945  1.00  0.00     0.038 A 
ENDBRANCH  23  24
ENDBRANCH  22  23
ENDBRANCH  19  22
ENDBRANCH   3  18
TORSDOF 8
ENDMDL
MODEL 10
REMARK VINA RESULT:      -7.3     11.665     14.064
REMARK  8 active torsions:
REMARK  status: ('A' for Active; 'I' for Inactive)
REMARK    1  A    between atoms: N_4  and  C_5 
REMARK    2  A    between atoms: C_5  and  C_6 
REMARK    3  A    between atoms: C_6  and  C_7 
REMARK    4  A    between atoms: C_7  and  N_8 
REMARK       I    between atoms: N_8  and  C_9 
REMARK       I    between atoms: C_9  and  N_10 
REMARK    5  A    between atoms: N_10  and  N_11 
REMARK       I    between atoms: N_11  and  C_12 
REMARK    6  A    between atoms: C_12  and  C_13 
REMARK    7  A    between atoms: C_13  and  O_14 
REMARK    8  A    between atoms: O_14  and  C_15 
ROOT
HETATM    1  N   UNL     1      27.281  48.654  39.485  1.00  0.00    -0.341 N 
HETATM    2  C   UNL     1      26.083  49.252  39.235  1.00  0.00     0.334 C 
HETATM    3  N   UNL     1      25.967  50.540  39.699  1.00  0.00    -0.249 N 
HETATM    4  O   UNL     1      25.158  48.730  38.619  1.00  0.00    -0.246 OA
HETATM    5  H   UNL     1      28.032  49.266  39.780  1.00  0.00     0.164 HD
HETATM    6  H   UNL     1      25.035  50.929  39.586  1.00  0.00     0.192 HD
ENDROOT
BRANCH   1   7
HETATM    7  C   UNL     1      27.667  47.386  38.894  1.00  0.00     0.130 C 
BRANCH   7   8
HETATM    8  C   UNL     1      29.197  47.225  38.783  1.00  0.00     0.019 C 
HETATM    9  C   UNL     1      29.589  46.188  37.723  1.00  0.00     0.013 C 
BRANCH   8  10
HETATM   10  C   UNL     1      29.800  46.800  40.137  1.00  0.00     0.156 C 
BRANCH  10  11
HETATM   11  N   UNL     1      30.690  47.756  40.780  1.00  0.00    -0.274 N 
HETATM   12  N   UNL     1      32.005  47.762  40.496  1.00  0.00    -0.177 NA
HETATM   13  C   UNL     1      32.517  48.705  41.291  1.00  0.00     0.053 A 
HETATM   14  C   UNL     1      33.968  49.006  41.266  1.00  0.00     0.072 C 
HETATM   15  C   UNL     1      31.523  49.299  42.095  1.00  0.00     0.055 A 
HETATM   16  C   UNL     1      30.347  48.662  41.755  1.00  0.00     0.028 A 
HETATM   17  C   UNL     1      28.970  48.842  42.274  1.00  0.00     0.070 C 
ENDBRANCH  10  11
ENDBRANCH   8  10
ENDBRANCH   7   8
ENDBRANCH   1   7
BRANCH   3  18
HETATM   18  N   UNL     1      26.725  51.013  40.782  1.00  0.00    -0.264 N 
HETATM   19  C   UNL     1      27.622  52.046  40.622  1.00  0.00     0.260 C 
HETATM   20  O   UNL     1      27.832  52.817  41.558  1.00  0.00    -0.269 OA
HETATM   21  H   UNL     1      26.251  51.009  41.681  1.00  0.00     0.190 HD
BRANCH  19  22
HETATM   22  C   UNL     1      28.381  52.137  39.301  1.00  0.00     0.280 C 
BRANCH  22  23
HETATM   23  O   UNL     1      29.248  51.014  39.114  1.00  0.00    -0.342 OA
BRANCH  23  24
HETATM   24  C   UNL     1      30.563  51.384  39.193  1.00  0.00     0.069 A 
HETATM   25  C   UNL     1      30.979  52.281  40.175  1.00  0.00     0.038 A 
HETATM   26  C   UNL     1      32.325  52.643  40.255  1.00  0.00     0.022 A 
HETATM   27  C   UNL     1      33.244  52.084  39.367  1.00  0.00     0.011 A 
HETATM   28 BR   UNL     1      35.066  52.578  39.471  1.00  0.00    -0.051 Br
HETATM   29  C   UNL     1      32.832  51.159  38.407  1.00  0.00     0.022 A 
HETATM   30  C   UNL     1      31.485  50.800  38.325  1.00  0.00     0.038 A 
ENDBRANCH  23  24
ENDBRANCH  22  23
ENDBRANCH  19  22
ENDBRANCH   3  18
TORSDOF 8
ENDMDL
