MODEL 1
REMARK VINA RESULT:      -9.6      0.000      0.000
REMARK  8 active torsions:
REMARK  status: ('A' for Active; 'I' for Inactive)
REMARK    1  A    between atoms: C_2  and  N_3 
REMARK    2  A    between atoms: N_3  and  C_5 
REMARK    3  A    between atoms: N_3  and  C_30 
REMARK    4  A    between atoms: C_5  and  C_6 
REMARK    5  A    between atoms: C_6  and  N_7 
REMARK       I    between atoms: N_7  and  C_8 
REMARK    6  A    between atoms: C_8  and  C_9 
REMARK    7  A    between atoms: C_9  and  O_10 
REMARK    8  A    between atoms: N_11  and  C_12 
ROOT
HETATM    1  C   UNL     1      26.769  44.327  53.307  1.00  0.00     0.256 C 
HETATM    2  N   UNL     1      27.582  45.323  54.043  1.00  0.00    -0.254 N 
HETATM    3  C   UNL     1      27.278  46.679  53.965  1.00  0.00     0.330 C 
HETATM    4  O   UNL     1      27.749  47.561  54.679  1.00  0.00    -0.246 OA
HETATM    5  N   UNL     1      26.404  47.085  53.007  1.00  0.00    -0.308 N 
HETATM    6  C   UNL     1      25.718  46.272  52.126  1.00  0.00     0.048 A 
HETATM    7  C   UNL     1      25.854  44.899  52.240  1.00  0.00     0.034 A 
HETATM    8  C   UNL     1      24.883  46.845  51.165  1.00  0.00     0.030 A 
HETATM    9  C   UNL     1      24.164  46.026  50.296  1.00  0.00     0.002 A 
HETATM   10  C   UNL     1      24.266  44.642  50.408  1.00  0.00     0.001 A 
HETATM   11  C   UNL     1      25.096  44.081  51.380  1.00  0.00     0.015 A 
HETATM   12  H   UNL     1      26.246  48.086  52.993  1.00  0.00     0.170 HD
ENDROOT
BRANCH   1  13
HETATM   13  C   UNL     1      27.754  43.310  52.542  1.00  0.00     0.279 C 
HETATM   14  N   UNL     1      27.640  41.967  52.900  1.00  0.00    -0.355 N 
HETATM   15  H   UNL     1      26.774  41.692  53.359  1.00  0.00     0.162 HD
HETATM   16  O   UNL     1      28.661  43.659  51.782  1.00  0.00    -0.268 OA
BRANCH  14  17
HETATM   17  C   UNL     1      28.427  40.972  52.204  1.00  0.00     0.150 C 
BRANCH  17  18
HETATM   18  C   UNL     1      27.730  40.473  50.923  1.00  0.00     0.254 C 
BRANCH  18  19
HETATM   19  N   UNL     1      28.684  39.920  49.870  1.00  0.00    -0.070 N 
HETATM   20  H   UNL     1      29.614  40.270  50.135  1.00  0.00     0.279 HD
BRANCH  19  21
HETATM   21  C   UNL     1      28.423  40.486  48.478  1.00  0.00     0.230 C 
HETATM   22  C   UNL     1      27.290  41.497  48.511  1.00  0.00     0.034 C 
ENDBRANCH  19  21
BRANCH  19  23
HETATM   23  C   UNL     1      28.812  38.410  49.842  1.00  0.00     0.230 C 
HETATM   24  C   UNL     1      29.979  37.940  50.691  1.00  0.00     0.034 C 
ENDBRANCH  19  23
ENDBRANCH  18  19
ENDBRANCH  17  18
ENDBRANCH  14  17
ENDBRANCH   1  13
BRANCH   1  25
HETATM   25  O   UNL     1      25.898  43.718  54.242  1.00  0.00    -0.359 OA
HETATM   26  H   UNL     1      26.384  43.727  55.083  1.00  0.00     0.213 HD
ENDBRANCH   1  25
BRANCH   2  27
HETATM   27  C   UNL     1      28.666  44.866  54.905  1.00  0.00     0.043 A 
HETATM   28  C   UNL     1      29.005  45.571  56.073  1.00  0.00     0.037 A 
HETATM   29  C   UNL     1      30.086  45.201  56.898  1.00  0.00    -0.054 A 
HETATM   30  C   UNL     1      30.374  46.012  58.134  1.00  0.00     0.049 C 
HETATM   31  C   UNL     1      30.879  44.101  56.541  1.00  0.00    -0.056 A 
HETATM   32  C   UNL     1      32.031  43.647  57.393  1.00  0.00     0.049 C 
HETATM   33  C   UNL     1      30.553  43.386  55.383  1.00  0.00     0.009 A 
HETATM   34  C   UNL     1      29.472  43.766  54.576  1.00  0.00     0.030 A 
ENDBRANCH   2  27
TORSDOF 8
ENDMDL
MODEL 2
REMARK VINA RESULT:      -9.3      2.392      7.658
REMARK  8 active torsions:
REMARK  status: ('A' for Active; 'I' for Inactive)
REMARK    1  A    between atoms: C_2  and  N_3 
REMARK    2  A    between atoms: N_3  and  C_5 
REMARK    3  A    between atoms: N_3  and  C_30 
REMARK    4  A    between atoms: C_5  and  C_6 
REMARK    5  A    between atoms: C_6  and  N_7 
REMARK       I    between atoms: N_7  and  C_8 
REMARK    6  A    between atoms: C_8  and  C_9 
REMARK    7  A    between atoms: C_9  and  O_10 
REMARK    8  A    between atoms: N_11  and  C_12 
ROOT
HETATM    1  C   UNL     1      26.662  43.728  52.050  1.00  0.00     0.256 C 
HETATM    2  N   UNL     1      27.270  42.451  51.612  1.00  0.00    -0.254 N 
HETATM    3  C   UNL     1      28.256  41.838  52.379  1.00  0.00     0.330 C 
HETATM    4  O   UNL     1      28.681  40.696  52.220  1.00  0.00    -0.246 OA
HETATM    5  N   UNL     1      28.825  42.556  53.381  1.00  0.00    -0.308 N 
HETATM    6  C   UNL     1      28.479  43.835  53.773  1.00  0.00     0.048 A 
HETATM    7  C   UNL     1      27.407  44.456  53.154  1.00  0.00     0.034 A 
HETATM    8  C   UNL     1      29.192  44.460  54.798  1.00  0.00     0.030 A 
HETATM    9  C   UNL     1      28.823  45.737  55.217  1.00  0.00     0.002 A 
HETATM   10  C   UNL     1      27.733  46.371  54.627  1.00  0.00     0.001 A 
HETATM   11  C   UNL     1      27.022  45.730  53.611  1.00  0.00     0.015 A 
HETATM   12  H   UNL     1      29.550  42.056  53.884  1.00  0.00     0.170 HD
ENDROOT
BRANCH   1  13
HETATM   13  C   UNL     1      26.623  44.746  50.803  1.00  0.00     0.279 C 
HETATM   14  N   UNL     1      25.368  45.254  50.471  1.00  0.00    -0.355 N 
HETATM   15  H   UNL     1      24.653  45.204  51.194  1.00  0.00     0.162 HD
HETATM   16  O   UNL     1      27.587  44.986  50.071  1.00  0.00    -0.268 OA
BRANCH  14  17
HETATM   17  C   UNL     1      25.252  46.239  49.417  1.00  0.00     0.150 C 
BRANCH  17  18
HETATM   18  C   UNL     1      25.427  47.676  49.945  1.00  0.00     0.254 C 
BRANCH  18  19
HETATM   19  N   UNL     1      25.211  48.757  48.891  1.00  0.00    -0.070 N 
HETATM   20  H   UNL     1      25.142  48.254  47.997  1.00  0.00     0.279 HD
BRANCH  19  21
HETATM   21  C   UNL     1      26.412  49.685  48.739  1.00  0.00     0.230 C 
HETATM   22  C   UNL     1      27.699  48.966  49.107  1.00  0.00     0.034 C 
ENDBRANCH  19  21
BRANCH  19  23
HETATM   23  C   UNL     1      23.919  49.537  49.019  1.00  0.00     0.230 C 
HETATM   24  C   UNL     1      23.718  50.470  47.839  1.00  0.00     0.034 C 
ENDBRANCH  19  23
ENDBRANCH  18  19
ENDBRANCH  17  18
ENDBRANCH  14  17
ENDBRANCH   1  13
BRANCH   1  25
HETATM   25  O   UNL     1      25.396  43.425  52.607  1.00  0.00    -0.359 OA
HETATM   26  H   UNL     1      25.254  42.484  52.415  1.00  0.00     0.213 HD
ENDBRANCH   1  25
BRANCH   2  27
HETATM   27  C   UNL     1      26.781  41.805  50.399  1.00  0.00     0.043 A 
HETATM   28  C   UNL     1      27.636  41.578  49.307  1.00  0.00     0.037 A 
HETATM   29  C   UNL     1      27.189  41.016  48.094  1.00  0.00    -0.054 A 
HETATM   30  C   UNL     1      28.177  40.805  46.977  1.00  0.00     0.049 C 
HETATM   31  C   UNL     1      25.834  40.686  47.947  1.00  0.00    -0.056 A 
HETATM   32  C   UNL     1      25.304  40.065  46.685  1.00  0.00     0.049 C 
HETATM   33  C   UNL     1      24.970  40.902  49.026  1.00  0.00     0.009 A 
HETATM   34  C   UNL     1      25.432  41.459  50.226  1.00  0.00     0.030 A 
ENDBRANCH   2  27
TORSDOF 8
ENDMDL
MODEL 3
REMARK VINA RESULT:      -9.2      2.248      6.256
REMARK  8 active torsions:
REMARK  status: ('A' for Active; 'I' for Inactive)
REMARK    1  A    between atoms: C_2  and  N_3 
REMARK    2  A    between atoms: N_3  and  C_5 
REMARK    3  A    between atoms: N_3  and  C_30 
REMARK    4  A    between atoms: C_5  and  C_6 
REMARK    5  A    between atoms: C_6  and  N_7 
REMARK       I    between atoms: N_7  and  C_8 
REMARK    6  A    between atoms: C_8  and  C_9 
REMARK    7  A    between atoms: C_9  and  O_10 
REMARK    8  A    between atoms: N_11  and  C_12 
ROOT
HETATM    1  C   UNL     1      27.111  43.826  51.357  1.00  0.00     0.256 C 
HETATM    2  N   UNL     1      25.733  44.083  51.834  1.00  0.00    -0.254 N 
HETATM    3  C   UNL     1      25.484  44.309  53.184  1.00  0.00     0.330 C 
HETATM    4  O   UNL     1      24.430  44.725  53.659  1.00  0.00    -0.246 OA
HETATM    5  N   UNL     1      26.474  44.032  54.073  1.00  0.00    -0.308 N 
HETATM    6  C   UNL     1      27.751  43.602  53.769  1.00  0.00     0.048 A 
HETATM    7  C   UNL     1      28.121  43.494  52.440  1.00  0.00     0.034 A 
HETATM    8  C   UNL     1      28.646  43.315  54.801  1.00  0.00     0.030 A 
HETATM    9  C   UNL     1      29.946  42.912  54.498  1.00  0.00     0.002 A 
HETATM   10  C   UNL     1      30.348  42.822  53.168  1.00  0.00     0.001 A 
HETATM   11  C   UNL     1      29.446  43.122  52.146  1.00  0.00     0.015 A 
HETATM   12  H   UNL     1      26.217  44.200  55.039  1.00  0.00     0.170 HD
ENDROOT
BRANCH   1  13
HETATM   13  C   UNL     1      27.095  42.556  50.368  1.00  0.00     0.279 C 
HETATM   14  N   UNL     1      26.932  41.312  50.977  1.00  0.00    -0.355 N 
HETATM   15  H   UNL     1      26.536  41.314  51.915  1.00  0.00     0.162 HD
HETATM   16  O   UNL     1      27.343  42.611  49.160  1.00  0.00    -0.268 OA
BRANCH  14  17
HETATM   17  C   UNL     1      26.823  40.124  50.158  1.00  0.00     0.150 C 
BRANCH  17  18
HETATM   18  C   UNL     1      28.195  39.477  49.887  1.00  0.00     0.254 C 
BRANCH  18  19
HETATM   19  N   UNL     1      28.271  38.000  50.256  1.00  0.00    -0.070 N 
HETATM   20  H   UNL     1      27.870  37.935  51.200  1.00  0.00     0.279 HD
BRANCH  19  21
HETATM   21  C   UNL     1      29.704  37.495  50.391  1.00  0.00     0.230 C 
HETATM   22  C   UNL     1      29.849  36.605  51.614  1.00  0.00     0.034 C 
ENDBRANCH  19  21
BRANCH  19  23
HETATM   23  C   UNL     1      27.435  37.075  49.395  1.00  0.00     0.230 C 
HETATM   24  C   UNL     1      27.774  37.233  47.924  1.00  0.00     0.034 C 
ENDBRANCH  19  23
ENDBRANCH  18  19
ENDBRANCH  17  18
ENDBRANCH  14  17
ENDBRANCH   1  13
BRANCH   1  25
HETATM   25  O   UNL     1      27.587  45.024  50.773  1.00  0.00    -0.359 OA
HETATM   26  H   UNL     1      27.212  45.035  49.876  1.00  0.00     0.213 HD
ENDBRANCH   1  25
BRANCH   2  27
HETATM   27  C   UNL     1      24.643  44.161  50.867  1.00  0.00     0.043 A 
HETATM   28  C   UNL     1      24.311  45.381  50.252  1.00  0.00     0.037 A 
HETATM   29  C   UNL     1      23.225  45.513  49.364  1.00  0.00    -0.054 A 
HETATM   30  C   UNL     1      22.944  46.859  48.747  1.00  0.00     0.049 C 
HETATM   31  C   UNL     1      22.421  44.398  49.088  1.00  0.00    -0.056 A 
HETATM   32  C   UNL     1      21.264  44.475  48.133  1.00  0.00     0.049 C 
HETATM   33  C   UNL     1      22.740  43.176  49.690  1.00  0.00     0.009 A 
HETATM   34  C   UNL     1      23.825  43.060  50.569  1.00  0.00     0.030 A 
ENDBRANCH   2  27
TORSDOF 8
ENDMDL
MODEL 4
REMARK VINA RESULT:      -9.2      1.486      2.779
REMARK  8 active torsions:
REMARK  status: ('A' for Active; 'I' for Inactive)
REMARK    1  A    between atoms: C_2  and  N_3 
REMARK    2  A    between atoms: N_3  and  C_5 
REMARK    3  A    between atoms: N_3  and  C_30 
REMARK    4  A    between atoms: C_5  and  C_6 
REMARK    5  A    between atoms: C_6  and  N_7 
REMARK       I    between atoms: N_7  and  C_8 
REMARK    6  A    between atoms: C_8  and  C_9 
REMARK    7  A    between atoms: C_9  and  O_10 
REMARK    8  A    between atoms: N_11  and  C_12 
ROOT
HETATM    1  C   UNL     1      25.405  44.076  51.699  1.00  0.00     0.256 C 
HETATM    2  N   UNL     1      26.190  45.204  52.251  1.00  0.00    -0.254 N 
HETATM    3  C   UNL     1      25.833  46.519  51.966  1.00  0.00     0.330 C 
HETATM    4  O   UNL     1      26.281  47.520  52.522  1.00  0.00    -0.246 OA
HETATM    5  N   UNL     1      24.930  46.736  50.975  1.00  0.00    -0.308 N 
HETATM    6  C   UNL     1      24.263  45.770  50.248  1.00  0.00     0.048 A 
HETATM    7  C   UNL     1      24.454  44.438  50.574  1.00  0.00     0.034 A 
HETATM    8  C   UNL     1      23.393  46.153  49.225  1.00  0.00     0.030 A 
HETATM    9  C   UNL     1      22.693  45.182  48.512  1.00  0.00     0.002 A 
HETATM   10  C   UNL     1      22.850  43.838  48.839  1.00  0.00     0.001 A 
HETATM   11  C   UNL     1      23.714  43.468  49.871  1.00  0.00     0.015 A 
HETATM   12  H   UNL     1      24.733  47.716  50.807  1.00  0.00     0.170 HD
ENDROOT
BRANCH   1  13
HETATM   13  C   UNL     1      26.417  42.986  51.084  1.00  0.00     0.279 C 
HETATM   14  N   UNL     1      26.448  41.751  51.731  1.00  0.00    -0.355 N 
HETATM   15  H   UNL     1      25.646  41.524  52.315  1.00  0.00     0.162 HD
HETATM   16  O   UNL     1      27.232  43.221  50.188  1.00  0.00    -0.268 OA
BRANCH  14  17
HETATM   17  C   UNL     1      27.267  40.684  51.196  1.00  0.00     0.150 C 
BRANCH  17  18
HETATM   18  C   UNL     1      26.512  39.843  50.149  1.00  0.00     0.254 C 
BRANCH  18  19
HETATM   19  N   UNL     1      27.395  39.301  49.030  1.00  0.00    -0.070 N 
HETATM   20  H   UNL     1      26.767  39.173  48.226  1.00  0.00     0.279 HD
BRANCH  19  21
HETATM   21  C   UNL     1      27.950  37.913  49.332  1.00  0.00     0.230 C 
HETATM   22  C   UNL     1      29.440  37.978  49.617  1.00  0.00     0.034 C 
ENDBRANCH  19  21
BRANCH  19  23
HETATM   23  C   UNL     1      28.481  40.242  48.551  1.00  0.00     0.230 C 
HETATM   24  C   UNL     1      28.158  40.804  47.179  1.00  0.00     0.034 C 
ENDBRANCH  19  23
ENDBRANCH  18  19
ENDBRANCH  17  18
ENDBRANCH  14  17
ENDBRANCH   1  13
BRANCH   1  25
HETATM   25  O   UNL     1      24.572  43.592  52.736  1.00  0.00    -0.359 OA
HETATM   26  H   UNL     1      23.856  43.116  52.284  1.00  0.00     0.213 HD
ENDBRANCH   1  25
BRANCH   2  27
HETATM   27  C   UNL     1      27.303  44.929  53.152  1.00  0.00     0.043 A 
HETATM   28  C   UNL     1      28.329  44.042  52.781  1.00  0.00     0.037 A 
HETATM   29  C   UNL     1      29.388  43.698  53.647  1.00  0.00    -0.054 A 
HETATM   30  C   UNL     1      30.447  42.742  53.163  1.00  0.00     0.049 C 
HETATM   31  C   UNL     1      29.421  44.236  54.940  1.00  0.00    -0.056 A 
HETATM   32  C   UNL     1      30.535  43.923  55.899  1.00  0.00     0.049 C 
HETATM   33  C   UNL     1      28.409  45.123  55.325  1.00  0.00     0.009 A 
HETATM   34  C   UNL     1      27.366  45.457  54.451  1.00  0.00     0.030 A 
ENDBRANCH   2  27
TORSDOF 8
ENDMDL
MODEL 5
REMARK VINA RESULT:      -9.2      2.770      7.772
REMARK  8 active torsions:
REMARK  status: ('A' for Active; 'I' for Inactive)
REMARK    1  A    between atoms: C_2  and  N_3 
REMARK    2  A    between atoms: N_3  and  C_5 
REMARK    3  A    between atoms: N_3  and  C_30 
REMARK    4  A    between atoms: C_5  and  C_6 
REMARK    5  A    between atoms: C_6  and  N_7 
REMARK       I    between atoms: N_7  and  C_8 
REMARK    6  A    between atoms: C_8  and  C_9 
REMARK    7  A    between atoms: C_9  and  O_10 
REMARK    8  A    between atoms: N_11  and  C_12 
ROOT
HETATM    1  C   UNL     1      25.683  44.748  52.243  1.00  0.00     0.256 C 
HETATM    2  N   UNL     1      26.431  43.510  51.926  1.00  0.00    -0.254 N 
HETATM    3  C   UNL     1      27.479  43.091  52.741  1.00  0.00     0.330 C 
HETATM    4  O   UNL     1      28.030  41.993  52.691  1.00  0.00    -0.246 OA
HETATM    5  N   UNL     1      27.963  43.964  53.662  1.00  0.00    -0.308 N 
HETATM    6  C   UNL     1      27.474  45.228  53.929  1.00  0.00     0.048 A 
HETATM    7  C   UNL     1      26.340  45.660  53.262  1.00  0.00     0.034 A 
HETATM    8  C   UNL     1      28.110  46.028  54.880  1.00  0.00     0.030 A 
HETATM    9  C   UNL     1      27.599  47.290  55.175  1.00  0.00     0.002 A 
HETATM   10  C   UNL     1      26.446  47.736  54.536  1.00  0.00     0.001 A 
HETATM   11  C   UNL     1      25.813  46.922  53.595  1.00  0.00     0.015 A 
HETATM   12  H   UNL     1      28.738  43.601  54.205  1.00  0.00     0.170 HD
ENDROOT
BRANCH   1  13
HETATM   13  C   UNL     1      25.531  45.626  50.902  1.00  0.00     0.279 C 
HETATM   14  N   UNL     1      24.226  45.881  50.486  1.00  0.00    -0.355 N 
HETATM   15  H   UNL     1      23.496  45.776  51.188  1.00  0.00     0.162 HD
HETATM   16  O   UNL     1      26.474  45.958  50.178  1.00  0.00    -0.268 OA
BRANCH  14  17
HETATM   17  C   UNL     1      23.995  46.731  49.338  1.00  0.00     0.150 C 
BRANCH  17  18
HETATM   18  C   UNL     1      23.795  48.206  49.739  1.00  0.00     0.254 C 
BRANCH  18  19
HETATM   19  N   UNL     1      22.351  48.687  49.645  1.00  0.00    -0.070 N 
HETATM   20  H   UNL     1      21.933  48.471  50.560  1.00  0.00     0.279 HD
BRANCH  19  21
HETATM   21  C   UNL     1      21.529  47.900  48.631  1.00  0.00     0.230 C 
HETATM   22  C   UNL     1      20.044  48.015  48.933  1.00  0.00     0.034 C 
ENDBRANCH  19  21
BRANCH  19  23
HETATM   23  C   UNL     1      22.178  50.181  49.463  1.00  0.00     0.230 C 
HETATM   24  C   UNL     1      22.899  50.672  48.221  1.00  0.00     0.034 C 
ENDBRANCH  19  23
ENDBRANCH  18  19
ENDBRANCH  17  18
ENDBRANCH  14  17
ENDBRANCH   1  13
BRANCH   1  25
HETATM   25  O   UNL     1      24.459  44.361  52.839  1.00  0.00    -0.359 OA
HETATM   26  H   UNL     1      24.127  43.634  52.287  1.00  0.00     0.213 HD
ENDBRANCH   1  25
BRANCH   2  27
HETATM   27  C   UNL     1      26.020  42.696  50.788  1.00  0.00     0.043 A 
HETATM   28  C   UNL     1      26.947  42.309  49.805  1.00  0.00     0.037 A 
HETATM   29  C   UNL     1      26.578  41.579  48.657  1.00  0.00    -0.054 A 
HETATM   30  C   UNL     1      27.640  41.204  47.656  1.00  0.00     0.049 C 
HETATM   31  C   UNL     1      25.233  41.235  48.463  1.00  0.00    -0.056 A 
HETATM   32  C   UNL     1      24.785  40.439  47.269  1.00  0.00     0.049 C 
HETATM   33  C   UNL     1      24.298  41.609  49.434  1.00  0.00     0.009 A 
HETATM   34  C   UNL     1      24.682  42.333  50.571  1.00  0.00     0.030 A 
ENDBRANCH   2  27
TORSDOF 8
ENDMDL
MODEL 6
REMARK VINA RESULT:      -9.1      3.121      7.061
REMARK  8 active torsions:
REMARK  status: ('A' for Active; 'I' for Inactive)
REMARK    1  A    between atoms: C_2  and  N_3 
REMARK    2  A    between atoms: N_3  and  C_5 
REMARK    3  A    between atoms: N_3  and  C_30 
REMARK    4  A    between atoms: C_5  and  C_6 
REMARK    5  A    between atoms: C_6  and  N_7 
REMARK       I    between atoms: N_7  and  C_8 
REMARK    6  A    between atoms: C_8  and  C_9 
REMARK    7  A    between atoms: C_9  and  O_10 
REMARK    8  A    between atoms: N_11  and  C_12 
ROOT
HETATM    1  C   UNL     1      26.660  44.867  50.805  1.00  0.00     0.256 C 
HETATM    2  N   UNL     1      26.160  46.150  51.350  1.00  0.00    -0.254 N 
HETATM    3  C   UNL     1      26.344  46.467  52.692  1.00  0.00     0.330 C 
HETATM    4  O   UNL     1      26.154  47.569  53.202  1.00  0.00    -0.246 OA
HETATM    5  N   UNL     1      26.747  45.479  53.533  1.00  0.00    -0.308 N 
HETATM    6  C   UNL     1      27.066  44.182  53.182  1.00  0.00     0.048 A 
HETATM    7  C   UNL     1      27.049  43.830  51.843  1.00  0.00     0.034 A 
HETATM    8  C   UNL     1      27.423  43.265  54.172  1.00  0.00     0.030 A 
HETATM    9  C   UNL     1      27.776  41.965  53.817  1.00  0.00     0.002 A 
HETATM   10  C   UNL     1      27.791  41.596  52.475  1.00  0.00     0.001 A 
HETATM   11  C   UNL     1      27.442  42.524  51.493  1.00  0.00     0.015 A 
HETATM   12  H   UNL     1      26.840  45.774  54.499  1.00  0.00     0.170 HD
ENDROOT
BRANCH   1  13
HETATM   13  C   UNL     1      25.501  44.187  49.919  1.00  0.00     0.279 C 
HETATM   14  N   UNL     1      24.369  43.768  50.615  1.00  0.00    -0.355 N 
HETATM   15  H   UNL     1      24.220  44.184  51.532  1.00  0.00     0.162 HD
HETATM   16  O   UNL     1      25.615  43.907  48.722  1.00  0.00    -0.268 OA
BRANCH  14  17
HETATM   17  C   UNL     1      23.243  43.222  49.887  1.00  0.00     0.150 C 
BRANCH  17  18
HETATM   18  C   UNL     1      22.346  44.325  49.292  1.00  0.00     0.254 C 
BRANCH  18  19
HETATM   19  N   UNL     1      22.688  44.698  47.854  1.00  0.00    -0.070 N 
HETATM   20  H   UNL     1      23.618  45.134  47.900  1.00  0.00     0.279 HD
BRANCH  19  21
HETATM   21  C   UNL     1      21.767  45.772  47.285  1.00  0.00     0.230 C 
HETATM   22  C   UNL     1      20.688  46.143  48.288  1.00  0.00     0.034 C 
ENDBRANCH  19  21
BRANCH  19  23
HETATM   23  C   UNL     1      22.834  43.529  46.900  1.00  0.00     0.230 C 
HETATM   24  C   UNL     1      21.480  43.021  46.439  1.00  0.00     0.034 C 
ENDBRANCH  19  23
ENDBRANCH  18  19
ENDBRANCH  17  18
ENDBRANCH  14  17
ENDBRANCH   1  13
BRANCH   1  25
HETATM   25  O   UNL     1      27.858  45.143  50.103  1.00  0.00    -0.359 OA
HETATM   26  H   UNL     1      28.547  44.648  50.575  1.00  0.00     0.213 HD
ENDBRANCH   1  25
BRANCH   2  27
HETATM   27  C   UNL     1      25.529  47.111  50.453  1.00  0.00     0.043 A 
HETATM   28  C   UNL     1      26.299  48.054  49.749  1.00  0.00     0.037 A 
HETATM   29  C   UNL     1      25.723  49.042  48.923  1.00  0.00    -0.054 A 
HETATM   30  C   UNL     1      26.625  50.009  48.203  1.00  0.00     0.049 C 
HETATM   31  C   UNL     1      24.328  49.113  48.806  1.00  0.00    -0.056 A 
HETATM   32  C   UNL     1      23.660  50.130  47.924  1.00  0.00     0.049 C 
HETATM   33  C   UNL     1      23.548  48.180  49.498  1.00  0.00     0.009 A 
HETATM   34  C   UNL     1      24.136  47.203  50.312  1.00  0.00     0.030 A 
ENDBRANCH   2  27
TORSDOF 8
ENDMDL
MODEL 7
REMARK VINA RESULT:      -9.0     12.669     14.883
REMARK  8 active torsions:
REMARK  status: ('A' for Active; 'I' for Inactive)
REMARK    1  A    between atoms: C_2  and  N_3 
REMARK    2  A    between atoms: N_3  and  C_5 
REMARK    3  A    between atoms: N_3  and  C_30 
REMARK    4  A    between atoms: C_5  and  C_6 
REMARK    5  A    between atoms: C_6  and  N_7 
REMARK       I    between atoms: N_7  and  C_8 
REMARK    6  A    between atoms: C_8  and  C_9 
REMARK    7  A    between atoms: C_9  and  O_10 
REMARK    8  A    between atoms: N_11  and  C_12 
ROOT
HETATM    1  C   UNL     1      27.698  47.637  40.460  1.00  0.00     0.256 C 
HETATM    2  N   UNL     1      27.000  48.851  39.977  1.00  0.00    -0.254 N 
HETATM    3  C   UNL     1      25.708  48.766  39.468  1.00  0.00     0.330 C 
HETATM    4  O   UNL     1      24.968  49.718  39.229  1.00  0.00    -0.246 OA
HETATM    5  N   UNL     1      25.212  47.534  39.182  1.00  0.00    -0.308 N 
HETATM    6  C   UNL     1      25.840  46.325  39.409  1.00  0.00     0.048 A 
HETATM    7  C   UNL     1      27.068  46.320  40.049  1.00  0.00     0.034 A 
HETATM    8  C   UNL     1      25.216  45.139  39.018  1.00  0.00     0.030 A 
HETATM    9  C   UNL     1      25.832  43.916  39.275  1.00  0.00     0.002 A 
HETATM   10  C   UNL     1      27.055  43.884  39.941  1.00  0.00     0.001 A 
HETATM   11  C   UNL     1      27.663  45.077  40.336  1.00  0.00     0.015 A 
HETATM   12  H   UNL     1      24.275  47.548  38.795  1.00  0.00     0.170 HD
ENDROOT
BRANCH   1  13
HETATM   13  C   UNL     1      29.191  47.616  39.857  1.00  0.00     0.279 C 
HETATM   14  N   UNL     1      30.224  47.743  40.784  1.00  0.00    -0.355 N 
HETATM   15  H   UNL     1      29.994  47.530  41.752  1.00  0.00     0.162 HD
HETATM   16  O   UNL     1      29.453  47.627  38.651  1.00  0.00    -0.268 OA
BRANCH  14  17
HETATM   17  C   UNL     1      31.598  47.651  40.339  1.00  0.00     0.150 C 
BRANCH  17  18
HETATM   18  C   UNL     1      32.529  48.590  41.131  1.00  0.00     0.254 C 
BRANCH  18  19
HETATM   19  N   UNL     1      31.895  49.925  41.504  1.00  0.00    -0.070 N 
HETATM   20  H   UNL     1      30.929  49.874  41.156  1.00  0.00     0.279 HD
BRANCH  19  21
HETATM   21  C   UNL     1      32.524  51.106  40.771  1.00  0.00     0.230 C 
HETATM   22  C   UNL     1      32.257  51.018  39.278  1.00  0.00     0.034 C 
ENDBRANCH  19  21
BRANCH  19  23
HETATM   23  C   UNL     1      31.777  50.192  42.991  1.00  0.00     0.230 C 
HETATM   24  C   UNL     1      31.987  51.662  43.306  1.00  0.00     0.034 C 
ENDBRANCH  19  23
ENDBRANCH  18  19
ENDBRANCH  17  18
ENDBRANCH  14  17
ENDBRANCH   1  13
BRANCH   1  25
HETATM   25  O   UNL     1      27.632  47.645  41.874  1.00  0.00    -0.359 OA
HETATM   26  H   UNL     1      27.075  48.409  42.097  1.00  0.00     0.213 HD
ENDBRANCH   1  25
BRANCH   2  27
HETATM   27  C   UNL     1      27.654  50.149  40.100  1.00  0.00     0.043 A 
HETATM   28  C   UNL     1      28.038  50.874  38.958  1.00  0.00     0.037 A 
HETATM   29  C   UNL     1      28.730  52.100  39.033  1.00  0.00    -0.054 A 
HETATM   30  C   UNL     1      29.099  52.810  37.757  1.00  0.00     0.049 C 
HETATM   31  C   UNL     1      29.074  52.620  40.289  1.00  0.00    -0.056 A 
HETATM   32  C   UNL     1      29.792  53.933  40.430  1.00  0.00     0.049 C 
HETATM   33  C   UNL     1      28.696  51.913  41.435  1.00  0.00     0.009 A 
HETATM   34  C   UNL     1      28.006  50.696  41.343  1.00  0.00     0.030 A 
ENDBRANCH   2  27
TORSDOF 8
ENDMDL
MODEL 8
REMARK VINA RESULT:      -8.9      2.548      7.973
REMARK  8 active torsions:
REMARK  status: ('A' for Active; 'I' for Inactive)
REMARK    1  A    between atoms: C_2  and  N_3 
REMARK    2  A    between atoms: N_3  and  C_5 
REMARK    3  A    between atoms: N_3  and  C_30 
REMARK    4  A    between atoms: C_5  and  C_6 
REMARK    5  A    between atoms: C_6  and  N_7 
REMARK       I    between atoms: N_7  and  C_8 
REMARK    6  A    between atoms: C_8  and  C_9 
REMARK    7  A    between atoms: C_9  and  O_10 
REMARK    8  A    between atoms: N_11  and  C_12 
ROOT
HETATM    1  C   UNL     1      26.715  42.646  51.028  1.00  0.00     0.256 C 
HETATM    2  N   UNL     1      27.149  41.547  50.135  1.00  0.00    -0.254 N 
HETATM    3  C   UNL     1      28.197  40.709  50.505  1.00  0.00     0.330 C 
HETATM    4  O   UNL     1      28.506  39.659  49.947  1.00  0.00    -0.246 OA
HETATM    5  N   UNL     1      28.970  41.079  51.559  1.00  0.00    -0.308 N 
HETATM    6  C   UNL     1      28.786  42.187  52.362  1.00  0.00     0.048 A 
HETATM    7  C   UNL     1      27.679  42.990  52.149  1.00  0.00     0.034 A 
HETATM    8  C   UNL     1      29.698  42.458  53.385  1.00  0.00     0.030 A 
HETATM    9  C   UNL     1      29.496  43.556  54.218  1.00  0.00     0.002 A 
HETATM   10  C   UNL     1      28.376  44.363  54.039  1.00  0.00     0.001 A 
HETATM   11  C   UNL     1      27.467  44.075  53.020  1.00  0.00     0.015 A 
HETATM   12  H   UNL     1      29.727  40.434  51.759  1.00  0.00     0.170 HD
ENDROOT
BRANCH   1  13
HETATM   13  C   UNL     1      26.553  43.993  50.161  1.00  0.00     0.279 C 
HETATM   14  N   UNL     1      25.245  44.420  49.939  1.00  0.00    -0.355 N 
HETATM   15  H   UNL     1      24.535  44.056  50.571  1.00  0.00     0.162 HD
HETATM   16  O   UNL     1      27.484  44.570  49.592  1.00  0.00    -0.268 OA
BRANCH  14  17
HETATM   17  C   UNL     1      25.009  45.666  49.241  1.00  0.00     0.150 C 
BRANCH  17  18
HETATM   18  C   UNL     1      24.668  46.817  50.208  1.00  0.00     0.254 C 
BRANCH  18  19
HETATM   19  N   UNL     1      25.852  47.715  50.550  1.00  0.00    -0.070 N 
HETATM   20  H   UNL     1      25.452  48.653  50.680  1.00  0.00     0.279 HD
BRANCH  19  21
HETATM   21  C   UNL     1      26.842  47.855  49.399  1.00  0.00     0.230 C 
HETATM   22  C   UNL     1      27.029  49.315  49.022  1.00  0.00     0.034 C 
ENDBRANCH  19  21
BRANCH  19  23
HETATM   23  C   UNL     1      26.555  47.389  51.852  1.00  0.00     0.230 C 
HETATM   24  C   UNL     1      25.560  47.031  52.941  1.00  0.00     0.034 C 
ENDBRANCH  19  23
ENDBRANCH  18  19
ENDBRANCH  17  18
ENDBRANCH  14  17
ENDBRANCH   1  13
BRANCH   1  25
HETATM   25  O   UNL     1      25.536  42.218  51.683  1.00  0.00    -0.359 OA
HETATM   26  H   UNL     1      25.831  41.552  52.326  1.00  0.00     0.213 HD
ENDBRANCH   1  25
BRANCH   2  27
HETATM   27  C   UNL     1      26.427  41.308  48.891  1.00  0.00     0.043 A 
HETATM   28  C   UNL     1      25.032  41.126  48.890  1.00  0.00     0.037 A 
HETATM   29  C   UNL     1      24.305  40.827  47.720  1.00  0.00    -0.054 A 
HETATM   30  C   UNL     1      22.812  40.652  47.812  1.00  0.00     0.049 C 
HETATM   31  C   UNL     1      24.988  40.682  46.504  1.00  0.00    -0.056 A 
HETATM   32  C   UNL     1      24.263  40.386  45.221  1.00  0.00     0.049 C 
HETATM   33  C   UNL     1      26.375  40.864  46.487  1.00  0.00     0.009 A 
HETATM   34  C   UNL     1      27.083  41.163  47.659  1.00  0.00     0.030 A 
ENDBRANCH   2  27
TORSDOF 8
ENDMDL
MODEL 9
REMARK VINA RESULT:      -8.8      2.866      6.354
REMARK  8 active torsions:
REMARK  status: ('A' for Active; 'I' for Inactive)
REMARK    1  A    between atoms: C_2  and  N_3 
REMARK    2  A    between atoms: N_3  and  C_5 
REMARK    3  A    between atoms: N_3  and  C_30 
REMARK    4  A    between atoms: C_5  and  C_6 
REMARK    5  A    between atoms: C_6  and  N_7 
REMARK       I    between atoms: N_7  and  C_8 
REMARK    6  A    between atoms: C_8  and  C_9 
REMARK    7  A    between atoms: C_9  and  O_10 
REMARK    8  A    between atoms: N_11  and  C_12 
ROOT
HETATM    1  C   UNL     1      26.508  44.848  50.771  1.00  0.00     0.256 C 
HETATM    2  N   UNL     1      26.167  46.192  51.289  1.00  0.00    -0.254 N 
HETATM    3  C   UNL     1      26.534  46.566  52.578  1.00  0.00     0.330 C 
HETATM    4  O   UNL     1      26.482  47.706  53.036  1.00  0.00    -0.246 OA
HETATM    5  N   UNL     1      26.968  45.598  53.426  1.00  0.00    -0.308 N 
HETATM    6  C   UNL     1      27.152  44.264  53.122  1.00  0.00     0.048 A 
HETATM    7  C   UNL     1      26.949  43.842  51.819  1.00  0.00     0.034 A 
HETATM    8  C   UNL     1      27.564  43.378  54.119  1.00  0.00     0.030 A 
HETATM    9  C   UNL     1      27.782  42.037  53.807  1.00  0.00     0.002 A 
HETATM   10  C   UNL     1      27.609  41.596  52.498  1.00  0.00     0.001 A 
HETATM   11  C   UNL     1      27.208  42.494  51.508  1.00  0.00     0.015 A 
HETATM   12  H   UNL     1      27.197  45.937  54.354  1.00  0.00     0.170 HD
ENDROOT
BRANCH   1  13
HETATM   13  C   UNL     1      25.207  44.209  50.071  1.00  0.00     0.279 C 
HETATM   14  N   UNL     1      25.240  44.134  48.679  1.00  0.00    -0.355 N 
HETATM   15  H   UNL     1      26.158  44.187  48.243  1.00  0.00     0.162 HD
HETATM   16  O   UNL     1      24.168  43.918  50.669  1.00  0.00    -0.268 OA
BRANCH  14  17
HETATM   17  C   UNL     1      24.148  43.499  47.972  1.00  0.00     0.150 C 
BRANCH  17  18
HETATM   18  C   UNL     1      24.252  41.962  48.005  1.00  0.00     0.254 C 
BRANCH  18  19
HETATM   19  N   UNL     1      25.316  41.389  47.076  1.00  0.00    -0.070 N 
HETATM   20  H   UNL     1      25.831  42.204  46.717  1.00  0.00     0.279 HD
BRANCH  19  21
HETATM   21  C   UNL     1      24.725  40.712  45.844  1.00  0.00     0.230 C 
HETATM   22  C   UNL     1      25.133  41.445  44.577  1.00  0.00     0.034 C 
ENDBRANCH  19  21
BRANCH  19  23
HETATM   23  C   UNL     1      26.357  40.515  47.745  1.00  0.00     0.230 C 
HETATM   24  C   UNL     1      27.689  41.234  47.861  1.00  0.00     0.034 C 
ENDBRANCH  19  23
ENDBRANCH  18  19
ENDBRANCH  17  18
ENDBRANCH  14  17
ENDBRANCH   1  13
BRANCH   1  25
HETATM   25  O   UNL     1      27.628  44.995  49.917  1.00  0.00    -0.359 OA
HETATM   26  H   UNL     1      28.376  45.176  50.510  1.00  0.00     0.213 HD
ENDBRANCH   1  25
BRANCH   2  27
HETATM   27  C   UNL     1      25.498  47.148  50.413  1.00  0.00     0.043 A 
HETATM   28  C   UNL     1      26.236  48.093  49.679  1.00  0.00     0.037 A 
HETATM   29  C   UNL     1      25.626  49.075  48.873  1.00  0.00    -0.054 A 
HETATM   30  C   UNL     1      26.496  50.045  48.117  1.00  0.00     0.049 C 
HETATM   31  C   UNL     1      24.227  49.139  48.808  1.00  0.00    -0.056 A 
HETATM   32  C   UNL     1      23.522  50.151  47.949  1.00  0.00     0.049 C 
HETATM   33  C   UNL     1      23.477  48.204  49.530  1.00  0.00     0.009 A 
HETATM   34  C   UNL     1      24.100  47.232  50.324  1.00  0.00     0.030 A 
ENDBRANCH   2  27
TORSDOF 8
ENDMDL
MODEL 10
REMARK VINA RESULT:      -8.8     14.985     17.084
REMARK  8 active torsions:
REMARK  status: ('A' for Active; 'I' for Inactive)
REMARK    1  A    between atoms: C_2  and  N_3 
REMARK    2  A    between atoms: N_3  and  C_5 
REMARK    3  A    between atoms: N_3  and  C_30 
REMARK    4  A    between atoms: C_5  and  C_6 
REMARK    5  A    between atoms: C_6  and  N_7 
REMARK       I    between atoms: N_7  and  C_8 
REMARK    6  A    between atoms: C_8  and  C_9 
REMARK    7  A    between atoms: C_9  and  O_10 
REMARK    8  A    between atoms: N_11  and  C_12 
ROOT
HETATM    1  C   UNL     1      38.476  45.758  65.564  1.00  0.00     0.256 C 
HETATM    2  N   UNL     1      39.516  45.196  64.672  1.00  0.00    -0.254 N 
HETATM    3  C   UNL     1      40.549  45.998  64.199  1.00  0.00     0.330 C 
HETATM    4  O   UNL     1      41.562  45.600  63.626  1.00  0.00    -0.246 OA
HETATM    5  N   UNL     1      40.437  47.343  64.353  1.00  0.00    -0.308 N 
HETATM    6  C   UNL     1      39.417  48.012  65.002  1.00  0.00     0.048 A 
HETATM    7  C   UNL     1      38.428  47.274  65.628  1.00  0.00     0.034 A 
HETATM    8  C   UNL     1      39.420  49.408  65.038  1.00  0.00     0.030 A 
HETATM    9  C   UNL     1      38.410  50.084  65.721  1.00  0.00     0.002 A 
HETATM   10  C   UNL     1      37.419  49.362  66.379  1.00  0.00     0.001 A 
HETATM   11  C   UNL     1      37.434  47.967  66.344  1.00  0.00     0.015 A 
HETATM   12  H   UNL     1      41.214  47.867  63.966  1.00  0.00     0.170 HD
ENDROOT
BRANCH   1  13
HETATM   13  C   UNL     1      37.027  45.295  65.037  1.00  0.00     0.279 C 
HETATM   14  N   UNL     1      36.341  44.398  65.853  1.00  0.00    -0.355 N 
HETATM   15  H   UNL     1      36.641  44.346  66.824  1.00  0.00     0.162 HD
HETATM   16  O   UNL     1      36.568  45.579  63.927  1.00  0.00    -0.268 OA
BRANCH  14  17
HETATM   17  C   UNL     1      34.997  43.993  65.498  1.00  0.00     0.150 C 
BRANCH  17  18
HETATM   18  C   UNL     1      34.431  42.944  66.475  1.00  0.00     0.254 C 
BRANCH  18  19
HETATM   19  N   UNL     1      33.559  43.529  67.580  1.00  0.00    -0.070 N 
HETATM   20  H   UNL     1      33.329  44.482  67.269  1.00  0.00     0.279 HD
BRANCH  19  21
HETATM   21  C   UNL     1      34.308  43.704  68.896  1.00  0.00     0.230 C 
HETATM   22  C   UNL     1      34.826  45.125  69.037  1.00  0.00     0.034 C 
ENDBRANCH  19  21
BRANCH  19  23
HETATM   23  C   UNL     1      32.226  42.838  67.786  1.00  0.00     0.230 C 
HETATM   24  C   UNL     1      31.646  43.155  69.152  1.00  0.00     0.034 C 
ENDBRANCH  19  23
ENDBRANCH  18  19
ENDBRANCH  17  18
ENDBRANCH  14  17
ENDBRANCH   1  13
BRANCH   1  25
HETATM   25  O   UNL     1      38.784  45.350  66.884  1.00  0.00    -0.359 OA
HETATM   26  H   UNL     1      38.709  44.381  66.873  1.00  0.00     0.213 HD
ENDBRANCH   1  25
BRANCH   2  27
HETATM   27  C   UNL     1      39.486  43.774  64.345  1.00  0.00     0.043 A 
HETATM   28  C   UNL     1      39.989  42.817  65.244  1.00  0.00     0.037 A 
HETATM   29  C   UNL     1      40.039  41.441  64.940  1.00  0.00    -0.054 A 
HETATM   30  C   UNL     1      40.590  40.485  65.965  1.00  0.00     0.049 C 
HETATM   31  C   UNL     1      39.594  40.997  63.687  1.00  0.00    -0.056 A 
HETATM   32  C   UNL     1      39.603  39.541  63.316  1.00  0.00     0.049 C 
HETATM   33  C   UNL     1      39.088  41.937  62.782  1.00  0.00     0.009 A 
HETATM   34  C   UNL     1      39.042  43.301  63.101  1.00  0.00     0.030 A 
ENDBRANCH   2  27
TORSDOF 8
ENDMDL
