MODEL 1
REMARK VINA RESULT:      -9.3      0.000      0.000
REMARK  7 active torsions:
REMARK  status: ('A' for Active; 'I' for Inactive)
REMARK    1  A    between atoms: C_2  and  N_3 
REMARK    2  A    between atoms: C_2  and  C_10 
REMARK    3  A    between atoms: N_11  and  C_12 
REMARK    4  A    between atoms: C_19  and  S_20 
REMARK    5  A    between atoms: S_20  and  C_21 
REMARK    6  A    between atoms: C_21  and  C_22 
REMARK    7  A    between atoms: C_21  and  C_28 
REMARK       I    between atoms: C_22  and  N_23 
REMARK       I    between atoms: N_23  and  C_24 
REMARK       I    between atoms: C_24  and  N_25 
ROOT
HETATM    1  C   UNL     1      23.812  45.252  49.845  1.00  0.00     0.166 A 
HETATM    2  N   UNL     1      24.762  46.069  50.455  1.00  0.00    -0.274 N 
HETATM    3  C   UNL     1      24.863  45.557  51.741  1.00  0.00     0.197 A 
HETATM    4  N   UNL     1      24.149  44.461  51.832  1.00  0.00    -0.122 NA
HETATM    5  N   UNL     1      23.514  44.253  50.649  1.00  0.00    -0.131 NA
ENDROOT
BRANCH   3   6
HETATM    6  S   UNL     1      25.856  46.223  52.992  1.00  0.00    -0.070 SA
BRANCH   6   7
HETATM    7  C   UNL     1      27.049  44.893  53.420  1.00  0.00     0.180 C 
BRANCH   7   8
HETATM    8  C   UNL     1      26.345  43.530  53.564  1.00  0.00     0.244 C 
HETATM    9  N   UNL     1      26.584  42.546  52.622  1.00  0.00    -0.278 N 
HETATM   10  C   UNL     1      27.129  42.662  51.370  1.00  0.00     0.320 C 
HETATM   11  H   UNL     1      26.104  41.685  52.826  1.00  0.00     0.173 HD
HETATM   12  N   UNL     1      27.132  41.489  50.680  1.00  0.00    -0.352 N 
HETATM   13  O   UNL     1      27.618  43.667  50.878  1.00  0.00    -0.247 OA
HETATM   14  H   UNL     1      26.381  40.824  50.795  1.00  0.00     0.160 HD
HETATM   15  H   UNL     1      27.480  41.573  49.731  1.00  0.00     0.160 HD
HETATM   16  O   UNL     1      25.541  43.260  54.464  1.00  0.00    -0.271 OA
ENDBRANCH   7   8
BRANCH   7  17
HETATM   17  C   UNL     1      27.992  45.272  54.555  1.00  0.00    -0.035 A 
HETATM   18  C   UNL     1      29.180  44.540  54.738  1.00  0.00     0.009 A 
HETATM   19  C   UNL     1      30.065  44.855  55.772  1.00  0.00     0.001 A 
HETATM   20  C   UNL     1      29.781  45.906  56.639  1.00  0.00     0.000 A 
HETATM   21  C   UNL     1      28.611  46.642  56.474  1.00  0.00     0.001 A 
HETATM   22  C   UNL     1      27.723  46.328  55.442  1.00  0.00     0.009 A 
ENDBRANCH   7  17
ENDBRANCH   6   7
ENDBRANCH   3   6
BRANCH   2  23
HETATM   23  C   UNL     1      25.416  47.183  49.868  1.00  0.00     0.043 A 
HETATM   24  C   UNL     1      26.805  47.186  49.678  1.00  0.00     0.033 A 
HETATM   25  C   UNL     1      27.424  48.295  49.095  1.00  0.00     0.044 A 
HETATM   26  C   UNL     1      26.660  49.389  48.706  1.00  0.00     0.116 A 
HETATM   27  F   UNL     1      27.257  50.448  48.148  1.00  0.00    -0.206 F 
HETATM   28  C   UNL     1      25.282  49.396  48.885  1.00  0.00     0.044 A 
HETATM   29  C   UNL     1      24.654  48.292  49.465  1.00  0.00     0.033 A 
ENDBRANCH   2  23
BRANCH   1  30
HETATM   30  C   UNL     1      23.082  45.542  48.571  1.00  0.00     0.255 C 
HETATM   31  C   UNL     1      23.167  44.367  47.592  1.00  0.00     0.049 C 
BRANCH  30  32
HETATM   32  N   UNL     1      21.590  45.920  48.765  1.00  0.00    -0.060 N 
HETATM   33  H   UNL     1      21.386  45.725  49.752  1.00  0.00     0.280 HD
HETATM   34  C   UNL     1      21.257  47.388  48.539  1.00  0.00     0.236 C 
HETATM   35  C   UNL     1      19.825  47.641  49.001  1.00  0.00     0.028 C 
HETATM   36  C   UNL     1      18.837  46.745  48.261  1.00  0.00     0.003 C 
HETATM   37  C   UNL     1      19.229  45.276  48.372  1.00  0.00     0.028 C 
HETATM   38  C   UNL     1      20.673  45.038  47.944  1.00  0.00     0.236 C 
ENDBRANCH  30  32
ENDBRANCH   1  30
TORSDOF 7
ENDMDL
MODEL 2
REMARK VINA RESULT:      -8.9      2.673      7.259
REMARK  7 active torsions:
REMARK  status: ('A' for Active; 'I' for Inactive)
REMARK    1  A    between atoms: C_2  and  N_3 
REMARK    2  A    between atoms: C_2  and  C_10 
REMARK    3  A    between atoms: N_11  and  C_12 
REMARK    4  A    between atoms: C_19  and  S_20 
REMARK    5  A    between atoms: S_20  and  C_21 
REMARK    6  A    between atoms: C_21  and  C_22 
REMARK    7  A    between atoms: C_21  and  C_28 
REMARK       I    between atoms: C_22  and  N_23 
REMARK       I    between atoms: N_23  and  C_24 
REMARK       I    between atoms: C_24  and  N_25 
ROOT
HETATM    1  C   UNL     1      25.678  45.575  52.984  1.00  0.00     0.166 A 
HETATM    2  N   UNL     1      25.268  45.625  51.653  1.00  0.00    -0.274 N 
HETATM    3  C   UNL     1      24.666  44.392  51.444  1.00  0.00     0.197 A 
HETATM    4  N   UNL     1      24.603  43.739  52.580  1.00  0.00    -0.122 NA
HETATM    5  N   UNL     1      25.208  44.481  53.545  1.00  0.00    -0.131 NA
ENDROOT
BRANCH   3   6
HETATM    6  S   UNL     1      24.022  43.853  49.932  1.00  0.00    -0.070 SA
BRANCH   6   7
HETATM    7  C   UNL     1      24.992  42.352  49.503  1.00  0.00     0.180 C 
BRANCH   7   8
HETATM    8  C   UNL     1      26.504  42.647  49.475  1.00  0.00     0.244 C 
HETATM    9  N   UNL     1      27.388  41.671  49.897  1.00  0.00    -0.278 N 
HETATM   10  C   UNL     1      27.144  40.546  50.641  1.00  0.00     0.320 C 
HETATM   11  H   UNL     1      28.351  41.951  49.808  1.00  0.00     0.173 HD
HETATM   12  N   UNL     1      28.275  39.853  50.945  1.00  0.00    -0.352 N 
HETATM   13  O   UNL     1      26.052  40.126  50.989  1.00  0.00    -0.247 OA
HETATM   14  H   UNL     1      29.143  40.339  51.117  1.00  0.00     0.160 HD
HETATM   15  H   UNL     1      28.115  39.050  51.542  1.00  0.00     0.160 HD
HETATM   16  O   UNL     1      26.990  43.730  49.126  1.00  0.00    -0.271 OA
ENDBRANCH   7   8
BRANCH   7  17
HETATM   17  C   UNL     1      24.444  41.605  48.294  1.00  0.00    -0.035 A 
HETATM   18  C   UNL     1      23.057  41.396  48.182  1.00  0.00     0.009 A 
HETATM   19  C   UNL     1      22.520  40.712  47.090  1.00  0.00     0.001 A 
HETATM   20  C   UNL     1      23.356  40.224  46.090  1.00  0.00     0.000 A 
HETATM   21  C   UNL     1      24.731  40.421  46.182  1.00  0.00     0.001 A 
HETATM   22  C   UNL     1      25.271  41.104  47.274  1.00  0.00     0.009 A 
ENDBRANCH   7  17
ENDBRANCH   6   7
ENDBRANCH   3   6
BRANCH   2  23
HETATM   23  C   UNL     1      25.478  46.697  50.747  1.00  0.00     0.043 A 
HETATM   24  C   UNL     1      26.764  47.005  50.282  1.00  0.00     0.033 A 
HETATM   25  C   UNL     1      26.944  48.065  49.388  1.00  0.00     0.044 A 
HETATM   26  C   UNL     1      25.846  48.805  48.962  1.00  0.00     0.116 A 
HETATM   27  F   UNL     1      26.023  49.817  48.106  1.00  0.00    -0.206 F 
HETATM   28  C   UNL     1      24.566  48.505  49.413  1.00  0.00     0.044 A 
HETATM   29  C   UNL     1      24.377  47.448  50.306  1.00  0.00     0.033 A 
ENDBRANCH   2  23
BRANCH   1  30
HETATM   30  C   UNL     1      26.657  46.495  53.644  1.00  0.00     0.255 C 
HETATM   31  C   UNL     1      25.950  47.612  54.415  1.00  0.00     0.049 C 
BRANCH  30  32
HETATM   32  N   UNL     1      27.652  45.785  54.599  1.00  0.00    -0.060 N 
HETATM   33  H   UNL     1      27.067  45.261  55.261  1.00  0.00     0.280 HD
HETATM   34  C   UNL     1      28.573  44.768  53.940  1.00  0.00     0.236 C 
HETATM   35  C   UNL     1      29.306  43.993  55.031  1.00  0.00     0.028 C 
HETATM   36  C   UNL     1      30.099  44.928  55.938  1.00  0.00     0.003 C 
HETATM   37  C   UNL     1      29.214  46.031  56.508  1.00  0.00     0.028 C 
HETATM   38  C   UNL     1      28.456  46.776  55.414  1.00  0.00     0.236 C 
ENDBRANCH  30  32
ENDBRANCH   1  30
TORSDOF 7
ENDMDL
MODEL 3
REMARK VINA RESULT:      -8.7      2.918      6.333
REMARK  7 active torsions:
REMARK  status: ('A' for Active; 'I' for Inactive)
REMARK    1  A    between atoms: C_2  and  N_3 
REMARK    2  A    between atoms: C_2  and  C_10 
REMARK    3  A    between atoms: N_11  and  C_12 
REMARK    4  A    between atoms: C_19  and  S_20 
REMARK    5  A    between atoms: S_20  and  C_21 
REMARK    6  A    between atoms: C_21  and  C_22 
REMARK    7  A    between atoms: C_21  and  C_28 
REMARK       I    between atoms: C_22  and  N_23 
REMARK       I    between atoms: N_23  and  C_24 
REMARK       I    between atoms: C_24  and  N_25 
ROOT
HETATM    1  C   UNL     1      25.443  45.763  52.352  1.00  0.00     0.166 A 
HETATM    2  N   UNL     1      25.191  45.955  50.995  1.00  0.00    -0.274 N 
HETATM    3  C   UNL     1      24.495  44.814  50.622  1.00  0.00     0.197 A 
HETATM    4  N   UNL     1      24.240  44.090  51.685  1.00  0.00    -0.122 NA
HETATM    5  N   UNL     1      24.805  44.689  52.767  1.00  0.00    -0.131 NA
ENDROOT
BRANCH   3   6
HETATM    6  S   UNL     1      23.973  44.461  49.010  1.00  0.00    -0.070 SA
BRANCH   6   7
HETATM    7  C   UNL     1      24.520  42.735  48.695  1.00  0.00     0.180 C 
BRANCH   7   8
HETATM    8  C   UNL     1      23.327  41.760  48.687  1.00  0.00     0.244 C 
HETATM    9  N   UNL     1      23.363  40.660  47.849  1.00  0.00    -0.278 N 
HETATM   10  C   UNL     1      24.169  40.424  46.766  1.00  0.00     0.320 C 
HETATM   11  H   UNL     1      22.553  40.069  47.944  1.00  0.00     0.173 HD
HETATM   12  N   UNL     1      23.866  39.266  46.119  1.00  0.00    -0.352 N 
HETATM   13  O   UNL     1      25.106  41.111  46.392  1.00  0.00    -0.247 OA
HETATM   14  H   UNL     1      22.909  38.947  46.059  1.00  0.00     0.160 HD
HETATM   15  H   UNL     1      24.417  39.107  45.283  1.00  0.00     0.160 HD
HETATM   16  O   UNL     1      22.305  41.912  49.367  1.00  0.00    -0.271 OA
ENDBRANCH   7   8
BRANCH   7  17
HETATM   17  C   UNL     1      25.710  42.314  49.547  1.00  0.00    -0.035 A 
HETATM   18  C   UNL     1      25.620  41.148  50.328  1.00  0.00     0.009 A 
HETATM   19  C   UNL     1      26.689  40.734  51.127  1.00  0.00     0.001 A 
HETATM   20  C   UNL     1      27.865  41.477  51.159  1.00  0.00     0.000 A 
HETATM   21  C   UNL     1      27.974  42.635  50.393  1.00  0.00     0.001 A 
HETATM   22  C   UNL     1      26.906  43.051  49.595  1.00  0.00     0.009 A 
ENDBRANCH   7  17
ENDBRANCH   6   7
ENDBRANCH   3   6
BRANCH   2  23
HETATM   23  C   UNL     1      25.609  47.061  50.209  1.00  0.00     0.043 A 
HETATM   24  C   UNL     1      26.952  47.217  49.842  1.00  0.00     0.033 A 
HETATM   25  C   UNL     1      27.337  48.315  49.065  1.00  0.00     0.044 A 
HETATM   26  C   UNL     1      26.385  49.243  48.660  1.00  0.00     0.116 A 
HETATM   27  F   UNL     1      26.757  50.291  47.917  1.00  0.00    -0.206 F 
HETATM   28  C   UNL     1      25.049  49.096  49.015  1.00  0.00     0.044 A 
HETATM   29  C   UNL     1      24.655  48.003  49.790  1.00  0.00     0.033 A 
ENDBRANCH   2  23
BRANCH   1  30
HETATM   30  C   UNL     1      26.430  46.519  53.186  1.00  0.00     0.255 C 
HETATM   31  C   UNL     1      25.739  47.553  54.079  1.00  0.00     0.049 C 
BRANCH  30  32
HETATM   32  N   UNL     1      27.334  45.622  54.071  1.00  0.00    -0.060 N 
HETATM   33  H   UNL     1      26.694  45.149  54.720  1.00  0.00     0.280 HD
HETATM   34  C   UNL     1      28.086  44.526  53.332  1.00  0.00     0.236 C 
HETATM   35  C   UNL     1      28.724  43.594  54.356  1.00  0.00     0.028 C 
HETATM   36  C   UNL     1      29.661  44.353  55.290  1.00  0.00     0.003 C 
HETATM   37  C   UNL     1      28.954  45.535  55.944  1.00  0.00     0.028 C 
HETATM   38  C   UNL     1      28.288  46.441  54.915  1.00  0.00     0.236 C 
ENDBRANCH  30  32
ENDBRANCH   1  30
TORSDOF 7
ENDMDL
MODEL 4
REMARK VINA RESULT:      -8.6      7.922     11.762
REMARK  7 active torsions:
REMARK  status: ('A' for Active; 'I' for Inactive)
REMARK    1  A    between atoms: C_2  and  N_3 
REMARK    2  A    between atoms: C_2  and  C_10 
REMARK    3  A    between atoms: N_11  and  C_12 
REMARK    4  A    between atoms: C_19  and  S_20 
REMARK    5  A    between atoms: S_20  and  C_21 
REMARK    6  A    between atoms: C_21  and  C_22 
REMARK    7  A    between atoms: C_21  and  C_28 
REMARK       I    between atoms: C_22  and  N_23 
REMARK       I    between atoms: N_23  and  C_24 
REMARK       I    between atoms: C_24  and  N_25 
ROOT
HETATM    1  C   UNL     1      16.110  52.501  49.191  1.00  0.00     0.166 A 
HETATM    2  N   UNL     1      16.674  51.630  48.260  1.00  0.00    -0.274 N 
HETATM    3  C   UNL     1      18.040  51.758  48.470  1.00  0.00     0.197 A 
HETATM    4  N   UNL     1      18.251  52.522  49.515  1.00  0.00    -0.122 NA
HETATM    5  N   UNL     1      17.054  52.965  49.982  1.00  0.00    -0.131 NA
ENDROOT
BRANCH   3   6
HETATM    6  S   UNL     1      19.259  50.954  47.542  1.00  0.00    -0.070 SA
BRANCH   6   7
HETATM    7  C   UNL     1      19.074  49.171  47.946  1.00  0.00     0.180 C 
BRANCH   7   8
HETATM    8  C   UNL     1      20.172  48.698  48.919  1.00  0.00     0.244 C 
HETATM    9  N   UNL     1      19.819  48.340  50.208  1.00  0.00    -0.278 N 
HETATM   10  C   UNL     1      18.668  48.617  50.898  1.00  0.00     0.320 C 
HETATM   11  H   UNL     1      20.602  48.015  50.751  1.00  0.00     0.173 HD
HETATM   12  N   UNL     1      18.701  48.179  52.186  1.00  0.00    -0.352 N 
HETATM   13  O   UNL     1      17.664  49.153  50.456  1.00  0.00    -0.247 OA
HETATM   14  H   UNL     1      19.565  48.189  52.710  1.00  0.00     0.160 HD
HETATM   15  H   UNL     1      17.878  48.427  52.724  1.00  0.00     0.160 HD
HETATM   16  O   UNL     1      21.374  48.646  48.633  1.00  0.00    -0.271 OA
ENDBRANCH   7   8
BRANCH   7  17
HETATM   17  C   UNL     1      18.859  48.294  46.720  1.00  0.00    -0.035 A 
HETATM   18  C   UNL     1      18.501  48.893  45.498  1.00  0.00     0.009 A 
HETATM   19  C   UNL     1      18.290  48.120  44.354  1.00  0.00     0.001 A 
HETATM   20  C   UNL     1      18.433  46.737  44.409  1.00  0.00     0.000 A 
HETATM   21  C   UNL     1      18.787  46.125  45.609  1.00  0.00     0.001 A 
HETATM   22  C   UNL     1      18.997  46.896  46.754  1.00  0.00     0.009 A 
ENDBRANCH   7  17
ENDBRANCH   6   7
ENDBRANCH   3   6
BRANCH   2  23
HETATM   23  C   UNL     1      15.972  50.845  47.308  1.00  0.00     0.043 A 
HETATM   24  C   UNL     1      15.756  51.314  46.005  1.00  0.00     0.033 A 
HETATM   25  C   UNL     1      15.063  50.520  45.087  1.00  0.00     0.044 A 
HETATM   26  C   UNL     1      14.594  49.268  45.469  1.00  0.00     0.116 A 
HETATM   27  F   UNL     1      13.933  48.512  44.586  1.00  0.00    -0.206 F 
HETATM   28  C   UNL     1      14.807  48.790  46.757  1.00  0.00     0.044 A 
HETATM   29  C   UNL     1      15.498  49.576  47.682  1.00  0.00     0.033 A 
ENDBRANCH   2  23
BRANCH   1  30
HETATM   30  C   UNL     1      14.700  53.003  49.192  1.00  0.00     0.255 C 
HETATM   31  C   UNL     1      14.162  53.168  50.617  1.00  0.00     0.049 C 
BRANCH  30  32
HETATM   32  N   UNL     1      14.500  54.338  48.429  1.00  0.00    -0.060 N 
HETATM   33  H   UNL     1      15.446  54.683  48.232  1.00  0.00     0.280 HD
HETATM   34  C   UNL     1      13.796  54.219  47.085  1.00  0.00     0.236 C 
HETATM   35  C   UNL     1      13.895  55.557  46.360  1.00  0.00     0.028 C 
HETATM   36  C   UNL     1      13.285  56.683  47.188  1.00  0.00     0.003 C 
HETATM   37  C   UNL     1      13.891  56.735  48.586  1.00  0.00     0.028 C 
HETATM   38  C   UNL     1      13.822  55.384  49.288  1.00  0.00     0.236 C 
ENDBRANCH  30  32
ENDBRANCH   1  30
TORSDOF 7
ENDMDL
MODEL 5
REMARK VINA RESULT:      -8.6      3.071      7.711
REMARK  7 active torsions:
REMARK  status: ('A' for Active; 'I' for Inactive)
REMARK    1  A    between atoms: C_2  and  N_3 
REMARK    2  A    between atoms: C_2  and  C_10 
REMARK    3  A    between atoms: N_11  and  C_12 
REMARK    4  A    between atoms: C_19  and  S_20 
REMARK    5  A    between atoms: S_20  and  C_21 
REMARK    6  A    between atoms: C_21  and  C_22 
REMARK    7  A    between atoms: C_21  and  C_28 
REMARK       I    between atoms: C_22  and  N_23 
REMARK       I    between atoms: N_23  and  C_24 
REMARK       I    between atoms: C_24  and  N_25 
ROOT
HETATM    1  C   UNL     1      24.505  44.675  51.214  1.00  0.00     0.166 A 
HETATM    2  N   UNL     1      24.594  45.424  50.042  1.00  0.00    -0.274 N 
HETATM    3  C   UNL     1      23.598  44.895  49.233  1.00  0.00     0.197 A 
HETATM    4  N   UNL     1      22.901  44.019  49.917  1.00  0.00    -0.122 NA
HETATM    5  N   UNL     1      23.445  43.898  51.156  1.00  0.00    -0.131 NA
ENDROOT
BRANCH   3   6
HETATM    6  S   UNL     1      23.281  45.391  47.607  1.00  0.00    -0.070 SA
BRANCH   6   7
HETATM    7  C   UNL     1      21.599  46.131  47.649  1.00  0.00     0.180 C 
BRANCH   7   8
HETATM    8  C   UNL     1      20.862  45.931  46.310  1.00  0.00     0.244 C 
HETATM    9  N   UNL     1      19.541  45.524  46.325  1.00  0.00    -0.278 N 
HETATM   10  C   UNL     1      18.820  44.961  47.346  1.00  0.00     0.320 C 
HETATM   11  H   UNL     1      19.143  45.454  45.402  1.00  0.00     0.173 HD
HETATM   12  N   UNL     1      17.560  44.603  46.975  1.00  0.00    -0.352 N 
HETATM   13  O   UNL     1      19.188  44.808  48.500  1.00  0.00    -0.247 OA
HETATM   14  H   UNL     1      17.378  44.263  46.041  1.00  0.00     0.160 HD
HETATM   15  H   UNL     1      17.036  44.134  47.705  1.00  0.00     0.160 HD
HETATM   16  O   UNL     1      21.390  46.079  45.202  1.00  0.00    -0.271 OA
ENDBRANCH   7   8
BRANCH   7  17
HETATM   17  C   UNL     1      21.578  47.549  48.206  1.00  0.00    -0.035 A 
HETATM   18  C   UNL     1      20.560  47.923  49.102  1.00  0.00     0.009 A 
HETATM   19  C   UNL     1      20.506  49.215  49.628  1.00  0.00     0.001 A 
HETATM   20  C   UNL     1      21.467  50.156  49.272  1.00  0.00     0.000 A 
HETATM   21  C   UNL     1      22.483  49.806  48.387  1.00  0.00     0.001 A 
HETATM   22  C   UNL     1      22.538  48.514  47.858  1.00  0.00     0.009 A 
ENDBRANCH   7  17
ENDBRANCH   6   7
ENDBRANCH   3   6
BRANCH   2  23
HETATM   23  C   UNL     1      25.534  46.452  49.768  1.00  0.00     0.043 A 
HETATM   24  C   UNL     1      25.145  47.799  49.757  1.00  0.00     0.033 A 
HETATM   25  C   UNL     1      26.090  48.793  49.487  1.00  0.00     0.044 A 
HETATM   26  C   UNL     1      27.411  48.441  49.233  1.00  0.00     0.116 A 
HETATM   27  F   UNL     1      28.312  49.395  48.976  1.00  0.00    -0.206 F 
HETATM   28  C   UNL     1      27.809  47.109  49.246  1.00  0.00     0.044 A 
HETATM   29  C   UNL     1      26.872  46.109  49.516  1.00  0.00     0.033 A 
ENDBRANCH   2  23
BRANCH   1  30
HETATM   30  C   UNL     1      25.538  44.597  52.295  1.00  0.00     0.255 C 
HETATM   31  C   UNL     1      24.943  44.921  53.668  1.00  0.00     0.049 C 
BRANCH  30  32
HETATM   32  N   UNL     1      26.268  43.232  52.379  1.00  0.00    -0.060 N 
HETATM   33  H   UNL     1      25.553  42.559  52.678  1.00  0.00     0.280 HD
HETATM   34  C   UNL     1      26.827  42.710  51.063  1.00  0.00     0.236 C 
HETATM   35  C   UNL     1      27.288  41.271  51.264  1.00  0.00     0.028 C 
HETATM   36  C   UNL     1      28.335  41.172  52.369  1.00  0.00     0.003 C 
HETATM   37  C   UNL     1      27.837  41.806  53.663  1.00  0.00     0.028 C 
HETATM   38  C   UNL     1      27.343  43.232  53.446  1.00  0.00     0.236 C 
ENDBRANCH  30  32
ENDBRANCH   1  30
TORSDOF 7
ENDMDL
MODEL 6
REMARK VINA RESULT:      -8.4     10.928     14.708
REMARK  7 active torsions:
REMARK  status: ('A' for Active; 'I' for Inactive)
REMARK    1  A    between atoms: C_2  and  N_3 
REMARK    2  A    between atoms: C_2  and  C_10 
REMARK    3  A    between atoms: N_11  and  C_12 
REMARK    4  A    between atoms: C_19  and  S_20 
REMARK    5  A    between atoms: S_20  and  C_21 
REMARK    6  A    between atoms: C_21  and  C_22 
REMARK    7  A    between atoms: C_21  and  C_28 
REMARK       I    between atoms: C_22  and  N_23 
REMARK       I    between atoms: N_23  and  C_24 
REMARK       I    between atoms: C_24  and  N_25 
ROOT
HETATM    1  C   UNL     1      31.875  49.938  41.554  1.00  0.00     0.166 A 
HETATM    2  N   UNL     1      31.088  49.730  40.422  1.00  0.00    -0.274 N 
HETATM    3  C   UNL     1      31.256  48.380  40.145  1.00  0.00     0.197 A 
HETATM    4  N   UNL     1      31.959  47.822  41.102  1.00  0.00    -0.122 NA
HETATM    5  N   UNL     1      32.323  48.781  41.993  1.00  0.00    -0.131 NA
ENDROOT
BRANCH   3   6
HETATM    6  S   UNL     1      30.563  47.558  38.790  1.00  0.00    -0.070 SA
BRANCH   6   7
HETATM    7  C   UNL     1      28.851  47.135  39.308  1.00  0.00     0.180 C 
BRANCH   7   8
HETATM    8  C   UNL     1      28.747  45.665  39.760  1.00  0.00     0.244 C 
HETATM    9  N   UNL     1      27.743  45.301  40.639  1.00  0.00    -0.278 N 
HETATM   10  C   UNL     1      26.969  46.095  41.444  1.00  0.00     0.320 C 
HETATM   11  H   UNL     1      27.742  44.315  40.844  1.00  0.00     0.173 HD
HETATM   12  N   UNL     1      26.134  45.383  42.249  1.00  0.00    -0.352 N 
HETATM   13  O   UNL     1      26.944  47.316  41.457  1.00  0.00    -0.247 OA
HETATM   14  H   UNL     1      26.420  44.490  42.623  1.00  0.00     0.160 HD
HETATM   15  H   UNL     1      25.596  45.956  42.890  1.00  0.00     0.160 HD
HETATM   16  O   UNL     1      29.534  44.777  39.410  1.00  0.00    -0.271 OA
ENDBRANCH   7   8
BRANCH   7  17
HETATM   17  C   UNL     1      27.790  47.596  38.318  1.00  0.00    -0.035 A 
HETATM   18  C   UNL     1      27.367  48.937  38.335  1.00  0.00     0.009 A 
HETATM   19  C   UNL     1      26.392  49.394  37.445  1.00  0.00     0.001 A 
HETATM   20  C   UNL     1      25.823  48.522  36.523  1.00  0.00     0.000 A 
HETATM   21  C   UNL     1      26.229  47.190  36.489  1.00  0.00     0.001 A 
HETATM   22  C   UNL     1      27.202  46.730  37.379  1.00  0.00     0.009 A 
ENDBRANCH   7  17
ENDBRANCH   6   7
ENDBRANCH   3   6
BRANCH   2  23
HETATM   23  C   UNL     1      30.340  50.713  39.724  1.00  0.00     0.043 A 
HETATM   24  C   UNL     1      29.249  51.352  40.329  1.00  0.00     0.033 A 
HETATM   25  C   UNL     1      28.529  52.318  39.621  1.00  0.00     0.044 A 
HETATM   26  C   UNL     1      28.900  52.642  38.320  1.00  0.00     0.116 A 
HETATM   27  F   UNL     1      28.210  53.568  37.646  1.00  0.00    -0.206 F 
HETATM   28  C   UNL     1      29.983  52.019  37.712  1.00  0.00     0.044 A 
HETATM   29  C   UNL     1      30.709  51.052  38.412  1.00  0.00     0.033 A 
ENDBRANCH   2  23
BRANCH   1  30
HETATM   30  C   UNL     1      32.321  51.263  42.090  1.00  0.00     0.255 C 
HETATM   31  C   UNL     1      32.242  51.307  43.619  1.00  0.00     0.049 C 
BRANCH  30  32
HETATM   32  N   UNL     1      33.750  51.677  41.654  1.00  0.00    -0.060 N 
HETATM   33  H   UNL     1      33.811  52.684  41.846  1.00  0.00     0.280 HD
HETATM   34  C   UNL     1      34.883  51.020  42.429  1.00  0.00     0.236 C 
HETATM   35  C   UNL     1      36.193  51.705  42.054  1.00  0.00     0.028 C 
HETATM   36  C   UNL     1      36.452  51.626  40.553  1.00  0.00     0.003 C 
HETATM   37  C   UNL     1      35.269  52.166  39.757  1.00  0.00     0.028 C 
HETATM   38  C   UNL     1      33.958  51.502  40.164  1.00  0.00     0.236 C 
ENDBRANCH  30  32
ENDBRANCH   1  30
TORSDOF 7
ENDMDL
MODEL 7
REMARK VINA RESULT:      -8.4      7.386     10.825
REMARK  7 active torsions:
REMARK  status: ('A' for Active; 'I' for Inactive)
REMARK    1  A    between atoms: C_2  and  N_3 
REMARK    2  A    between atoms: C_2  and  C_10 
REMARK    3  A    between atoms: N_11  and  C_12 
REMARK    4  A    between atoms: C_19  and  S_20 
REMARK    5  A    between atoms: S_20  and  C_21 
REMARK    6  A    between atoms: C_21  and  C_22 
REMARK    7  A    between atoms: C_21  and  C_28 
REMARK       I    between atoms: C_22  and  N_23 
REMARK       I    between atoms: N_23  and  C_24 
REMARK       I    between atoms: C_24  and  N_25 
ROOT
HETATM    1  C   UNL     1      17.578  47.932  44.462  1.00  0.00     0.166 A 
HETATM    2  N   UNL     1      17.135  48.624  45.587  1.00  0.00    -0.274 N 
HETATM    3  C   UNL     1      17.251  47.698  46.615  1.00  0.00     0.197 A 
HETATM    4  N   UNL     1      17.838  46.616  46.162  1.00  0.00    -0.122 NA
HETATM    5  N   UNL     1      18.066  46.767  44.831  1.00  0.00    -0.131 NA
ENDROOT
BRANCH   3   6
HETATM    6  S   UNL     1      16.774  47.978  48.253  1.00  0.00    -0.070 SA
BRANCH   6   7
HETATM    7  C   UNL     1      18.004  49.173  48.915  1.00  0.00     0.180 C 
BRANCH   7   8
HETATM    8  C   UNL     1      18.791  48.574  50.097  1.00  0.00     0.244 C 
HETATM    9  N   UNL     1      20.144  48.329  49.949  1.00  0.00    -0.278 N 
HETATM   10  C   UNL     1      20.887  48.246  48.800  1.00  0.00     0.320 C 
HETATM   11  H   UNL     1      20.570  47.970  50.787  1.00  0.00     0.173 HD
HETATM   12  N   UNL     1      22.184  47.902  49.029  1.00  0.00    -0.352 N 
HETATM   13  O   UNL     1      20.505  48.486  47.666  1.00  0.00    -0.247 OA
HETATM   14  H   UNL     1      22.422  47.267  49.778  1.00  0.00     0.160 HD
HETATM   15  H   UNL     1      22.730  47.781  48.184  1.00  0.00     0.160 HD
HETATM   16  O   UNL     1      18.281  48.260  51.179  1.00  0.00    -0.271 OA
ENDBRANCH   7   8
BRANCH   7  17
HETATM   17  C   UNL     1      17.429  50.565  49.145  1.00  0.00    -0.035 A 
HETATM   18  C   UNL     1      16.034  50.747  49.123  1.00  0.00     0.009 A 
HETATM   19  C   UNL     1      15.472  52.010  49.324  1.00  0.00     0.001 A 
HETATM   20  C   UNL     1      16.291  53.112  49.550  1.00  0.00     0.000 A 
HETATM   21  C   UNL     1      17.674  52.952  49.574  1.00  0.00     0.001 A 
HETATM   22  C   UNL     1      18.239  51.691  49.373  1.00  0.00     0.009 A 
ENDBRANCH   7  17
ENDBRANCH   6   7
ENDBRANCH   3   6
BRANCH   2  23
HETATM   23  C   UNL     1      16.645  49.956  45.618  1.00  0.00     0.043 A 
HETATM   24  C   UNL     1      15.269  50.220  45.570  1.00  0.00     0.033 A 
HETATM   25  C   UNL     1      14.814  51.541  45.604  1.00  0.00     0.044 A 
HETATM   26  C   UNL     1      15.727  52.586  45.688  1.00  0.00     0.116 A 
HETATM   27  F   UNL     1      15.286  53.848  45.722  1.00  0.00    -0.206 F 
HETATM   28  C   UNL     1      17.093  52.336  45.742  1.00  0.00     0.044 A 
HETATM   29  C   UNL     1      17.558  51.020  45.709  1.00  0.00     0.033 A 
ENDBRANCH   2  23
BRANCH   1  30
HETATM   30  C   UNL     1      17.366  48.333  43.035  1.00  0.00     0.255 C 
HETATM   31  C   UNL     1      15.882  48.316  42.659  1.00  0.00     0.049 C 
BRANCH  30  32
HETATM   32  N   UNL     1      17.955  49.720  42.671  1.00  0.00    -0.060 N 
HETATM   33  H   UNL     1      18.291  50.114  43.558  1.00  0.00     0.280 HD
HETATM   34  C   UNL     1      19.152  49.692  41.732  1.00  0.00     0.236 C 
HETATM   35  C   UNL     1      19.757  51.091  41.668  1.00  0.00     0.028 C 
HETATM   36  C   UNL     1      18.732  52.119  41.202  1.00  0.00     0.003 C 
HETATM   37  C   UNL     1      17.471  52.072  42.057  1.00  0.00     0.028 C 
HETATM   38  C   UNL     1      16.894  50.664  42.146  1.00  0.00     0.236 C 
ENDBRANCH  30  32
ENDBRANCH   1  30
TORSDOF 7
ENDMDL
MODEL 8
REMARK VINA RESULT:      -8.1     19.255     21.834
REMARK  7 active torsions:
REMARK  status: ('A' for Active; 'I' for Inactive)
REMARK    1  A    between atoms: C_2  and  N_3 
REMARK    2  A    between atoms: C_2  and  C_10 
REMARK    3  A    between atoms: N_11  and  C_12 
REMARK    4  A    between atoms: C_19  and  S_20 
REMARK    5  A    between atoms: S_20  and  C_21 
REMARK    6  A    between atoms: C_21  and  C_22 
REMARK    7  A    between atoms: C_21  and  C_28 
REMARK       I    between atoms: C_22  and  N_23 
REMARK       I    between atoms: N_23  and  C_24 
REMARK       I    between atoms: C_24  and  N_25 
ROOT
HETATM    1  C   UNL     1      40.869  41.851  65.576  1.00  0.00     0.166 A 
HETATM    2  N   UNL     1      40.378  43.124  65.863  1.00  0.00    -0.274 N 
HETATM    3  C   UNL     1      41.363  43.688  66.661  1.00  0.00     0.197 A 
HETATM    4  N   UNL     1      42.394  42.879  66.720  1.00  0.00    -0.122 NA
HETATM    5  N   UNL     1      42.102  41.748  66.025  1.00  0.00    -0.131 NA
ENDROOT
BRANCH   3   6
HETATM    6  S   UNL     1      41.267  45.256  67.385  1.00  0.00    -0.070 SA
BRANCH   6   7
HETATM    7  C   UNL     1      41.429  46.441  65.990  1.00  0.00     0.180 C 
BRANCH   7   8
HETATM    8  C   UNL     1      42.784  47.174  66.027  1.00  0.00     0.244 C 
HETATM    9  N   UNL     1      43.692  46.960  65.007  1.00  0.00    -0.278 N 
HETATM   10  C   UNL     1      43.731  45.950  64.081  1.00  0.00     0.320 C 
HETATM   11  H   UNL     1      44.530  47.509  65.108  1.00  0.00     0.173 HD
HETATM   12  N   UNL     1      44.826  46.008  63.276  1.00  0.00    -0.352 N 
HETATM   13  O   UNL     1      42.885  45.087  63.908  1.00  0.00    -0.247 OA
HETATM   14  H   UNL     1      45.712  46.334  63.636  1.00  0.00     0.160 HD
HETATM   15  H   UNL     1      44.896  45.234  62.623  1.00  0.00     0.160 HD
HETATM   16  O   UNL     1      43.136  47.930  66.941  1.00  0.00    -0.271 OA
ENDBRANCH   7   8
BRANCH   7  17
HETATM   17  C   UNL     1      40.204  47.329  65.809  1.00  0.00    -0.035 A 
HETATM   18  C   UNL     1      40.229  48.349  64.840  1.00  0.00     0.009 A 
HETATM   19  C   UNL     1      39.127  49.186  64.650  1.00  0.00     0.001 A 
HETATM   20  C   UNL     1      37.982  49.019  65.423  1.00  0.00     0.000 A 
HETATM   21  C   UNL     1      37.938  48.016  66.387  1.00  0.00     0.001 A 
HETATM   22  C   UNL     1      39.039  47.179  66.580  1.00  0.00     0.009 A 
ENDBRANCH   7  17
ENDBRANCH   6   7
ENDBRANCH   3   6
BRANCH   2  23
HETATM   23  C   UNL     1      39.131  43.659  65.446  1.00  0.00     0.043 A 
HETATM   24  C   UNL     1      38.993  44.274  64.194  1.00  0.00     0.033 A 
HETATM   25  C   UNL     1      37.754  44.791  63.807  1.00  0.00     0.044 A 
HETATM   26  C   UNL     1      36.664  44.690  64.665  1.00  0.00     0.116 A 
HETATM   27  F   UNL     1      35.479  45.185  64.290  1.00  0.00    -0.206 F 
HETATM   28  C   UNL     1      36.787  44.078  65.906  1.00  0.00     0.044 A 
HETATM   29  C   UNL     1      38.022  43.558  66.301  1.00  0.00     0.033 A 
ENDBRANCH   2  23
BRANCH   1  30
HETATM   30  C   UNL     1      40.083  40.702  65.027  1.00  0.00     0.255 C 
HETATM   31  C   UNL     1      39.915  40.808  63.508  1.00  0.00     0.049 C 
BRANCH  30  32
HETATM   32  N   UNL     1      40.674  39.308  65.365  1.00  0.00    -0.060 N 
HETATM   33  H   UNL     1      41.320  39.470  66.146  1.00  0.00     0.280 HD
HETATM   34  C   UNL     1      39.666  38.274  65.846  1.00  0.00     0.236 C 
HETATM   35  C   UNL     1      40.424  37.056  66.364  1.00  0.00     0.028 C 
HETATM   36  C   UNL     1      41.328  36.466  65.287  1.00  0.00     0.003 C 
HETATM   37  C   UNL     1      42.260  37.522  64.703  1.00  0.00     0.028 C 
HETATM   38  C   UNL     1      41.497  38.752  64.222  1.00  0.00     0.236 C 
ENDBRANCH  30  32
ENDBRANCH   1  30
TORSDOF 7
ENDMDL
MODEL 9
REMARK VINA RESULT:      -8.1      2.568      7.882
REMARK  7 active torsions:
REMARK  status: ('A' for Active; 'I' for Inactive)
REMARK    1  A    between atoms: C_2  and  N_3 
REMARK    2  A    between atoms: C_2  and  C_10 
REMARK    3  A    between atoms: N_11  and  C_12 
REMARK    4  A    between atoms: C_19  and  S_20 
REMARK    5  A    between atoms: S_20  and  C_21 
REMARK    6  A    between atoms: C_21  and  C_22 
REMARK    7  A    between atoms: C_21  and  C_28 
REMARK       I    between atoms: C_22  and  N_23 
REMARK       I    between atoms: N_23  and  C_24 
REMARK       I    between atoms: C_24  and  N_25 
ROOT
HETATM    1  C   UNL     1      24.866  45.174  51.344  1.00  0.00     0.166 A 
HETATM    2  N   UNL     1      24.579  45.914  50.198  1.00  0.00    -0.274 N 
HETATM    3  C   UNL     1      23.511  45.238  49.626  1.00  0.00     0.197 A 
HETATM    4  N   UNL     1      23.119  44.279  50.430  1.00  0.00    -0.122 NA
HETATM    5  N   UNL     1      23.942  44.252  51.511  1.00  0.00    -0.131 NA
ENDROOT
BRANCH   3   6
HETATM    6  S   UNL     1      22.765  45.665  48.124  1.00  0.00    -0.070 SA
BRANCH   6   7
HETATM    7  C   UNL     1      21.991  44.115  47.513  1.00  0.00     0.180 C 
BRANCH   7   8
HETATM    8  C   UNL     1      22.895  43.399  46.490  1.00  0.00     0.244 C 
HETATM    9  N   UNL     1      23.110  42.040  46.619  1.00  0.00    -0.278 N 
HETATM   10  C   UNL     1      22.895  41.229  47.702  1.00  0.00     0.320 C 
HETATM   11  H   UNL     1      23.687  41.664  45.883  1.00  0.00     0.173 HD
HETATM   12  N   UNL     1      23.307  39.948  47.498  1.00  0.00    -0.352 N 
HETATM   13  O   UNL     1      22.356  41.542  48.752  1.00  0.00    -0.247 OA
HETATM   14  H   UNL     1      24.122  39.754  46.934  1.00  0.00     0.160 HD
HETATM   15  H   UNL     1      23.205  39.351  48.312  1.00  0.00     0.160 HD
HETATM   16  O   UNL     1      23.478  43.974  45.563  1.00  0.00    -0.271 OA
ENDBRANCH   7   8
BRANCH   7  17
HETATM   17  C   UNL     1      20.536  44.291  47.097  1.00  0.00    -0.035 A 
HETATM   18  C   UNL     1      19.700  45.133  47.852  1.00  0.00     0.009 A 
HETATM   19  C   UNL     1      18.359  45.314  47.504  1.00  0.00     0.001 A 
HETATM   20  C   UNL     1      17.831  44.659  46.396  1.00  0.00     0.000 A 
HETATM   21  C   UNL     1      18.642  43.822  45.635  1.00  0.00     0.001 A 
HETATM   22  C   UNL     1      19.983  43.638  45.982  1.00  0.00     0.009 A 
ENDBRANCH   7  17
ENDBRANCH   6   7
ENDBRANCH   3   6
BRANCH   2  23
HETATM   23  C   UNL     1      25.276  47.063  49.741  1.00  0.00     0.043 A 
HETATM   24  C   UNL     1      26.674  47.065  49.639  1.00  0.00     0.033 A 
HETATM   25  C   UNL     1      27.336  48.209  49.184  1.00  0.00     0.044 A 
HETATM   26  C   UNL     1      26.604  49.338  48.832  1.00  0.00     0.116 A 
HETATM   27  F   UNL     1      27.241  50.430  48.396  1.00  0.00    -0.206 F 
HETATM   28  C   UNL     1      25.217  49.346  48.925  1.00  0.00     0.044 A 
HETATM   29  C   UNL     1      24.547  48.207  49.378  1.00  0.00     0.033 A 
ENDBRANCH   2  23
BRANCH   1  30
HETATM   30  C   UNL     1      26.118  45.257  52.161  1.00  0.00     0.255 C 
HETATM   31  C   UNL     1      25.899  46.060  53.447  1.00  0.00     0.049 C 
BRANCH  30  32
HETATM   32  N   UNL     1      26.727  43.880  52.532  1.00  0.00    -0.060 N 
HETATM   33  H   UNL     1      25.947  43.331  52.912  1.00  0.00     0.280 HD
HETATM   34  C   UNL     1      27.288  43.082  51.365  1.00  0.00     0.236 C 
HETATM   35  C   UNL     1      27.620  41.674  51.850  1.00  0.00     0.028 C 
HETATM   36  C   UNL     1      28.613  41.705  53.007  1.00  0.00     0.003 C 
HETATM   37  C   UNL     1      28.123  42.605  54.135  1.00  0.00     0.028 C 
HETATM   38  C   UNL     1      27.758  43.998  53.636  1.00  0.00     0.236 C 
ENDBRANCH  30  32
ENDBRANCH   1  30
TORSDOF 7
ENDMDL
MODEL 10
REMARK VINA RESULT:      -8.1     11.472     14.395
REMARK  7 active torsions:
REMARK  status: ('A' for Active; 'I' for Inactive)
REMARK    1  A    between atoms: C_2  and  N_3 
REMARK    2  A    between atoms: C_2  and  C_10 
REMARK    3  A    between atoms: N_11  and  C_12 
REMARK    4  A    between atoms: C_19  and  S_20 
REMARK    5  A    between atoms: S_20  and  C_21 
REMARK    6  A    between atoms: C_21  and  C_22 
REMARK    7  A    between atoms: C_21  and  C_28 
REMARK       I    between atoms: C_22  and  N_23 
REMARK       I    between atoms: N_23  and  C_24 
REMARK       I    between atoms: C_24  and  N_25 
ROOT
HETATM    1  C   UNL     1      31.694  49.432  41.097  1.00  0.00     0.166 A 
HETATM    2  N   UNL     1      30.724  49.431  40.097  1.00  0.00    -0.274 N 
HETATM    3  C   UNL     1      30.560  48.086  39.795  1.00  0.00     0.197 A 
HETATM    4  N   UNL     1      31.261  47.362  40.634  1.00  0.00    -0.122 NA
HETATM    5  N   UNL     1      31.947  48.193  41.462  1.00  0.00    -0.131 NA
ENDROOT
BRANCH   3   6
HETATM    6  S   UNL     1      29.517  47.473  38.559  1.00  0.00    -0.070 SA
BRANCH   6   7
HETATM    7  C   UNL     1      27.988  46.948  39.435  1.00  0.00     0.180 C 
BRANCH   7   8
HETATM    8  C   UNL     1      27.659  47.892  40.608  1.00  0.00     0.244 C 
HETATM    9  N   UNL     1      26.653  48.827  40.456  1.00  0.00    -0.278 N 
HETATM   10  C   UNL     1      26.064  49.286  39.306  1.00  0.00     0.320 C 
HETATM   11  H   UNL     1      26.495  49.371  41.289  1.00  0.00     0.173 HD
HETATM   12  N   UNL     1      25.161  50.280  39.530  1.00  0.00    -0.352 N 
HETATM   13  O   UNL     1      26.247  48.864  38.175  1.00  0.00    -0.247 OA
HETATM   14  H   UNL     1      25.310  50.951  40.270  1.00  0.00     0.160 HD
HETATM   15  H   UNL     1      24.760  50.667  38.683  1.00  0.00     0.160 HD
HETATM   16  O   UNL     1      28.267  47.893  41.685  1.00  0.00    -0.271 OA
ENDBRANCH   7   8
BRANCH   7  17
HETATM   17  C   UNL     1      27.960  45.460  39.758  1.00  0.00    -0.035 A 
HETATM   18  C   UNL     1      28.675  44.563  38.943  1.00  0.00     0.009 A 
HETATM   19  C   UNL     1      28.667  43.192  39.206  1.00  0.00     0.001 A 
HETATM   20  C   UNL     1      27.948  42.692  40.287  1.00  0.00     0.000 A 
HETATM   21  C   UNL     1      27.234  43.563  41.105  1.00  0.00     0.001 A 
HETATM   22  C   UNL     1      27.239  44.935  40.844  1.00  0.00     0.009 A 
ENDBRANCH   7  17
ENDBRANCH   6   7
ENDBRANCH   3   6
BRANCH   2  23
HETATM   23  C   UNL     1      30.106  50.571  39.521  1.00  0.00     0.043 A 
HETATM   24  C   UNL     1      29.095  51.264  40.203  1.00  0.00     0.033 A 
HETATM   25  C   UNL     1      28.504  52.386  39.615  1.00  0.00     0.044 A 
HETATM   26  C   UNL     1      28.923  52.810  38.358  1.00  0.00     0.116 A 
HETATM   27  F   UNL     1      28.355  53.885  37.800  1.00  0.00    -0.206 F 
HETATM   28  C   UNL     1      29.927  52.134  37.676  1.00  0.00     0.044 A 
HETATM   29  C   UNL     1      30.524  51.013  38.255  1.00  0.00     0.033 A 
ENDBRANCH   2  23
BRANCH   1  30
HETATM   30  C   UNL     1      32.484  50.616  41.563  1.00  0.00     0.255 C 
HETATM   31  C   UNL     1      32.493  50.722  43.090  1.00  0.00     0.049 C 
BRANCH  30  32
HETATM   32  N   UNL     1      33.949  50.642  41.054  1.00  0.00    -0.060 N 
HETATM   33  H   UNL     1      34.135  49.693  40.711  1.00  0.00     0.280 HD
HETATM   34  C   UNL     1      34.215  51.582  39.888  1.00  0.00     0.236 C 
HETATM   35  C   UNL     1      35.619  51.315  39.354  1.00  0.00     0.028 C 
HETATM   36  C   UNL     1      36.671  51.498  40.443  1.00  0.00     0.003 C 
HETATM   37  C   UNL     1      36.349  50.657  41.673  1.00  0.00     0.028 C 
HETATM   38  C   UNL     1      34.931  50.903  42.177  1.00  0.00     0.236 C 
ENDBRANCH  30  32
ENDBRANCH   1  30
TORSDOF 7
ENDMDL
