MODEL 1
REMARK VINA RESULT:      -9.0      0.000      0.000
REMARK  6 active torsions:
REMARK  status: ('A' for Active; 'I' for Inactive)
REMARK    1  A    between atoms: O_2  and  C_3 
REMARK    2  A    between atoms: C_6  and  C_7 
REMARK    3  A    between atoms: C_7  and  N_8 
REMARK       I    between atoms: N_8  and  C_9 
REMARK       I    between atoms: C_9  and  N_10 
REMARK    4  A    between atoms: N_10  and  C_11 
REMARK    5  A    between atoms: C_11  and  C_12 
REMARK    6  A    between atoms: C_13  and  C_14 
ROOT
HETATM    1  N   UNL     1      25.809  45.006  53.364  1.00  0.00    -0.339 N 
HETATM    2  C   UNL     1      25.084  45.291  52.255  1.00  0.00     0.316 C 
HETATM    3  N   UNL     1      25.319  46.497  51.678  1.00  0.00    -0.339 N 
HETATM    4  O   UNL     1      24.249  44.485  51.859  1.00  0.00    -0.247 OA
HETATM    5  H   UNL     1      25.580  44.102  53.754  1.00  0.00     0.164 HD
HETATM    6  H   UNL     1      26.225  46.913  51.826  1.00  0.00     0.164 HD
ENDROOT
BRANCH   3   7
HETATM    7  C   UNL     1      24.554  46.967  50.537  1.00  0.00     0.163 C 
BRANCH   7   8
HETATM    8  C   UNL     1      25.279  48.008  49.702  1.00  0.00    -0.029 A 
HETATM    9  C   UNL     1      24.557  48.908  48.887  1.00  0.00    -0.018 A 
HETATM   10  C   UNL     1      25.234  49.900  48.156  1.00  0.00     0.013 A 
HETATM   11  C   UNL     1      26.621  50.008  48.222  1.00  0.00     0.001 A 
HETATM   12  C   UNL     1      27.342  49.134  49.026  1.00  0.00     0.001 A 
HETATM   13  C   UNL     1      26.679  48.149  49.761  1.00  0.00     0.010 A 
BRANCH   9  14
HETATM   14  C   UNL     1      23.105  48.879  48.795  1.00  0.00    -0.018 A 
HETATM   15  C   UNL     1      22.317  49.761  49.508  1.00  0.00     0.061 A 
HETATM   16  S   UNL     1      20.647  49.492  49.248  1.00  0.00    -0.113 SA
HETATM   17  C   UNL     1      20.964  48.174  48.206  1.00  0.00     0.050 A 
HETATM   18  C   UNL     1      22.314  47.949  48.051  1.00  0.00     0.020 A 
ENDBRANCH   9  14
ENDBRANCH   7   8
ENDBRANCH   3   7
BRANCH   1  19
HETATM   19  C   UNL     1      26.676  45.869  54.135  1.00  0.00     0.162 C 
BRANCH  19  20
HETATM   20  C   UNL     1      27.960  45.207  54.573  1.00  0.00    -0.040 A 
HETATM   21  C   UNL     1      28.764  45.827  55.540  1.00  0.00     0.011 A 
HETATM   22  C   UNL     1      29.920  45.202  56.026  1.00  0.00     0.037 A 
HETATM   23  C   UNL     1      30.282  43.938  55.560  1.00  0.00     0.068 A 
HETATM   24  C   UNL     1      29.488  43.317  54.597  1.00  0.00     0.037 A 
HETATM   25  C   UNL     1      28.333  43.938  54.112  1.00  0.00     0.011 A 
BRANCH  23  26
HETATM   26  O   UNL     1      31.370  43.213  55.959  1.00  0.00    -0.356 OA
HETATM   27  C   UNL     1      31.811  43.399  57.298  1.00  0.00     0.210 C 
ENDBRANCH  23  26
ENDBRANCH  19  20
ENDBRANCH   1  19
TORSDOF 6
ENDMDL
MODEL 2
REMARK VINA RESULT:      -8.5      3.827      8.052
REMARK  6 active torsions:
REMARK  status: ('A' for Active; 'I' for Inactive)
REMARK    1  A    between atoms: O_2  and  C_3 
REMARK    2  A    between atoms: C_6  and  C_7 
REMARK    3  A    between atoms: C_7  and  N_8 
REMARK       I    between atoms: N_8  and  C_9 
REMARK       I    between atoms: C_9  and  N_10 
REMARK    4  A    between atoms: N_10  and  C_11 
REMARK    5  A    between atoms: C_11  and  C_12 
REMARK    6  A    between atoms: C_13  and  C_14 
ROOT
HETATM    1  N   UNL     1      26.681  41.920  51.321  1.00  0.00    -0.339 N 
HETATM    2  C   UNL     1      27.259  42.224  52.508  1.00  0.00     0.316 C 
HETATM    3  N   UNL     1      26.582  43.094  53.300  1.00  0.00    -0.339 N 
HETATM    4  O   UNL     1      28.352  41.741  52.786  1.00  0.00    -0.247 OA
HETATM    5  H   UNL     1      27.238  41.279  50.772  1.00  0.00     0.164 HD
HETATM    6  H   UNL     1      25.583  43.148  53.181  1.00  0.00     0.164 HD
ENDROOT
BRANCH   3   7
HETATM    7  C   UNL     1      27.125  43.574  54.558  1.00  0.00     0.163 C 
BRANCH   7   8
HETATM    8  C   UNL     1      27.264  45.084  54.629  1.00  0.00    -0.029 A 
HETATM    9  C   UNL     1      28.411  45.677  55.201  1.00  0.00    -0.018 A 
HETATM   10  C   UNL     1      28.553  47.075  55.217  1.00  0.00     0.013 A 
HETATM   11  C   UNL     1      27.568  47.895  54.673  1.00  0.00     0.001 A 
HETATM   12  C   UNL     1      26.438  47.325  54.099  1.00  0.00     0.001 A 
HETATM   13  C   UNL     1      26.290  45.936  54.073  1.00  0.00     0.010 A 
BRANCH   9  14
HETATM   14  C   UNL     1      29.499  44.885  55.758  1.00  0.00    -0.018 A 
HETATM   15  C   UNL     1      30.071  45.198  56.975  1.00  0.00     0.061 A 
HETATM   16  S   UNL     1      31.348  44.133  57.382  1.00  0.00    -0.113 SA
HETATM   17  C   UNL     1      31.166  43.265  55.919  1.00  0.00     0.050 A 
HETATM   18  C   UNL     1      30.148  43.771  55.141  1.00  0.00     0.020 A 
ENDBRANCH   9  14
ENDBRANCH   7   8
ENDBRANCH   3   7
BRANCH   1  19
HETATM   19  C   UNL     1      25.529  42.521  50.685  1.00  0.00     0.162 C 
BRANCH  19  20
HETATM   20  C   UNL     1      25.622  44.022  50.554  1.00  0.00    -0.040 A 
HETATM   21  C   UNL     1      26.747  44.595  49.943  1.00  0.00     0.011 A 
HETATM   22  C   UNL     1      26.827  45.978  49.733  1.00  0.00     0.037 A 
HETATM   23  C   UNL     1      25.777  46.809  50.121  1.00  0.00     0.068 A 
HETATM   24  C   UNL     1      24.656  46.245  50.732  1.00  0.00     0.037 A 
HETATM   25  C   UNL     1      24.573  44.865  50.940  1.00  0.00     0.011 A 
BRANCH  23  26
HETATM   26  O   UNL     1      25.720  48.166  49.963  1.00  0.00    -0.356 OA
HETATM   27  C   UNL     1      26.731  48.762  49.161  1.00  0.00     0.210 C 
ENDBRANCH  23  26
ENDBRANCH  19  20
ENDBRANCH   1  19
TORSDOF 6
ENDMDL
MODEL 3
REMARK VINA RESULT:      -8.1      3.546      9.361
REMARK  6 active torsions:
REMARK  status: ('A' for Active; 'I' for Inactive)
REMARK    1  A    between atoms: O_2  and  C_3 
REMARK    2  A    between atoms: C_6  and  C_7 
REMARK    3  A    between atoms: C_7  and  N_8 
REMARK       I    between atoms: N_8  and  C_9 
REMARK       I    between atoms: C_9  and  N_10 
REMARK    4  A    between atoms: N_10  and  C_11 
REMARK    5  A    between atoms: C_11  and  C_12 
REMARK    6  A    between atoms: C_13  and  C_14 
ROOT
HETATM    1  N   UNL     1      23.835  46.762  49.881  1.00  0.00    -0.339 N 
HETATM    2  C   UNL     1      24.412  45.807  50.648  1.00  0.00     0.316 C 
HETATM    3  N   UNL     1      25.573  46.151  51.262  1.00  0.00    -0.339 N 
HETATM    4  O   UNL     1      23.893  44.698  50.721  1.00  0.00    -0.247 OA
HETATM    5  H   UNL     1      22.982  46.442  49.441  1.00  0.00     0.164 HD
HETATM    6  H   UNL     1      25.726  47.129  51.449  1.00  0.00     0.164 HD
ENDROOT
BRANCH   3   7
HETATM    7  C   UNL     1      26.343  45.200  52.044  1.00  0.00     0.163 C 
BRANCH   7   8
HETATM    8  C   UNL     1      26.881  45.770  53.344  1.00  0.00    -0.029 A 
HETATM    9  C   UNL     1      27.817  45.047  54.116  1.00  0.00    -0.018 A 
HETATM   10  C   UNL     1      28.347  45.604  55.292  1.00  0.00     0.013 A 
HETATM   11  C   UNL     1      27.957  46.873  55.714  1.00  0.00     0.001 A 
HETATM   12  C   UNL     1      27.043  47.599  54.960  1.00  0.00     0.001 A 
HETATM   13  C   UNL     1      26.515  47.055  53.787  1.00  0.00     0.010 A 
BRANCH   9  14
HETATM   14  C   UNL     1      28.299  43.731  53.720  1.00  0.00    -0.018 A 
HETATM   15  C   UNL     1      27.600  42.582  54.031  1.00  0.00     0.061 A 
HETATM   16  S   UNL     1      28.397  41.170  53.482  1.00  0.00    -0.113 SA
HETATM   17  C   UNL     1      29.700  42.083  52.853  1.00  0.00     0.050 A 
HETATM   18  C   UNL     1      29.526  43.436  53.048  1.00  0.00     0.020 A 
ENDBRANCH   9  14
ENDBRANCH   7   8
ENDBRANCH   3   7
BRANCH   1  19
HETATM   19  C   UNL     1      24.361  48.045  49.469  1.00  0.00     0.162 C 
BRANCH  19  20
HETATM   20  C   UNL     1      23.295  49.058  49.129  1.00  0.00    -0.040 A 
HETATM   21  C   UNL     1      21.942  48.698  49.221  1.00  0.00     0.011 A 
HETATM   22  C   UNL     1      20.928  49.637  48.990  1.00  0.00     0.037 A 
HETATM   23  C   UNL     1      21.253  50.956  48.674  1.00  0.00     0.068 A 
HETATM   24  C   UNL     1      22.596  51.320  48.579  1.00  0.00     0.037 A 
HETATM   25  C   UNL     1      23.609  50.386  48.812  1.00  0.00     0.011 A 
BRANCH  23  26
HETATM   26  O   UNL     1      20.367  51.970  48.441  1.00  0.00    -0.356 OA
HETATM   27  C   UNL     1      18.984  51.644  48.502  1.00  0.00     0.210 C 
ENDBRANCH  23  26
ENDBRANCH  19  20
ENDBRANCH   1  19
TORSDOF 6
ENDMDL
MODEL 4
REMARK VINA RESULT:      -7.9      4.721     10.284
REMARK  6 active torsions:
REMARK  status: ('A' for Active; 'I' for Inactive)
REMARK    1  A    between atoms: O_2  and  C_3 
REMARK    2  A    between atoms: C_6  and  C_7 
REMARK    3  A    between atoms: C_7  and  N_8 
REMARK       I    between atoms: N_8  and  C_9 
REMARK       I    between atoms: C_9  and  N_10 
REMARK    4  A    between atoms: N_10  and  C_11 
REMARK    5  A    between atoms: C_11  and  C_12 
REMARK    6  A    between atoms: C_13  and  C_14 
ROOT
HETATM    1  N   UNL     1      20.427  49.228  48.516  1.00  0.00    -0.339 N 
HETATM    2  C   UNL     1      21.467  48.361  48.464  1.00  0.00     0.316 C 
HETATM    3  N   UNL     1      22.353  48.424  49.491  1.00  0.00    -0.339 N 
HETATM    4  O   UNL     1      21.576  47.609  47.502  1.00  0.00    -0.247 OA
HETATM    5  H   UNL     1      19.812  49.141  47.718  1.00  0.00     0.164 HD
HETATM    6  H   UNL     1      22.015  48.777  50.373  1.00  0.00     0.164 HD
ENDROOT
BRANCH   3   7
HETATM    7  C   UNL     1      23.558  47.615  49.521  1.00  0.00     0.163 C 
BRANCH   7   8
HETATM    8  C   UNL     1      24.828  48.399  49.245  1.00  0.00    -0.029 A 
HETATM    9  C   UNL     1      26.057  48.007  49.821  1.00  0.00    -0.018 A 
HETATM   10  C   UNL     1      27.236  48.710  49.520  1.00  0.00     0.013 A 
HETATM   11  C   UNL     1      27.212  49.801  48.655  1.00  0.00     0.001 A 
HETATM   12  C   UNL     1      26.011  50.193  48.075  1.00  0.00     0.001 A 
HETATM   13  C   UNL     1      24.834  49.497  48.364  1.00  0.00     0.010 A 
BRANCH   9  14
HETATM   14  C   UNL     1      26.168  46.857  50.706  1.00  0.00    -0.018 A 
HETATM   15  C   UNL     1      25.985  46.973  52.069  1.00  0.00     0.061 A 
HETATM   16  S   UNL     1      26.204  45.483  52.881  1.00  0.00    -0.113 SA
HETATM   17  C   UNL     1      26.577  44.677  51.419  1.00  0.00     0.050 A 
HETATM   18  C   UNL     1      26.527  45.523  50.334  1.00  0.00     0.020 A 
ENDBRANCH   9  14
ENDBRANCH   7   8
ENDBRANCH   3   7
BRANCH   1  19
HETATM   19  C   UNL     1      20.208  50.340  49.415  1.00  0.00     0.162 C 
BRANCH  19  20
HETATM   20  C   UNL     1      18.840  50.964  49.287  1.00  0.00    -0.040 A 
HETATM   21  C   UNL     1      17.795  50.230  48.707  1.00  0.00     0.011 A 
HETATM   22  C   UNL     1      16.495  50.749  48.646  1.00  0.00     0.037 A 
HETATM   23  C   UNL     1      16.218  52.009  49.176  1.00  0.00     0.068 A 
HETATM   24  C   UNL     1      17.254  52.746  49.752  1.00  0.00     0.037 A 
HETATM   25  C   UNL     1      18.551  52.228  49.816  1.00  0.00     0.011 A 
BRANCH  23  26
HETATM   26  O   UNL     1      14.998  52.625  49.196  1.00  0.00    -0.356 OA
HETATM   27  C   UNL     1      14.414  52.854  50.471  1.00  0.00     0.210 C 
ENDBRANCH  23  26
ENDBRANCH  19  20
ENDBRANCH   1  19
TORSDOF 6
ENDMDL
MODEL 5
REMARK VINA RESULT:      -7.8      3.551      8.464
REMARK  6 active torsions:
REMARK  status: ('A' for Active; 'I' for Inactive)
REMARK    1  A    between atoms: O_2  and  C_3 
REMARK    2  A    between atoms: C_6  and  C_7 
REMARK    3  A    between atoms: C_7  and  N_8 
REMARK       I    between atoms: N_8  and  C_9 
REMARK       I    between atoms: C_9  and  N_10 
REMARK    4  A    between atoms: N_10  and  C_11 
REMARK    5  A    between atoms: C_11  and  C_12 
REMARK    6  A    between atoms: C_13  and  C_14 
ROOT
HETATM    1  N   UNL     1      25.410  43.160  50.547  1.00  0.00    -0.339 N 
HETATM    2  C   UNL     1      26.304  43.260  51.559  1.00  0.00     0.316 C 
HETATM    3  N   UNL     1      25.796  43.561  52.782  1.00  0.00    -0.339 N 
HETATM    4  O   UNL     1      27.499  43.116  51.323  1.00  0.00    -0.247 OA
HETATM    5  H   UNL     1      25.850  42.947  49.662  1.00  0.00     0.164 HD
HETATM    6  H   UNL     1      24.837  43.306  52.961  1.00  0.00     0.164 HD
ENDROOT
BRANCH   3   7
HETATM    7  C   UNL     1      26.647  43.783  53.937  1.00  0.00     0.163 C 
BRANCH   7   8
HETATM    8  C   UNL     1      26.833  45.249  54.286  1.00  0.00    -0.029 A 
HETATM    9  C   UNL     1      28.035  45.704  54.873  1.00  0.00    -0.018 A 
HETATM   10  C   UNL     1      28.216  47.070  55.147  1.00  0.00     0.013 A 
HETATM   11  C   UNL     1      27.218  47.993  54.848  1.00  0.00     0.001 A 
HETATM   12  C   UNL     1      26.034  47.561  54.262  1.00  0.00     0.001 A 
HETATM   13  C   UNL     1      25.846  46.206  53.981  1.00  0.00     0.010 A 
BRANCH   9  14
HETATM   14  C   UNL     1      29.137  44.804  55.183  1.00  0.00    -0.018 A 
HETATM   15  C   UNL     1      29.984  45.038  56.247  1.00  0.00     0.061 A 
HETATM   16  S   UNL     1      31.212  43.852  56.370  1.00  0.00    -0.113 SA
HETATM   17  C   UNL     1      30.640  43.035  54.981  1.00  0.00     0.050 A 
HETATM   18  C   UNL     1      29.530  43.647  54.440  1.00  0.00     0.020 A 
ENDBRANCH   9  14
ENDBRANCH   7   8
ENDBRANCH   3   7
BRANCH   1  19
HETATM   19  C   UNL     1      24.003  43.499  50.533  1.00  0.00     0.162 C 
BRANCH  19  20
HETATM   20  C   UNL     1      23.718  44.881  49.996  1.00  0.00    -0.040 A 
HETATM   21  C   UNL     1      24.426  45.981  50.501  1.00  0.00     0.011 A 
HETATM   22  C   UNL     1      24.243  47.264  49.969  1.00  0.00     0.037 A 
HETATM   23  C   UNL     1      23.354  47.464  48.913  1.00  0.00     0.068 A 
HETATM   24  C   UNL     1      22.643  46.375  48.408  1.00  0.00     0.037 A 
HETATM   25  C   UNL     1      22.827  45.093  48.936  1.00  0.00     0.011 A 
BRANCH  23  26
HETATM   26  O   UNL     1      23.092  48.655  48.295  1.00  0.00    -0.356 OA
HETATM   27  C   UNL     1      24.135  49.620  48.291  1.00  0.00     0.210 C 
ENDBRANCH  23  26
ENDBRANCH  19  20
ENDBRANCH   1  19
TORSDOF 6
ENDMDL
MODEL 6
REMARK VINA RESULT:      -7.7      5.380      7.150
REMARK  6 active torsions:
REMARK  status: ('A' for Active; 'I' for Inactive)
REMARK    1  A    between atoms: O_2  and  C_3 
REMARK    2  A    between atoms: C_6  and  C_7 
REMARK    3  A    between atoms: C_7  and  N_8 
REMARK       I    between atoms: N_8  and  C_9 
REMARK       I    between atoms: C_9  and  N_10 
REMARK    4  A    between atoms: N_10  and  C_11 
REMARK    5  A    between atoms: C_11  and  C_12 
REMARK    6  A    between atoms: C_13  and  C_14 
ROOT
HETATM    1  N   UNL     1      26.845  44.682  51.770  1.00  0.00    -0.339 N 
HETATM    2  C   UNL     1      27.010  44.113  50.551  1.00  0.00     0.316 C 
HETATM    3  N   UNL     1      26.807  42.773  50.482  1.00  0.00    -0.339 N 
HETATM    4  O   UNL     1      27.361  44.810  49.605  1.00  0.00    -0.247 OA
HETATM    5  H   UNL     1      27.023  45.678  51.759  1.00  0.00     0.164 HD
HETATM    6  H   UNL     1      26.193  42.361  51.168  1.00  0.00     0.164 HD
ENDROOT
BRANCH   3   7
HETATM    7  C   UNL     1      27.032  42.021  49.261  1.00  0.00     0.163 C 
BRANCH   7   8
HETATM    8  C   UNL     1      27.792  40.724  49.472  1.00  0.00    -0.029 A 
HETATM    9  C   UNL     1      28.038  39.848  48.391  1.00  0.00    -0.018 A 
HETATM   10  C   UNL     1      28.785  38.674  48.587  1.00  0.00     0.013 A 
HETATM   11  C   UNL     1      29.291  38.356  49.846  1.00  0.00     0.001 A 
HETATM   12  C   UNL     1      29.063  39.212  50.916  1.00  0.00     0.001 A 
HETATM   13  C   UNL     1      28.326  40.385  50.730  1.00  0.00     0.010 A 
BRANCH   9  14
HETATM   14  C   UNL     1      27.573  40.131  47.041  1.00  0.00    -0.018 A 
HETATM   15  C   UNL     1      26.459  39.507  46.516  1.00  0.00     0.061 A 
HETATM   16  S   UNL     1      26.148  39.990  44.903  1.00  0.00    -0.113 SA
HETATM   17  C   UNL     1      27.519  41.011  44.885  1.00  0.00     0.050 A 
HETATM   18  C   UNL     1      28.195  40.992  46.085  1.00  0.00     0.020 A 
ENDBRANCH   9  14
ENDBRANCH   7   8
ENDBRANCH   3   7
BRANCH   1  19
HETATM   19  C   UNL     1      26.656  44.048  53.056  1.00  0.00     0.162 C 
BRANCH  19  20
HETATM   20  C   UNL     1      27.904  44.013  53.905  1.00  0.00    -0.040 A 
HETATM   21  C   UNL     1      28.856  43.004  53.696  1.00  0.00     0.011 A 
HETATM   22  C   UNL     1      30.060  42.989  54.411  1.00  0.00     0.037 A 
HETATM   23  C   UNL     1      30.337  43.992  55.340  1.00  0.00     0.068 A 
HETATM   24  C   UNL     1      29.393  44.997  55.555  1.00  0.00     0.037 A 
HETATM   25  C   UNL     1      28.192  45.015  54.840  1.00  0.00     0.011 A 
BRANCH  23  26
HETATM   26  O   UNL     1      31.473  44.105  56.091  1.00  0.00    -0.356 OA
HETATM   27  C   UNL     1      31.323  44.014  57.502  1.00  0.00     0.210 C 
ENDBRANCH  23  26
ENDBRANCH  19  20
ENDBRANCH   1  19
TORSDOF 6
ENDMDL
MODEL 7
REMARK VINA RESULT:      -7.6      3.587      5.216
REMARK  6 active torsions:
REMARK  status: ('A' for Active; 'I' for Inactive)
REMARK    1  A    between atoms: O_2  and  C_3 
REMARK    2  A    between atoms: C_6  and  C_7 
REMARK    3  A    between atoms: C_7  and  N_8 
REMARK       I    between atoms: N_8  and  C_9 
REMARK       I    between atoms: C_9  and  N_10 
REMARK    4  A    between atoms: N_10  and  C_11 
REMARK    5  A    between atoms: C_11  and  C_12 
REMARK    6  A    between atoms: C_13  and  C_14 
ROOT
HETATM    1  N   UNL     1      28.376  40.771  52.315  1.00  0.00    -0.339 N 
HETATM    2  C   UNL     1      28.142  41.151  51.036  1.00  0.00     0.316 C 
HETATM    3  N   UNL     1      27.329  42.225  50.868  1.00  0.00    -0.339 N 
HETATM    4  O   UNL     1      28.631  40.502  50.117  1.00  0.00    -0.247 OA
HETATM    5  H   UNL     1      28.977  39.959  52.374  1.00  0.00     0.164 HD
HETATM    6  H   UNL     1      27.277  42.890  51.624  1.00  0.00     0.164 HD
ENDROOT
BRANCH   3   7
HETATM    7  C   UNL     1      26.924  42.687  49.553  1.00  0.00     0.163 C 
BRANCH   7   8
HETATM    8  C   UNL     1      25.467  42.410  49.229  1.00  0.00    -0.029 A 
HETATM    9  C   UNL     1      24.458  43.325  49.605  1.00  0.00    -0.018 A 
HETATM   10  C   UNL     1      23.118  43.084  49.257  1.00  0.00     0.013 A 
HETATM   11  C   UNL     1      22.764  41.943  48.541  1.00  0.00     0.001 A 
HETATM   12  C   UNL     1      23.747  41.040  48.156  1.00  0.00     0.001 A 
HETATM   13  C   UNL     1      25.083  41.273  48.493  1.00  0.00     0.010 A 
BRANCH   9  14
HETATM   14  C   UNL     1      24.755  44.555  50.325  1.00  0.00    -0.018 A 
HETATM   15  C   UNL     1      25.032  45.733  49.659  1.00  0.00     0.061 A 
HETATM   16  S   UNL     1      25.379  47.018  50.736  1.00  0.00    -0.113 SA
HETATM   17  C   UNL     1      25.194  46.001  52.098  1.00  0.00     0.050 A 
HETATM   18  C   UNL     1      24.865  44.712  51.742  1.00  0.00     0.020 A 
ENDBRANCH   9  14
ENDBRANCH   7   8
ENDBRANCH   3   7
BRANCH   1  19
HETATM   19  C   UNL     1      27.747  41.230  53.534  1.00  0.00     0.162 C 
BRANCH  19  20
HETATM   20  C   UNL     1      28.354  42.494  54.092  1.00  0.00    -0.040 A 
HETATM   21  C   UNL     1      27.542  43.618  54.305  1.00  0.00     0.011 A 
HETATM   22  C   UNL     1      28.056  44.779  54.895  1.00  0.00     0.037 A 
HETATM   23  C   UNL     1      29.391  44.830  55.294  1.00  0.00     0.068 A 
HETATM   24  C   UNL     1      30.206  43.717  55.084  1.00  0.00     0.037 A 
HETATM   25  C   UNL     1      29.694  42.556  54.497  1.00  0.00     0.011 A 
BRANCH  23  26
HETATM   26  O   UNL     1      30.014  45.890  55.893  1.00  0.00    -0.356 OA
HETATM   27  C   UNL     1      30.120  45.857  57.310  1.00  0.00     0.210 C 
ENDBRANCH  23  26
ENDBRANCH  19  20
ENDBRANCH   1  19
TORSDOF 6
ENDMDL
MODEL 8
REMARK VINA RESULT:      -7.6      2.256      3.510
REMARK  6 active torsions:
REMARK  status: ('A' for Active; 'I' for Inactive)
REMARK    1  A    between atoms: O_2  and  C_3 
REMARK    2  A    between atoms: C_6  and  C_7 
REMARK    3  A    between atoms: C_7  and  N_8 
REMARK       I    between atoms: N_8  and  C_9 
REMARK       I    between atoms: C_9  and  N_10 
REMARK    4  A    between atoms: N_10  and  C_11 
REMARK    5  A    between atoms: C_11  and  C_12 
REMARK    6  A    between atoms: C_13  and  C_14 
ROOT
HETATM    1  N   UNL     1      25.963  47.210  51.243  1.00  0.00    -0.339 N 
HETATM    2  C   UNL     1      25.356  47.421  50.051  1.00  0.00     0.316 C 
HETATM    3  N   UNL     1      24.008  47.258  50.026  1.00  0.00    -0.339 N 
HETATM    4  O   UNL     1      26.037  47.705  49.070  1.00  0.00    -0.247 OA
HETATM    5  H   UNL     1      26.966  47.334  51.193  1.00  0.00     0.164 HD
HETATM    6  H   UNL     1      23.510  47.389  50.892  1.00  0.00     0.164 HD
ENDROOT
BRANCH   3   7
HETATM    7  C   UNL     1      23.241  47.368  48.799  1.00  0.00     0.163 C 
BRANCH   7   8
HETATM    8  C   UNL     1      22.528  48.698  48.640  1.00  0.00    -0.029 A 
HETATM    9  C   UNL     1      21.201  48.753  48.158  1.00  0.00    -0.018 A 
HETATM   10  C   UNL     1      20.532  49.985  48.062  1.00  0.00     0.013 A 
HETATM   11  C   UNL     1      21.165  51.168  48.437  1.00  0.00     0.001 A 
HETATM   12  C   UNL     1      22.467  51.128  48.920  1.00  0.00     0.001 A 
HETATM   13  C   UNL     1      23.139  49.907  49.025  1.00  0.00     0.010 A 
BRANCH   9  14
HETATM   14  C   UNL     1      20.462  47.556  47.781  1.00  0.00    -0.018 A 
HETATM   15  C   UNL     1      19.688  46.867  48.693  1.00  0.00     0.061 A 
HETATM   16  S   UNL     1      18.956  45.481  48.004  1.00  0.00    -0.113 SA
HETATM   17  C   UNL     1      19.694  45.775  46.489  1.00  0.00     0.050 A 
HETATM   18  C   UNL     1      20.475  46.910  46.506  1.00  0.00     0.020 A 
ENDBRANCH   9  14
ENDBRANCH   7   8
ENDBRANCH   3   7
BRANCH   1  19
HETATM   19  C   UNL     1      25.414  46.661  52.463  1.00  0.00     0.162 C 
BRANCH  19  20
HETATM   20  C   UNL     1      26.409  46.582  53.595  1.00  0.00    -0.040 A 
HETATM   21  C   UNL     1      26.479  47.625  54.531  1.00  0.00     0.011 A 
HETATM   22  C   UNL     1      27.335  47.546  55.637  1.00  0.00     0.037 A 
HETATM   23  C   UNL     1      28.127  46.415  55.832  1.00  0.00     0.068 A 
HETATM   24  C   UNL     1      28.064  45.374  54.905  1.00  0.00     0.037 A 
HETATM   25  C   UNL     1      27.209  45.450  53.801  1.00  0.00     0.011 A 
BRANCH  23  26
HETATM   26  O   UNL     1      28.989  46.203  56.871  1.00  0.00    -0.356 OA
HETATM   27  C   UNL     1      30.251  45.631  56.554  1.00  0.00     0.210 C 
ENDBRANCH  23  26
ENDBRANCH  19  20
ENDBRANCH   1  19
TORSDOF 6
ENDMDL
MODEL 9
REMARK VINA RESULT:      -7.5      2.571      3.525
REMARK  6 active torsions:
REMARK  status: ('A' for Active; 'I' for Inactive)
REMARK    1  A    between atoms: O_2  and  C_3 
REMARK    2  A    between atoms: C_6  and  C_7 
REMARK    3  A    between atoms: C_7  and  N_8 
REMARK       I    between atoms: N_8  and  C_9 
REMARK       I    between atoms: C_9  and  N_10 
REMARK    4  A    between atoms: N_10  and  C_11 
REMARK    5  A    between atoms: C_11  and  C_12 
REMARK    6  A    between atoms: C_13  and  C_14 
ROOT
HETATM    1  N   UNL     1      25.794  45.324  53.670  1.00  0.00    -0.339 N 
HETATM    2  C   UNL     1      25.336  45.015  52.433  1.00  0.00     0.316 C 
HETATM    3  N   UNL     1      26.117  45.396  51.391  1.00  0.00    -0.339 N 
HETATM    4  O   UNL     1      24.251  44.455  52.316  1.00  0.00    -0.247 OA
HETATM    5  H   UNL     1      25.162  45.026  54.402  1.00  0.00     0.164 HD
HETATM    6  H   UNL     1      27.104  45.503  51.567  1.00  0.00     0.164 HD
ENDROOT
BRANCH   3   7
HETATM    7  C   UNL     1      25.708  45.206  50.011  1.00  0.00     0.163 C 
BRANCH   7   8
HETATM    8  C   UNL     1      24.578  46.121  49.577  1.00  0.00    -0.029 A 
HETATM    9  C   UNL     1      23.455  45.606  48.890  1.00  0.00    -0.018 A 
HETATM   10  C   UNL     1      22.391  46.453  48.536  1.00  0.00     0.013 A 
HETATM   11  C   UNL     1      22.427  47.809  48.853  1.00  0.00     0.001 A 
HETATM   12  C   UNL     1      23.521  48.327  49.535  1.00  0.00     0.001 A 
HETATM   13  C   UNL     1      24.581  47.493  49.896  1.00  0.00     0.010 A 
BRANCH   9  14
HETATM   14  C   UNL     1      23.331  44.194  48.556  1.00  0.00    -0.018 A 
HETATM   15  C   UNL     1      23.533  43.736  47.269  1.00  0.00     0.061 A 
HETATM   16  S   UNL     1      23.292  42.046  47.139  1.00  0.00    -0.113 SA
HETATM   17  C   UNL     1      22.884  41.920  48.795  1.00  0.00     0.050 A 
HETATM   18  C   UNL     1      22.939  43.139  49.436  1.00  0.00     0.020 A 
ENDBRANCH   9  14
ENDBRANCH   7   8
ENDBRANCH   3   7
BRANCH   1  19
HETATM   19  C   UNL     1      26.912  46.161  54.047  1.00  0.00     0.162 C 
BRANCH  19  20
HETATM   20  C   UNL     1      28.075  45.395  54.627  1.00  0.00    -0.040 A 
HETATM   21  C   UNL     1      28.467  44.182  54.042  1.00  0.00     0.011 A 
HETATM   22  C   UNL     1      29.592  43.487  54.506  1.00  0.00     0.037 A 
HETATM   23  C   UNL     1      30.351  44.002  55.556  1.00  0.00     0.068 A 
HETATM   24  C   UNL     1      29.965  45.207  56.145  1.00  0.00     0.037 A 
HETATM   25  C   UNL     1      28.845  45.903  55.682  1.00  0.00     0.011 A 
BRANCH  23  26
HETATM   26  O   UNL     1      31.473  43.436  56.093  1.00  0.00    -0.356 OA
HETATM   27  C   UNL     1      31.733  43.700  57.466  1.00  0.00     0.210 C 
ENDBRANCH  23  26
ENDBRANCH  19  20
ENDBRANCH   1  19
TORSDOF 6
ENDMDL
MODEL 10
REMARK VINA RESULT:      -7.5      5.293      8.704
REMARK  6 active torsions:
REMARK  status: ('A' for Active; 'I' for Inactive)
REMARK    1  A    between atoms: O_2  and  C_3 
REMARK    2  A    between atoms: C_6  and  C_7 
REMARK    3  A    between atoms: C_7  and  N_8 
REMARK       I    between atoms: N_8  and  C_9 
REMARK       I    between atoms: C_9  and  N_10 
REMARK    4  A    between atoms: N_10  and  C_11 
REMARK    5  A    between atoms: C_11  and  C_12 
REMARK    6  A    between atoms: C_13  and  C_14 
ROOT
HETATM    1  N   UNL     1      27.103  40.665  51.813  1.00  0.00    -0.339 N 
HETATM    2  C   UNL     1      27.718  41.283  52.850  1.00  0.00     0.316 C 
HETATM    3  N   UNL     1      27.211  42.488  53.217  1.00  0.00    -0.339 N 
HETATM    4  O   UNL     1      28.697  40.756  53.369  1.00  0.00    -0.247 OA
HETATM    5  H   UNL     1      27.533  39.780  51.579  1.00  0.00     0.164 HD
HETATM    6  H   UNL     1      26.241  42.665  53.009  1.00  0.00     0.164 HD
ENDROOT
BRANCH   3   7
HETATM    7  C   UNL     1      27.824  43.297  54.254  1.00  0.00     0.163 C 
BRANCH   7   8
HETATM    8  C   UNL     1      27.445  44.766  54.188  1.00  0.00    -0.029 A 
HETATM    9  C   UNL     1      28.108  45.719  54.993  1.00  0.00    -0.018 A 
HETATM   10  C   UNL     1      27.783  47.082  54.888  1.00  0.00     0.013 A 
HETATM   11  C   UNL     1      26.805  47.513  53.995  1.00  0.00     0.001 A 
HETATM   12  C   UNL     1      26.151  46.587  53.192  1.00  0.00     0.001 A 
HETATM   13  C   UNL     1      26.470  45.231  53.284  1.00  0.00     0.010 A 
BRANCH   9  14
HETATM   14  C   UNL     1      29.164  45.349  55.924  1.00  0.00    -0.018 A 
HETATM   15  C   UNL     1      29.243  45.904  57.186  1.00  0.00     0.061 A 
HETATM   16  S   UNL     1      30.594  45.326  58.063  1.00  0.00    -0.113 SA
HETATM   17  C   UNL     1      31.102  44.355  56.750  1.00  0.00     0.050 A 
HETATM   18  C   UNL     1      30.255  44.461  55.669  1.00  0.00     0.020 A 
ENDBRANCH   9  14
ENDBRANCH   7   8
ENDBRANCH   3   7
BRANCH   1  19
HETATM   19  C   UNL     1      26.091  41.177  50.914  1.00  0.00     0.162 C 
BRANCH  19  20
HETATM   20  C   UNL     1      26.468  41.081  49.456  1.00  0.00    -0.040 A 
HETATM   21  C   UNL     1      27.815  40.918  49.098  1.00  0.00     0.011 A 
HETATM   22  C   UNL     1      28.190  40.745  47.759  1.00  0.00     0.037 A 
HETATM   23  C   UNL     1      27.220  40.719  46.757  1.00  0.00     0.068 A 
HETATM   24  C   UNL     1      25.879  40.883  47.106  1.00  0.00     0.037 A 
HETATM   25  C   UNL     1      25.503  41.053  48.442  1.00  0.00     0.011 A 
BRANCH  23  26
HETATM   26  O   UNL     1      27.446  40.544  45.421  1.00  0.00    -0.356 OA
HETATM   27  C   UNL     1      28.074  39.330  45.028  1.00  0.00     0.210 C 
ENDBRANCH  23  26
ENDBRANCH  19  20
ENDBRANCH   1  19
TORSDOF 6
ENDMDL
