MODEL 1
REMARK VINA RESULT:     -11.5      0.000      0.000
REMARK  6 active torsions:
REMARK  status: ('A' for Active; 'I' for Inactive)
REMARK    1  A    between atoms: N_4  and  C_5 
REMARK    2  A    between atoms: C_13  and  C_14 
REMARK    3  A    between atoms: C_18  and  C_19 
REMARK       I    between atoms: C_19  and  N_20 
REMARK    4  A    between atoms: N_20  and  N_21 
REMARK    5  A    between atoms: C_22  and  C_23 
REMARK    6  A    between atoms: C_24  and  O_25 
ROOT
HETATM    1  C   UNL     1      22.499  47.937  49.104  1.00  0.00     0.093 A 
HETATM    2  N   UNL     1      22.209  46.654  48.874  1.00  0.00    -0.173 NA
HETATM    3  N   UNL     1      23.336  46.004  49.203  1.00  0.00    -0.272 N 
HETATM    4  H   UNL     1      23.370  44.993  49.112  1.00  0.00     0.189 HD
HETATM    5  C   UNL     1      24.352  46.823  49.623  1.00  0.00     0.121 A 
HETATM    6  C   UNL     1      23.824  48.100  49.570  1.00  0.00     0.071 A 
ENDROOT
BRANCH   5   7
HETATM    7  C   UNL     1      25.636  46.279  49.984  1.00  0.00     0.289 C 
HETATM    8  N   UNL     1      25.645  45.500  51.133  1.00  0.00    -0.242 N 
HETATM    9  H   UNL     1      24.793  45.342  51.656  1.00  0.00     0.192 HD
HETATM   10  O   UNL     1      26.638  46.506  49.310  1.00  0.00    -0.264 OA
BRANCH   8  11
HETATM   11  N   UNL     1      26.820  44.981  51.586  1.00  0.00    -0.183 NA
HETATM   12  C   UNL     1      26.881  44.715  52.854  1.00  0.00     0.153 C 
BRANCH  12  13
HETATM   13  C   UNL     1      28.122  44.177  53.467  1.00  0.00     0.027 A 
HETATM   14  C   UNL     1      28.799  43.120  52.829  1.00  0.00     0.078 A 
HETATM   15  C   UNL     1      29.988  42.625  53.345  1.00  0.00     0.038 A 
HETATM   16  C   UNL     1      30.518  43.172  54.508  1.00  0.00     0.015 A 
HETATM   17  C   UNL     1      29.864  44.216  55.178  1.00  0.00    -0.025 A 
HETATM   18  C   UNL     1      28.644  44.741  54.672  1.00  0.00    -0.012 A 
HETATM   19  C   UNL     1      30.430  44.734  56.354  1.00  0.00     0.012 A 
HETATM   20  C   UNL     1      28.039  45.785  55.423  1.00  0.00     0.013 A 
HETATM   21  C   UNL     1      28.613  46.286  56.595  1.00  0.00     0.001 A 
HETATM   22  C   UNL     1      29.811  45.763  57.058  1.00  0.00     0.001 A 
BRANCH  14  23
HETATM   23  O   UNL     1      28.366  42.515  51.679  1.00  0.00    -0.360 OA
HETATM   24  H   UNL     1      27.687  41.841  51.911  1.00  0.00     0.217 HD
ENDBRANCH  14  23
ENDBRANCH  12  13
ENDBRANCH   8  11
ENDBRANCH   5   7
BRANCH   1  25
HETATM   25  C   UNL     1      21.547  49.019  48.850  1.00  0.00     0.045 C 
HETATM   26  C   UNL     1      21.823  50.269  48.260  1.00  0.00     0.066 C 
HETATM   27  C   UNL     1      23.113  50.833  47.790  1.00  0.00     0.073 C 
HETATM   28  N   UNL     1      20.712  50.995  48.123  1.00  0.00    -0.171 NA
HETATM   29  N   UNL     1      19.736  50.294  48.767  1.00  0.00    -0.237 N 
HETATM   30  C   UNL     1      20.185  49.024  49.110  1.00  0.00     0.047 C 
HETATM   31  C   UNL     1      19.335  47.903  49.592  1.00  0.00     0.071 C 
BRANCH  29  32
HETATM   32  C   UNL     1      18.470  50.922  48.981  1.00  0.00     0.058 A 
HETATM   33  C   UNL     1      17.327  50.376  48.368  1.00  0.00     0.031 A 
HETATM   34  C   UNL     1      16.072  50.961  48.548  1.00  0.00     0.002 A 
HETATM   35  C   UNL     1      15.942  52.105  49.329  1.00  0.00     0.000 A 
HETATM   36  C   UNL     1      17.070  52.672  49.919  1.00  0.00     0.002 A 
HETATM   37  C   UNL     1      18.330  52.088  49.744  1.00  0.00     0.031 A 
ENDBRANCH  29  32
ENDBRANCH   1  25
TORSDOF 6
ENDMDL
MODEL 2
REMARK VINA RESULT:     -11.3      2.286     11.733
REMARK  6 active torsions:
REMARK  status: ('A' for Active; 'I' for Inactive)
REMARK    1  A    between atoms: N_4  and  C_5 
REMARK    2  A    between atoms: C_13  and  C_14 
REMARK    3  A    between atoms: C_18  and  C_19 
REMARK       I    between atoms: C_19  and  N_20 
REMARK    4  A    between atoms: N_20  and  N_21 
REMARK    5  A    between atoms: C_22  and  C_23 
REMARK    6  A    between atoms: C_24  and  O_25 
ROOT
HETATM    1  C   UNL     1      26.223  45.218  52.312  1.00  0.00     0.093 A 
HETATM    2  N   UNL     1      25.045  44.594  52.406  1.00  0.00    -0.173 NA
HETATM    3  N   UNL     1      24.255  45.266  51.554  1.00  0.00    -0.272 N 
HETATM    4  H   UNL     1      23.287  44.978  51.444  1.00  0.00     0.189 HD
HETATM    5  C   UNL     1      24.874  46.313  50.923  1.00  0.00     0.121 A 
HETATM    6  C   UNL     1      26.171  46.300  51.403  1.00  0.00     0.071 A 
ENDROOT
BRANCH   5   7
HETATM    7  C   UNL     1      24.151  47.150  50.000  1.00  0.00     0.289 C 
HETATM    8  N   UNL     1      23.127  46.517  49.309  1.00  0.00    -0.242 N 
HETATM    9  H   UNL     1      22.926  45.539  49.467  1.00  0.00     0.192 HD
HETATM   10  O   UNL     1      24.443  48.334  49.850  1.00  0.00    -0.264 OA
BRANCH   8  11
HETATM   11  N   UNL     1      22.416  47.210  48.376  1.00  0.00    -0.183 NA
HETATM   12  C   UNL     1      21.196  47.516  48.694  1.00  0.00     0.153 C 
BRANCH  12  13
HETATM   13  C   UNL     1      20.314  48.242  47.744  1.00  0.00     0.027 A 
HETATM   14  C   UNL     1      19.834  47.568  46.604  1.00  0.00     0.078 A 
HETATM   15  C   UNL     1      18.969  48.197  45.721  1.00  0.00     0.038 A 
HETATM   16  C   UNL     1      18.572  49.509  45.957  1.00  0.00     0.015 A 
HETATM   17  C   UNL     1      19.040  50.214  47.074  1.00  0.00    -0.025 A 
HETATM   18  C   UNL     1      19.929  49.595  47.995  1.00  0.00    -0.012 A 
HETATM   19  C   UNL     1      18.621  51.540  47.271  1.00  0.00     0.012 A 
HETATM   20  C   UNL     1      20.369  50.388  49.088  1.00  0.00     0.013 A 
HETATM   21  C   UNL     1      19.945  51.709  49.266  1.00  0.00     0.001 A 
HETATM   22  C   UNL     1      19.067  52.283  48.360  1.00  0.00     0.001 A 
BRANCH  14  23
HETATM   23  O   UNL     1      20.159  46.277  46.282  1.00  0.00    -0.360 OA
HETATM   24  H   UNL     1      20.967  46.284  45.721  1.00  0.00     0.217 HD
ENDBRANCH  14  23
ENDBRANCH  12  13
ENDBRANCH   8  11
ENDBRANCH   5   7
BRANCH   1  25
HETATM   25  C   UNL     1      27.388  44.826  53.104  1.00  0.00     0.045 C 
HETATM   26  C   UNL     1      28.236  43.724  52.876  1.00  0.00     0.066 C 
HETATM   27  C   UNL     1      28.162  42.668  51.835  1.00  0.00     0.073 C 
HETATM   28  N   UNL     1      29.239  43.695  53.756  1.00  0.00    -0.171 NA
HETATM   29  N   UNL     1      28.963  44.678  54.658  1.00  0.00    -0.237 N 
HETATM   30  C   UNL     1      27.908  45.470  54.216  1.00  0.00     0.047 C 
HETATM   31  C   UNL     1      27.495  46.772  54.805  1.00  0.00     0.071 C 
BRANCH  29  32
HETATM   32  C   UNL     1      29.747  44.754  55.850  1.00  0.00     0.058 A 
HETATM   33  C   UNL     1      30.754  43.794  56.064  1.00  0.00     0.031 A 
HETATM   34  C   UNL     1      31.541  43.830  57.217  1.00  0.00     0.002 A 
HETATM   35  C   UNL     1      31.324  44.814  58.178  1.00  0.00     0.000 A 
HETATM   36  C   UNL     1      30.312  45.753  57.991  1.00  0.00     0.002 A 
HETATM   37  C   UNL     1      29.523  45.723  56.836  1.00  0.00     0.031 A 
ENDBRANCH  29  32
ENDBRANCH   1  25
TORSDOF 6
ENDMDL
MODEL 3
REMARK VINA RESULT:     -10.7      2.062      3.128
REMARK  6 active torsions:
REMARK  status: ('A' for Active; 'I' for Inactive)
REMARK    1  A    between atoms: N_4  and  C_5 
REMARK    2  A    between atoms: C_13  and  C_14 
REMARK    3  A    between atoms: C_18  and  C_19 
REMARK       I    between atoms: C_19  and  N_20 
REMARK    4  A    between atoms: N_20  and  N_21 
REMARK    5  A    between atoms: C_22  and  C_23 
REMARK    6  A    between atoms: C_24  and  O_25 
ROOT
HETATM    1  C   UNL     1      22.659  49.124  48.099  1.00  0.00     0.093 A 
HETATM    2  N   UNL     1      23.565  49.837  47.423  1.00  0.00    -0.173 NA
HETATM    3  N   UNL     1      24.725  49.544  48.029  1.00  0.00    -0.272 N 
HETATM    4  H   UNL     1      25.583  49.971  47.691  1.00  0.00     0.189 HD
HETATM    5  C   UNL     1      24.602  48.679  49.085  1.00  0.00     0.121 A 
HETATM    6  C   UNL     1      23.253  48.386  49.150  1.00  0.00     0.071 A 
ENDROOT
BRANCH   5   7
HETATM    7  C   UNL     1      25.755  48.290  49.858  1.00  0.00     0.289 C 
HETATM    8  N   UNL     1      25.474  47.589  51.023  1.00  0.00    -0.242 N 
HETATM    9  H   UNL     1      24.519  47.379  51.281  1.00  0.00     0.192 HD
HETATM   10  O   UNL     1      26.893  48.574  49.493  1.00  0.00    -0.264 OA
BRANCH   8  11
HETATM   11  N   UNL     1      26.493  47.219  51.848  1.00  0.00    -0.183 NA
HETATM   12  C   UNL     1      26.210  46.329  52.748  1.00  0.00     0.153 C 
BRANCH  12  13
HETATM   13  C   UNL     1      27.232  45.873  53.725  1.00  0.00     0.027 A 
HETATM   14  C   UNL     1      27.428  46.613  54.906  1.00  0.00     0.078 A 
HETATM   15  C   UNL     1      28.338  46.192  55.865  1.00  0.00     0.038 A 
HETATM   16  C   UNL     1      29.069  45.027  55.659  1.00  0.00     0.015 A 
HETATM   17  C   UNL     1      28.910  44.272  54.489  1.00  0.00    -0.025 A 
HETATM   18  C   UNL     1      27.986  44.682  53.489  1.00  0.00    -0.012 A 
HETATM   19  C   UNL     1      29.674  43.107  54.316  1.00  0.00     0.012 A 
HETATM   20  C   UNL     1      27.901  43.869  52.327  1.00  0.00     0.013 A 
HETATM   21  C   UNL     1      28.673  42.715  52.170  1.00  0.00     0.001 A 
HETATM   22  C   UNL     1      29.557  42.331  53.167  1.00  0.00     0.001 A 
BRANCH  14  23
HETATM   23  O   UNL     1      26.757  47.769  55.209  1.00  0.00    -0.360 OA
HETATM   24  H   UNL     1      26.720  48.334  54.404  1.00  0.00     0.217 HD
ENDBRANCH  14  23
ENDBRANCH  12  13
ENDBRANCH   8  11
ENDBRANCH   5   7
BRANCH   1  25
HETATM   25  C   UNL     1      21.231  49.165  47.789  1.00  0.00     0.045 C 
HETATM   26  C   UNL     1      20.464  48.145  47.190  1.00  0.00     0.066 C 
HETATM   27  C   UNL     1      20.883  46.813  46.687  1.00  0.00     0.073 C 
HETATM   28  N   UNL     1      19.178  48.492  47.106  1.00  0.00    -0.171 NA
HETATM   29  N   UNL     1      19.126  49.797  47.498  1.00  0.00    -0.237 N 
HETATM   30  C   UNL     1      20.341  50.198  48.043  1.00  0.00     0.047 C 
HETATM   31  C   UNL     1      20.580  51.458  48.796  1.00  0.00     0.071 C 
BRANCH  29  32
HETATM   32  C   UNL     1      17.906  50.520  47.310  1.00  0.00     0.058 A 
HETATM   33  C   UNL     1      17.747  51.292  46.146  1.00  0.00     0.031 A 
HETATM   34  C   UNL     1      16.573  52.016  45.924  1.00  0.00     0.002 A 
HETATM   35  C   UNL     1      15.550  51.990  46.868  1.00  0.00     0.000 A 
HETATM   36  C   UNL     1      15.707  51.251  48.038  1.00  0.00     0.002 A 
HETATM   37  C   UNL     1      16.880  50.522  48.263  1.00  0.00     0.031 A 
ENDBRANCH  29  32
ENDBRANCH   1  25
TORSDOF 6
ENDMDL
MODEL 4
REMARK VINA RESULT:     -10.6      2.273     11.815
REMARK  6 active torsions:
REMARK  status: ('A' for Active; 'I' for Inactive)
REMARK    1  A    between atoms: N_4  and  C_5 
REMARK    2  A    between atoms: C_13  and  C_14 
REMARK    3  A    between atoms: C_18  and  C_19 
REMARK       I    between atoms: C_19  and  N_20 
REMARK    4  A    between atoms: N_20  and  N_21 
REMARK    5  A    between atoms: C_22  and  C_23 
REMARK    6  A    between atoms: C_24  and  O_25 
ROOT
HETATM    1  C   UNL     1      25.174  44.723  50.913  1.00  0.00     0.093 A 
HETATM    2  N   UNL     1      24.048  44.017  51.046  1.00  0.00    -0.173 NA
HETATM    3  N   UNL     1      23.156  44.688  50.301  1.00  0.00    -0.272 N 
HETATM    4  H   UNL     1      22.202  44.344  50.239  1.00  0.00     0.189 HD
HETATM    5  C   UNL     1      23.660  45.814  49.704  1.00  0.00     0.121 A 
HETATM    6  C   UNL     1      24.987  45.856  50.089  1.00  0.00     0.071 A 
ENDROOT
BRANCH   5   7
HETATM    7  C   UNL     1      22.819  46.659  48.895  1.00  0.00     0.289 C 
HETATM    8  N   UNL     1      22.433  47.851  49.493  1.00  0.00    -0.242 N 
HETATM    9  H   UNL     1      22.739  48.082  50.429  1.00  0.00     0.192 HD
HETATM   10  O   UNL     1      22.480  46.325  47.763  1.00  0.00    -0.264 OA
BRANCH   8  11
HETATM   11  N   UNL     1      21.597  48.697  48.828  1.00  0.00    -0.183 NA
HETATM   12  C   UNL     1      20.461  48.951  49.401  1.00  0.00     0.153 C 
BRANCH  12  13
HETATM   13  C   UNL     1      19.455  49.832  48.755  1.00  0.00     0.027 A 
HETATM   14  C   UNL     1      19.823  51.142  48.394  1.00  0.00     0.078 A 
HETATM   15  C   UNL     1      18.927  51.978  47.744  1.00  0.00     0.038 A 
HETATM   16  C   UNL     1      17.647  51.522  47.448  1.00  0.00     0.015 A 
HETATM   17  C   UNL     1      17.241  50.228  47.804  1.00  0.00    -0.025 A 
HETATM   18  C   UNL     1      18.139  49.352  48.473  1.00  0.00    -0.012 A 
HETATM   19  C   UNL     1      15.937  49.810  47.494  1.00  0.00     0.012 A 
HETATM   20  C   UNL     1      17.640  48.066  48.814  1.00  0.00     0.013 A 
HETATM   21  C   UNL     1      16.337  47.668  48.501  1.00  0.00     0.001 A 
HETATM   22  C   UNL     1      15.486  48.539  47.837  1.00  0.00     0.001 A 
BRANCH  14  23
HETATM   23  O   UNL     1      21.057  51.686  48.635  1.00  0.00    -0.360 OA
HETATM   24  H   UNL     1      21.747  51.024  48.403  1.00  0.00     0.217 HD
ENDBRANCH  14  23
ENDBRANCH  12  13
ENDBRANCH   8  11
ENDBRANCH   5   7
BRANCH   1  25
HETATM   25  C   UNL     1      26.417  44.358  51.592  1.00  0.00     0.045 C 
HETATM   26  C   UNL     1      27.306  43.324  51.235  1.00  0.00     0.066 C 
HETATM   27  C   UNL     1      27.212  42.327  50.140  1.00  0.00     0.073 C 
HETATM   28  N   UNL     1      28.375  43.307  52.035  1.00  0.00    -0.171 NA
HETATM   29  N   UNL     1      28.113  44.219  53.013  1.00  0.00    -0.237 N 
HETATM   30  C   UNL     1      26.985  44.969  52.700  1.00  0.00     0.047 C 
HETATM   31  C   UNL     1      26.546  46.208  53.396  1.00  0.00     0.071 C 
BRANCH  29  32
HETATM   32  C   UNL     1      28.982  44.275  54.147  1.00  0.00     0.058 A 
HETATM   33  C   UNL     1      29.876  43.212  54.371  1.00  0.00     0.031 A 
HETATM   34  C   UNL     1      30.740  43.225  55.469  1.00  0.00     0.002 A 
HETATM   35  C   UNL     1      30.713  44.291  56.363  1.00  0.00     0.000 A 
HETATM   36  C   UNL     1      29.813  45.336  56.168  1.00  0.00     0.002 A 
HETATM   37  C   UNL     1      28.947  45.329  55.068  1.00  0.00     0.031 A 
ENDBRANCH  29  32
ENDBRANCH   1  25
TORSDOF 6
ENDMDL
MODEL 5
REMARK VINA RESULT:     -10.5      2.518     11.787
REMARK  6 active torsions:
REMARK  status: ('A' for Active; 'I' for Inactive)
REMARK    1  A    between atoms: N_4  and  C_5 
REMARK    2  A    between atoms: C_13  and  C_14 
REMARK    3  A    between atoms: C_18  and  C_19 
REMARK       I    between atoms: C_19  and  N_20 
REMARK    4  A    between atoms: N_20  and  N_21 
REMARK    5  A    between atoms: C_22  and  C_23 
REMARK    6  A    between atoms: C_24  and  O_25 
ROOT
HETATM    1  C   UNL     1      24.522  44.567  50.368  1.00  0.00     0.093 A 
HETATM    2  N   UNL     1      23.438  43.818  50.587  1.00  0.00    -0.173 NA
HETATM    3  N   UNL     1      22.466  44.450  49.912  1.00  0.00    -0.272 N 
HETATM    4  H   UNL     1      21.525  44.068  49.923  1.00  0.00     0.189 HD
HETATM    5  C   UNL     1      22.879  45.592  49.275  1.00  0.00     0.121 A 
HETATM    6  C   UNL     1      24.228  45.688  49.558  1.00  0.00     0.071 A 
ENDROOT
BRANCH   5   7
HETATM    7  C   UNL     1      21.946  46.399  48.531  1.00  0.00     0.289 C 
HETATM    8  N   UNL     1      20.737  46.642  49.168  1.00  0.00    -0.242 N 
HETATM    9  H   UNL     1      20.556  46.268  50.090  1.00  0.00     0.192 HD
HETATM   10  O   UNL     1      22.223  46.826  47.412  1.00  0.00    -0.264 OA
BRANCH   8  11
HETATM   11  N   UNL     1      19.769  47.355  48.527  1.00  0.00    -0.183 NA
HETATM   12  C   UNL     1      18.831  47.851  49.272  1.00  0.00     0.153 C 
BRANCH  12  13
HETATM   13  C   UNL     1      17.704  48.618  48.680  1.00  0.00     0.027 A 
HETATM   14  C   UNL     1      16.757  47.941  47.888  1.00  0.00     0.078 A 
HETATM   15  C   UNL     1      15.664  48.613  47.360  1.00  0.00     0.038 A 
HETATM   16  C   UNL     1      15.502  49.972  47.609  1.00  0.00     0.015 A 
HETATM   17  C   UNL     1      16.433  50.681  48.381  1.00  0.00    -0.025 A 
HETATM   18  C   UNL     1      17.562  50.017  48.934  1.00  0.00    -0.012 A 
HETATM   19  C   UNL     1      16.235  52.054  48.601  1.00  0.00     0.012 A 
HETATM   20  C   UNL     1      18.465  50.814  49.688  1.00  0.00     0.013 A 
HETATM   21  C   UNL     1      18.255  52.181  49.893  1.00  0.00     0.001 A 
HETATM   22  C   UNL     1      17.138  52.800  49.353  1.00  0.00     0.001 A 
BRANCH  14  23
HETATM   23  O   UNL     1      16.821  46.607  47.587  1.00  0.00    -0.360 OA
HETATM   24  H   UNL     1      16.254  46.111  48.220  1.00  0.00     0.217 HD
ENDBRANCH  14  23
ENDBRANCH  12  13
ENDBRANCH   8  11
ENDBRANCH   5   7
BRANCH   1  25
HETATM   25  C   UNL     1      25.826  44.256  50.951  1.00  0.00     0.045 C 
HETATM   26  C   UNL     1      26.795  43.370  50.437  1.00  0.00     0.066 C 
HETATM   27  C   UNL     1      26.747  42.507  49.231  1.00  0.00     0.073 C 
HETATM   28  N   UNL     1      27.897  43.368  51.190  1.00  0.00    -0.171 NA
HETATM   29  N   UNL     1      27.594  44.124  52.282  1.00  0.00    -0.237 N 
HETATM   30  C   UNL     1      26.383  44.785  52.106  1.00  0.00     0.047 C 
HETATM   31  C   UNL     1      25.858  45.879  52.965  1.00  0.00     0.071 C 
BRANCH  29  32
HETATM   32  C   UNL     1      28.508  44.134  53.383  1.00  0.00     0.058 A 
HETATM   33  C   UNL     1      29.530  43.169  53.426  1.00  0.00     0.031 A 
HETATM   34  C   UNL     1      30.441  43.141  54.484  1.00  0.00     0.002 A 
HETATM   35  C   UNL     1      30.335  44.065  55.519  1.00  0.00     0.000 A 
HETATM   36  C   UNL     1      29.310  45.009  55.502  1.00  0.00     0.002 A 
HETATM   37  C   UNL     1      28.396  45.043  54.442  1.00  0.00     0.031 A 
ENDBRANCH  29  32
ENDBRANCH   1  25
TORSDOF 6
ENDMDL
MODEL 6
REMARK VINA RESULT:     -10.3      1.296      2.407
REMARK  6 active torsions:
REMARK  status: ('A' for Active; 'I' for Inactive)
REMARK    1  A    between atoms: N_4  and  C_5 
REMARK    2  A    between atoms: C_13  and  C_14 
REMARK    3  A    between atoms: C_18  and  C_19 
REMARK       I    between atoms: C_19  and  N_20 
REMARK    4  A    between atoms: N_20  and  N_21 
REMARK    5  A    between atoms: C_22  and  C_23 
REMARK    6  A    between atoms: C_24  and  O_25 
ROOT
HETATM    1  C   UNL     1      22.367  48.084  49.141  1.00  0.00     0.093 A 
HETATM    2  N   UNL     1      22.298  46.810  48.744  1.00  0.00    -0.173 NA
HETATM    3  N   UNL     1      23.388  46.243  49.283  1.00  0.00    -0.272 N 
HETATM    4  H   UNL     1      23.565  45.256  49.123  1.00  0.00     0.189 HD
HETATM    5  C   UNL     1      24.170  47.109  50.003  1.00  0.00     0.121 A 
HETATM    6  C   UNL     1      23.518  48.325  49.927  1.00  0.00     0.071 A 
ENDROOT
BRANCH   5   7
HETATM    7  C   UNL     1      25.392  46.659  50.621  1.00  0.00     0.289 C 
HETATM    8  N   UNL     1      25.225  45.892  51.766  1.00  0.00    -0.242 N 
HETATM    9  H   UNL     1      24.300  45.679  52.115  1.00  0.00     0.192 HD
HETATM   10  O   UNL     1      26.489  46.950  50.151  1.00  0.00    -0.264 OA
BRANCH   8  11
HETATM   11  N   UNL     1      26.321  45.460  52.452  1.00  0.00    -0.183 NA
HETATM   12  C   UNL     1      26.561  46.050  53.582  1.00  0.00     0.153 C 
BRANCH  12  13
HETATM   13  C   UNL     1      27.746  45.686  54.401  1.00  0.00     0.027 A 
HETATM   14  C   UNL     1      28.019  46.416  55.573  1.00  0.00     0.078 A 
HETATM   15  C   UNL     1      29.087  46.075  56.390  1.00  0.00     0.038 A 
HETATM   16  C   UNL     1      29.904  45.002  56.047  1.00  0.00     0.015 A 
HETATM   17  C   UNL     1      29.670  44.261  54.880  1.00  0.00    -0.025 A 
HETATM   18  C   UNL     1      28.584  44.590  54.025  1.00  0.00    -0.012 A 
HETATM   19  C   UNL     1      30.524  43.190  54.567  1.00  0.00     0.012 A 
HETATM   20  C   UNL     1      28.431  43.800  52.854  1.00  0.00     0.013 A 
HETATM   21  C   UNL     1      29.293  42.740  52.556  1.00  0.00     0.001 A 
HETATM   22  C   UNL     1      30.337  42.433  53.415  1.00  0.00     0.001 A 
BRANCH  14  23
HETATM   23  O   UNL     1      27.276  47.484  56.002  1.00  0.00    -0.360 OA
HETATM   24  H   UNL     1      26.384  47.164  56.267  1.00  0.00     0.217 HD
ENDBRANCH  14  23
ENDBRANCH  12  13
ENDBRANCH   8  11
ENDBRANCH   5   7
BRANCH   1  25
HETATM   25  C   UNL     1      21.376  49.086  48.751  1.00  0.00     0.045 C 
HETATM   26  C   UNL     1      21.603  50.249  47.988  1.00  0.00     0.066 C 
HETATM   27  C   UNL     1      22.869  50.785  47.426  1.00  0.00     0.073 C 
HETATM   28  N   UNL     1      20.466  50.912  47.766  1.00  0.00    -0.171 NA
HETATM   29  N   UNL     1      19.521  50.277  48.515  1.00  0.00    -0.237 N 
HETATM   30  C   UNL     1      20.017  49.083  49.026  1.00  0.00     0.047 C 
HETATM   31  C   UNL     1      19.210  48.013  49.671  1.00  0.00     0.071 C 
BRANCH  29  32
HETATM   32  C   UNL     1      18.236  50.886  48.655  1.00  0.00     0.058 A 
HETATM   33  C   UNL     1      18.058  51.880  49.635  1.00  0.00     0.031 A 
HETATM   34  C   UNL     1      16.818  52.498  49.808  1.00  0.00     0.002 A 
HETATM   35  C   UNL     1      15.737  52.124  49.016  1.00  0.00     0.000 A 
HETATM   36  C   UNL     1      15.892  51.122  48.061  1.00  0.00     0.002 A 
HETATM   37  C   UNL     1      17.133  50.501  47.882  1.00  0.00     0.031 A 
ENDBRANCH  29  32
ENDBRANCH   1  25
TORSDOF 6
ENDMDL
MODEL 7
REMARK VINA RESULT:     -10.2      1.699      2.044
REMARK  6 active torsions:
REMARK  status: ('A' for Active; 'I' for Inactive)
REMARK    1  A    between atoms: N_4  and  C_5 
REMARK    2  A    between atoms: C_13  and  C_14 
REMARK    3  A    between atoms: C_18  and  C_19 
REMARK       I    between atoms: C_19  and  N_20 
REMARK    4  A    between atoms: N_20  and  N_21 
REMARK    5  A    between atoms: C_22  and  C_23 
REMARK    6  A    between atoms: C_24  and  O_25 
ROOT
HETATM    1  C   UNL     1      22.750  48.452  49.131  1.00  0.00     0.093 A 
HETATM    2  N   UNL     1      23.831  49.235  49.201  1.00  0.00    -0.173 NA
HETATM    3  N   UNL     1      24.831  48.381  49.465  1.00  0.00    -0.272 N 
HETATM    4  H   UNL     1      25.776  48.740  49.568  1.00  0.00     0.189 HD
HETATM    5  C   UNL     1      24.436  47.074  49.585  1.00  0.00     0.121 A 
HETATM    6  C   UNL     1      23.071  47.095  49.367  1.00  0.00     0.071 A 
ENDROOT
BRANCH   5   7
HETATM    7  C   UNL     1      25.389  46.040  49.897  1.00  0.00     0.289 C 
HETATM    8  N   UNL     1      25.868  46.054  51.200  1.00  0.00    -0.242 N 
HETATM    9  H   UNL     1      25.549  46.750  51.860  1.00  0.00     0.192 HD
HETATM   10  O   UNL     1      25.740  45.221  49.052  1.00  0.00    -0.264 OA
BRANCH   8  11
HETATM   11  N   UNL     1      26.811  45.146  51.579  1.00  0.00    -0.183 NA
HETATM   12  C   UNL     1      26.969  44.981  52.856  1.00  0.00     0.153 C 
BRANCH  12  13
HETATM   13  C   UNL     1      27.991  44.044  53.389  1.00  0.00     0.027 A 
HETATM   14  C   UNL     1      28.125  42.771  52.802  1.00  0.00     0.078 A 
HETATM   15  C   UNL     1      29.101  41.887  53.239  1.00  0.00     0.038 A 
HETATM   16  C   UNL     1      29.956  42.257  54.272  1.00  0.00     0.015 A 
HETATM   17  C   UNL     1      29.844  43.511  54.888  1.00  0.00    -0.025 A 
HETATM   18  C   UNL     1      28.851  44.436  54.461  1.00  0.00    -0.012 A 
HETATM   19  C   UNL     1      30.722  43.842  55.933  1.00  0.00     0.012 A 
HETATM   20  C   UNL     1      28.795  45.675  55.153  1.00  0.00     0.013 A 
HETATM   21  C   UNL     1      29.675  45.986  56.194  1.00  0.00     0.001 A 
HETATM   22  C   UNL     1      30.641  45.071  56.581  1.00  0.00     0.001 A 
BRANCH  14  23
HETATM   23  O   UNL     1      27.339  42.311  51.779  1.00  0.00    -0.360 OA
HETATM   24  H   UNL     1      27.156  41.355  51.925  1.00  0.00     0.217 HD
ENDBRANCH  14  23
ENDBRANCH  12  13
ENDBRANCH   8  11
ENDBRANCH   5   7
BRANCH   1  25
HETATM   25  C   UNL     1      21.409  48.980  48.884  1.00  0.00     0.045 C 
HETATM   26  C   UNL     1      20.809  50.095  49.505  1.00  0.00     0.066 C 
HETATM   27  C   UNL     1      21.333  50.984  50.571  1.00  0.00     0.073 C 
HETATM   28  N   UNL     1      19.597  50.336  49.000  1.00  0.00    -0.171 NA
HETATM   29  N   UNL     1      19.334  49.289  48.167  1.00  0.00    -0.237 N 
HETATM   30  C   UNL     1      20.471  48.512  47.977  1.00  0.00     0.047 C 
HETATM   31  C   UNL     1      20.632  47.447  46.951  1.00  0.00     0.071 C 
BRANCH  29  32
HETATM   32  C   UNL     1      18.012  49.151  47.639  1.00  0.00     0.058 A 
HETATM   33  C   UNL     1      16.946  48.917  48.527  1.00  0.00     0.031 A 
HETATM   34  C   UNL     1      15.641  48.773  48.052  1.00  0.00     0.002 A 
HETATM   35  C   UNL     1      15.385  48.845  46.686  1.00  0.00     0.000 A 
HETATM   36  C   UNL     1      16.436  49.047  45.794  1.00  0.00     0.002 A 
HETATM   37  C   UNL     1      17.745  49.195  46.265  1.00  0.00     0.031 A 
ENDBRANCH  29  32
ENDBRANCH   1  25
TORSDOF 6
ENDMDL
MODEL 8
REMARK VINA RESULT:      -9.9      1.973      2.359
REMARK  6 active torsions:
REMARK  status: ('A' for Active; 'I' for Inactive)
REMARK    1  A    between atoms: N_4  and  C_5 
REMARK    2  A    between atoms: C_13  and  C_14 
REMARK    3  A    between atoms: C_18  and  C_19 
REMARK       I    between atoms: C_19  and  N_20 
REMARK    4  A    between atoms: N_20  and  N_21 
REMARK    5  A    between atoms: C_22  and  C_23 
REMARK    6  A    between atoms: C_24  and  O_25 
ROOT
HETATM    1  C   UNL     1      22.131  46.942  48.555  1.00  0.00     0.093 A 
HETATM    2  N   UNL     1      22.860  47.908  49.121  1.00  0.00    -0.173 NA
HETATM    3  N   UNL     1      23.905  47.256  49.653  1.00  0.00    -0.272 N 
HETATM    4  H   UNL     1      24.617  47.782  50.150  1.00  0.00     0.189 HD
HETATM    5  C   UNL     1      23.872  45.899  49.465  1.00  0.00     0.121 A 
HETATM    6  C   UNL     1      22.716  45.668  48.743  1.00  0.00     0.071 A 
ENDROOT
BRANCH   5   7
HETATM    7  C   UNL     1      24.908  45.054  50.003  1.00  0.00     0.289 C 
HETATM    8  N   UNL     1      25.934  45.724  50.655  1.00  0.00    -0.242 N 
HETATM    9  H   UNL     1      25.924  46.732  50.735  1.00  0.00     0.192 HD
HETATM   10  O   UNL     1      24.866  43.833  49.875  1.00  0.00    -0.264 OA
BRANCH   8  11
HETATM   11  N   UNL     1      26.987  45.018  51.155  1.00  0.00    -0.183 NA
HETATM   12  C   UNL     1      27.004  44.844  52.441  1.00  0.00     0.153 C 
BRANCH  12  13
HETATM   13  C   UNL     1      28.120  44.120  53.103  1.00  0.00     0.027 A 
HETATM   14  C   UNL     1      28.608  42.935  52.521  1.00  0.00     0.078 A 
HETATM   15  C   UNL     1      29.681  42.258  53.082  1.00  0.00     0.038 A 
HETATM   16  C   UNL     1      30.281  42.750  54.237  1.00  0.00     0.015 A 
HETATM   17  C   UNL     1      29.813  43.919  54.851  1.00  0.00    -0.025 A 
HETATM   18  C   UNL     1      28.714  44.632  54.298  1.00  0.00    -0.012 A 
HETATM   19  C   UNL     1      30.442  44.377  56.020  1.00  0.00     0.012 A 
HETATM   20  C   UNL     1      28.293  45.796  54.994  1.00  0.00     0.013 A 
HETATM   21  C   UNL     1      28.928  46.235  56.160  1.00  0.00     0.001 A 
HETATM   22  C   UNL     1      30.006  45.528  56.670  1.00  0.00     0.001 A 
BRANCH  14  23
HETATM   23  O   UNL     1      28.093  42.369  51.384  1.00  0.00    -0.360 OA
HETATM   24  H   UNL     1      27.287  42.868  51.118  1.00  0.00     0.217 HD
ENDBRANCH  14  23
ENDBRANCH  12  13
ENDBRANCH   8  11
ENDBRANCH   5   7
BRANCH   1  25
HETATM   25  C   UNL     1      20.865  47.205  47.872  1.00  0.00     0.045 C 
HETATM   26  C   UNL     1      20.490  46.771  46.585  1.00  0.00     0.066 C 
HETATM   27  C   UNL     1      21.261  45.991  45.584  1.00  0.00     0.073 C 
HETATM   28  N   UNL     1      19.241  47.139  46.294  1.00  0.00    -0.171 NA
HETATM   29  N   UNL     1      18.852  47.951  47.318  1.00  0.00    -0.237 N 
HETATM   30  C   UNL     1      19.774  47.908  48.359  1.00  0.00     0.047 C 
HETATM   31  C   UNL     1      19.566  48.459  49.725  1.00  0.00     0.071 C 
BRANCH  29  32
HETATM   32  C   UNL     1      17.630  48.681  47.187  1.00  0.00     0.058 A 
HETATM   33  C   UNL     1      17.681  50.023  46.770  1.00  0.00     0.031 A 
HETATM   34  C   UNL     1      16.511  50.773  46.632  1.00  0.00     0.002 A 
HETATM   35  C   UNL     1      15.277  50.197  46.921  1.00  0.00     0.000 A 
HETATM   36  C   UNL     1      15.215  48.877  47.362  1.00  0.00     0.002 A 
HETATM   37  C   UNL     1      16.385  48.121  47.499  1.00  0.00     0.031 A 
ENDBRANCH  29  32
ENDBRANCH   1  25
TORSDOF 6
ENDMDL
MODEL 9
REMARK VINA RESULT:      -9.9      4.118      5.729
REMARK  6 active torsions:
REMARK  status: ('A' for Active; 'I' for Inactive)
REMARK    1  A    between atoms: N_4  and  C_5 
REMARK    2  A    between atoms: C_13  and  C_14 
REMARK    3  A    between atoms: C_18  and  C_19 
REMARK       I    between atoms: C_19  and  N_20 
REMARK    4  A    between atoms: N_20  and  N_21 
REMARK    5  A    between atoms: C_22  and  C_23 
REMARK    6  A    between atoms: C_24  and  O_25 
ROOT
HETATM    1  C   UNL     1      23.871  47.361  49.564  1.00  0.00     0.093 A 
HETATM    2  N   UNL     1      24.571  47.525  50.690  1.00  0.00    -0.173 NA
HETATM    3  N   UNL     1      24.999  46.289  50.988  1.00  0.00    -0.272 N 
HETATM    4  H   UNL     1      25.565  46.147  51.820  1.00  0.00     0.189 HD
HETATM    5  C   UNL     1      24.586  45.326  50.105  1.00  0.00     0.121 A 
HETATM    6  C   UNL     1      23.845  46.007  49.157  1.00  0.00     0.071 A 
ENDROOT
BRANCH   5   7
HETATM    7  C   UNL     1      24.939  43.943  50.304  1.00  0.00     0.289 C 
HETATM    8  N   UNL     1      25.918  43.456  49.450  1.00  0.00    -0.242 N 
HETATM    9  H   UNL     1      26.338  44.054  48.751  1.00  0.00     0.192 HD
HETATM   10  O   UNL     1      24.393  43.264  51.171  1.00  0.00    -0.264 OA
BRANCH   8  11
HETATM   11  N   UNL     1      26.286  42.146  49.525  1.00  0.00    -0.183 NA
HETATM   12  C   UNL     1      27.456  41.849  49.050  1.00  0.00     0.153 C 
BRANCH  12  13
HETATM   13  C   UNL     1      27.951  40.448  49.047  1.00  0.00     0.027 A 
HETATM   14  C   UNL     1      28.276  39.834  50.271  1.00  0.00     0.078 A 
HETATM   15  C   UNL     1      28.693  38.512  50.313  1.00  0.00     0.038 A 
HETATM   16  C   UNL     1      28.798  37.782  49.133  1.00  0.00     0.015 A 
HETATM   17  C   UNL     1      28.495  38.365  47.895  1.00  0.00    -0.025 A 
HETATM   18  C   UNL     1      28.067  39.719  47.823  1.00  0.00    -0.012 A 
HETATM   19  C   UNL     1      28.622  37.595  46.727  1.00  0.00     0.012 A 
HETATM   20  C   UNL     1      27.799  40.235  46.527  1.00  0.00     0.013 A 
HETATM   21  C   UNL     1      27.935  39.456  45.374  1.00  0.00     0.001 A 
HETATM   22  C   UNL     1      28.342  38.134  45.475  1.00  0.00     0.001 A 
BRANCH  14  23
HETATM   23  O   UNL     1      28.203  40.460  51.487  1.00  0.00    -0.360 OA
HETATM   24  H   UNL     1      27.909  41.389  51.349  1.00  0.00     0.217 HD
ENDBRANCH  14  23
ENDBRANCH  12  13
ENDBRANCH   8  11
ENDBRANCH   5   7
BRANCH   1  25
HETATM   25  C   UNL     1      23.190  48.466  48.890  1.00  0.00     0.045 C 
HETATM   26  C   UNL     1      23.791  49.580  48.271  1.00  0.00     0.066 C 
HETATM   27  C   UNL     1      25.224  49.953  48.172  1.00  0.00     0.073 C 
HETATM   28  N   UNL     1      22.877  50.368  47.700  1.00  0.00    -0.171 NA
HETATM   29  N   UNL     1      21.670  49.862  48.080  1.00  0.00    -0.237 N 
HETATM   30  C   UNL     1      21.826  48.627  48.701  1.00  0.00     0.047 C 
HETATM   31  C   UNL     1      20.731  47.672  49.019  1.00  0.00     0.071 C 
BRANCH  29  32
HETATM   32  C   UNL     1      20.491  50.621  47.801  1.00  0.00     0.058 A 
HETATM   33  C   UNL     1      20.160  51.697  48.645  1.00  0.00     0.031 A 
HETATM   34  C   UNL     1      19.015  52.462  48.410  1.00  0.00     0.002 A 
HETATM   35  C   UNL     1      18.180  52.155  47.340  1.00  0.00     0.000 A 
HETATM   36  C   UNL     1      18.482  51.075  46.514  1.00  0.00     0.002 A 
HETATM   37  C   UNL     1      19.629  50.307  46.744  1.00  0.00     0.031 A 
ENDBRANCH  29  32
ENDBRANCH   1  25
TORSDOF 6
ENDMDL
MODEL 10
REMARK VINA RESULT:      -9.6      2.993     11.680
REMARK  6 active torsions:
REMARK  status: ('A' for Active; 'I' for Inactive)
REMARK    1  A    between atoms: N_4  and  C_5 
REMARK    2  A    between atoms: C_13  and  C_14 
REMARK    3  A    between atoms: C_18  and  C_19 
REMARK       I    between atoms: C_19  and  N_20 
REMARK    4  A    between atoms: N_20  and  N_21 
REMARK    5  A    between atoms: C_22  and  C_23 
REMARK    6  A    between atoms: C_24  and  O_25 
ROOT
HETATM    1  C   UNL     1      26.447  42.800  50.865  1.00  0.00     0.093 A 
HETATM    2  N   UNL     1      26.637  42.459  49.587  1.00  0.00    -0.173 NA
HETATM    3  N   UNL     1      25.418  42.576  49.038  1.00  0.00    -0.272 N 
HETATM    4  H   UNL     1      25.297  42.366  48.051  1.00  0.00     0.189 HD
HETATM    5  C   UNL     1      24.442  42.965  49.918  1.00  0.00     0.121 A 
HETATM    6  C   UNL     1      25.095  43.121  51.126  1.00  0.00     0.071 A 
ENDROOT
BRANCH   5   7
HETATM    7  C   UNL     1      23.074  43.107  49.487  1.00  0.00     0.289 C 
HETATM    8  N   UNL     1      22.566  44.396  49.556  1.00  0.00    -0.242 N 
HETATM    9  H   UNL     1      23.140  45.161  49.886  1.00  0.00     0.192 HD
HETATM   10  O   UNL     1      22.426  42.140  49.096  1.00  0.00    -0.264 OA
BRANCH   8  11
HETATM   11  N   UNL     1      21.266  44.626  49.218  1.00  0.00    -0.183 NA
HETATM   12  C   UNL     1      20.985  45.819  48.793  1.00  0.00     0.153 C 
BRANCH  12  13
HETATM   13  C   UNL     1      19.595  46.196  48.427  1.00  0.00     0.027 A 
HETATM   14  C   UNL     1      18.777  45.251  47.781  1.00  0.00     0.078 A 
HETATM   15  C   UNL     1      17.458  45.549  47.469  1.00  0.00     0.038 A 
HETATM   16  C   UNL     1      16.937  46.798  47.791  1.00  0.00     0.015 A 
HETATM   17  C   UNL     1      17.727  47.768  48.422  1.00  0.00    -0.025 A 
HETATM   18  C   UNL     1      19.081  47.490  48.753  1.00  0.00    -0.012 A 
HETATM   19  C   UNL     1      17.164  49.019  48.723  1.00  0.00     0.012 A 
HETATM   20  C   UNL     1      19.815  48.536  49.374  1.00  0.00     0.013 A 
HETATM   21  C   UNL     1      19.239  49.777  49.662  1.00  0.00     0.001 A 
HETATM   22  C   UNL     1      17.912  50.017  49.340  1.00  0.00     0.001 A 
BRANCH  14  23
HETATM   23  O   UNL     1      19.190  43.994  47.425  1.00  0.00    -0.360 OA
HETATM   24  H   UNL     1      19.928  43.723  48.017  1.00  0.00     0.217 HD
ENDBRANCH  14  23
ENDBRANCH  12  13
ENDBRANCH   8  11
ENDBRANCH   5   7
BRANCH   1  25
HETATM   25  C   UNL     1      27.526  42.786  51.853  1.00  0.00     0.045 C 
HETATM   26  C   UNL     1      28.458  41.752  52.075  1.00  0.00     0.066 C 
HETATM   27  C   UNL     1      28.576  40.424  51.423  1.00  0.00     0.073 C 
HETATM   28  N   UNL     1      29.344  42.093  53.013  1.00  0.00    -0.171 NA
HETATM   29  N   UNL     1      28.900  43.277  53.522  1.00  0.00    -0.237 N 
HETATM   30  C   UNL     1      27.864  43.789  52.748  1.00  0.00     0.047 C 
HETATM   31  C   UNL     1      27.306  45.164  52.846  1.00  0.00     0.071 C 
BRANCH  29  32
HETATM   32  C   UNL     1      29.524  43.792  54.701  1.00  0.00     0.058 A 
HETATM   33  C   UNL     1      29.065  45.009  55.236  1.00  0.00     0.031 A 
HETATM   34  C   UNL     1      29.649  45.549  56.384  1.00  0.00     0.002 A 
HETATM   35  C   UNL     1      30.707  44.890  57.003  1.00  0.00     0.000 A 
HETATM   36  C   UNL     1      31.189  43.699  56.466  1.00  0.00     0.002 A 
HETATM   37  C   UNL     1      30.606  43.152  55.318  1.00  0.00     0.031 A 
ENDBRANCH  29  32
ENDBRANCH   1  25
TORSDOF 6
ENDMDL
