MODEL 1
REMARK VINA RESULT:      -9.1      0.000      0.000
REMARK  9 active torsions:
REMARK  status: ('A' for Active; 'I' for Inactive)
REMARK    1  A    between atoms: C_3  and  O_4 
REMARK    2  A    between atoms: O_4  and  C_5 
REMARK    3  A    between atoms: C_5  and  C_6 
REMARK    4  A    between atoms: N_7  and  C_8 
REMARK    5  A    between atoms: C_8  and  C_9 
REMARK    6  A    between atoms: C_9  and  C_10 
REMARK    7  A    between atoms: C_16  and  S_17 
REMARK    8  A    between atoms: S_17  and  C_18 
REMARK    9  A    between atoms: C_18  and  C_19 
REMARK       I    between atoms: C_19  and  N_20 
ROOT
HETATM    1  C   UNL     1      26.550  45.188  50.872  1.00  0.00     0.155 A 
HETATM    2  N   UNL     1      26.856  44.167  51.753  1.00  0.00    -0.309 N 
HETATM    3  C   UNL     1      27.361  43.165  50.961  1.00  0.00     0.192 A 
HETATM    4  N   UNL     1      27.323  43.525  49.700  1.00  0.00    -0.123 NA
HETATM    5  N   UNL     1      26.824  44.792  49.642  1.00  0.00    -0.132 NA
ENDROOT
BRANCH   1   6
HETATM    6  C   UNL     1      25.941  46.506  51.207  1.00  0.00     0.256 C 
BRANCH   6   7
HETATM    7  O   UNL     1      26.446  47.469  50.286  1.00  0.00    -0.343 OA
BRANCH   7   8
HETATM    8  C   UNL     1      25.488  48.166  49.594  1.00  0.00     0.075 A 
HETATM    9  C   UNL     1      25.930  49.277  48.856  1.00  0.00    -0.029 A 
HETATM   10  C   UNL     1      27.387  49.642  48.796  1.00  0.00     0.051 C 
HETATM   11  C   UNL     1      25.001  50.014  48.106  1.00  0.00     0.009 A 
HETATM   12  C   UNL     1      23.649  49.675  48.117  1.00  0.00     0.001 A 
HETATM   13  C   UNL     1      23.211  48.596  48.880  1.00  0.00     0.003 A 
HETATM   14  C   UNL     1      24.125  47.845  49.620  1.00  0.00     0.037 A 
ENDBRANCH   7   8
ENDBRANCH   6   7
ENDBRANCH   1   6
BRANCH   2  15
HETATM   15  C   UNL     1      26.672  44.157  53.197  1.00  0.00     0.137 C 
BRANCH  15  16
HETATM   16  C   UNL     1      27.457  45.265  53.915  1.00  0.00     0.059 C 
BRANCH  16  17
HETATM   17  C   UNL     1      28.655  44.817  54.718  1.00  0.00    -0.057 A 
HETATM   18  C   UNL     1      29.247  45.645  55.680  1.00  0.00     0.007 A 
HETATM   19  C   UNL     1      30.409  45.248  56.345  1.00  0.00     0.001 A 
HETATM   20  C   UNL     1      31.004  44.024  56.048  1.00  0.00     0.000 A 
HETATM   21  C   UNL     1      30.433  43.191  55.091  1.00  0.00     0.001 A 
HETATM   22  C   UNL     1      29.266  43.584  54.430  1.00  0.00     0.007 A 
ENDBRANCH  16  17
ENDBRANCH  15  16
ENDBRANCH   2  15
BRANCH   3  23
HETATM   23  S   UNL     1      27.957  41.644  51.528  1.00  0.00    -0.081 SA
BRANCH  23  24
HETATM   24  C   UNL     1      27.291  40.513  50.269  1.00  0.00     0.185 C 
BRANCH  24  25
HETATM   25  C   UNL     1      28.227  39.342  50.017  1.00  0.00     0.226 C 
HETATM   26  N   UNL     1      29.136  39.104  51.028  1.00  0.00    -0.365 N 
HETATM   27  C   UNL     1      30.054  37.996  50.953  1.00  0.00     0.149 C 
HETATM   28  H   UNL     1      28.877  39.436  51.958  1.00  0.00     0.161 HD
HETATM   29  O   UNL     1      28.190  38.686  48.978  1.00  0.00    -0.273 OA
ENDBRANCH  24  25
ENDBRANCH  23  24
ENDBRANCH   3  23
TORSDOF 9
ENDMDL
MODEL 2
REMARK VINA RESULT:      -9.0      3.080      7.941
REMARK  9 active torsions:
REMARK  status: ('A' for Active; 'I' for Inactive)
REMARK    1  A    between atoms: C_3  and  O_4 
REMARK    2  A    between atoms: O_4  and  C_5 
REMARK    3  A    between atoms: C_5  and  C_6 
REMARK    4  A    between atoms: N_7  and  C_8 
REMARK    5  A    between atoms: C_8  and  C_9 
REMARK    6  A    between atoms: C_9  and  C_10 
REMARK    7  A    between atoms: C_16  and  S_17 
REMARK    8  A    between atoms: S_17  and  C_18 
REMARK    9  A    between atoms: C_18  and  C_19 
REMARK       I    between atoms: C_19  and  N_20 
ROOT
HETATM    1  C   UNL     1      26.877  46.340  54.465  1.00  0.00     0.155 A 
HETATM    2  N   UNL     1      26.397  45.525  53.456  1.00  0.00    -0.309 N 
HETATM    3  C   UNL     1      25.645  46.359  52.664  1.00  0.00     0.192 A 
HETATM    4  N   UNL     1      25.628  47.568  53.174  1.00  0.00    -0.123 NA
HETATM    5  N   UNL     1      26.403  47.561  54.294  1.00  0.00    -0.132 NA
ENDROOT
BRANCH   1   6
HETATM    6  C   UNL     1      27.730  45.931  55.616  1.00  0.00     0.256 C 
BRANCH   6   7
HETATM    7  O   UNL     1      29.020  45.598  55.111  1.00  0.00    -0.343 OA
BRANCH   7   8
HETATM    8  C   UNL     1      29.891  45.087  56.038  1.00  0.00     0.075 A 
HETATM    9  C   UNL     1      30.520  43.875  55.709  1.00  0.00    -0.029 A 
HETATM   10  C   UNL     1      30.279  43.208  54.384  1.00  0.00     0.051 C 
HETATM   11  C   UNL     1      31.442  43.316  56.606  1.00  0.00     0.009 A 
HETATM   12  C   UNL     1      31.709  43.933  57.828  1.00  0.00     0.001 A 
HETATM   13  C   UNL     1      31.055  45.115  58.166  1.00  0.00     0.003 A 
HETATM   14  C   UNL     1      30.145  45.689  57.277  1.00  0.00     0.037 A 
ENDBRANCH   7   8
ENDBRANCH   6   7
ENDBRANCH   1   6
BRANCH   2  15
HETATM   15  C   UNL     1      26.632  44.099  53.280  1.00  0.00     0.137 C 
BRANCH  15  16
HETATM   16  C   UNL     1      27.583  43.781  52.117  1.00  0.00     0.059 C 
BRANCH  16  17
HETATM   17  C   UNL     1      27.304  42.504  51.361  1.00  0.00    -0.057 A 
HETATM   18  C   UNL     1      26.043  42.233  50.814  1.00  0.00     0.007 A 
HETATM   19  C   UNL     1      25.781  41.007  50.199  1.00  0.00     0.001 A 
HETATM   20  C   UNL     1      26.770  40.028  50.134  1.00  0.00     0.000 A 
HETATM   21  C   UNL     1      28.027  40.278  50.678  1.00  0.00     0.001 A 
HETATM   22  C   UNL     1      28.293  41.507  51.287  1.00  0.00     0.007 A 
ENDBRANCH  16  17
ENDBRANCH  15  16
ENDBRANCH   2  15
BRANCH   3  23
HETATM   23  S   UNL     1      24.829  45.895  51.213  1.00  0.00    -0.081 SA
BRANCH  23  24
HETATM   24  C   UNL     1      26.064  46.341  49.956  1.00  0.00     0.185 C 
BRANCH  24  25
HETATM   25  C   UNL     1      26.032  47.827  49.641  1.00  0.00     0.226 C 
HETATM   26  N   UNL     1      27.226  48.345  49.181  1.00  0.00    -0.365 N 
HETATM   27  C   UNL     1      27.334  49.728  48.794  1.00  0.00     0.149 C 
HETATM   28  H   UNL     1      27.866  47.684  48.740  1.00  0.00     0.161 HD
HETATM   29  O   UNL     1      25.026  48.513  49.818  1.00  0.00    -0.273 OA
ENDBRANCH  24  25
ENDBRANCH  23  24
ENDBRANCH   3  23
TORSDOF 9
ENDMDL
MODEL 3
REMARK VINA RESULT:      -9.0      0.531      1.699
REMARK  9 active torsions:
REMARK  status: ('A' for Active; 'I' for Inactive)
REMARK    1  A    between atoms: C_3  and  O_4 
REMARK    2  A    between atoms: O_4  and  C_5 
REMARK    3  A    between atoms: C_5  and  C_6 
REMARK    4  A    between atoms: N_7  and  C_8 
REMARK    5  A    between atoms: C_8  and  C_9 
REMARK    6  A    between atoms: C_9  and  C_10 
REMARK    7  A    between atoms: C_16  and  S_17 
REMARK    8  A    between atoms: S_17  and  C_18 
REMARK    9  A    between atoms: C_18  and  C_19 
REMARK       I    between atoms: C_19  and  N_20 
ROOT
HETATM    1  C   UNL     1      26.512  45.108  51.045  1.00  0.00     0.155 A 
HETATM    2  N   UNL     1      26.869  44.089  51.908  1.00  0.00    -0.309 N 
HETATM    3  C   UNL     1      27.329  43.086  51.090  1.00  0.00     0.192 A 
HETATM    4  N   UNL     1      27.216  43.444  49.833  1.00  0.00    -0.123 NA
HETATM    5  N   UNL     1      26.713  44.710  49.802  1.00  0.00    -0.132 NA
ENDROOT
BRANCH   1   6
HETATM    6  C   UNL     1      25.922  46.427  51.412  1.00  0.00     0.256 C 
BRANCH   6   7
HETATM    7  O   UNL     1      25.083  46.847  50.339  1.00  0.00    -0.343 OA
BRANCH   7   8
HETATM    8  C   UNL     1      25.531  47.944  49.649  1.00  0.00     0.075 A 
HETATM    9  C   UNL     1      24.556  48.718  48.999  1.00  0.00    -0.029 A 
HETATM   10  C   UNL     1      23.095  48.379  49.103  1.00  0.00     0.051 C 
HETATM   11  C   UNL     1      24.950  49.869  48.299  1.00  0.00     0.009 A 
HETATM   12  C   UNL     1      26.296  50.225  48.215  1.00  0.00     0.001 A 
HETATM   13  C   UNL     1      27.262  49.433  48.830  1.00  0.00     0.003 A 
HETATM   14  C   UNL     1      26.883  48.293  49.541  1.00  0.00     0.037 A 
ENDBRANCH   7   8
ENDBRANCH   6   7
ENDBRANCH   1   6
BRANCH   2  15
HETATM   15  C   UNL     1      26.771  44.083  53.361  1.00  0.00     0.137 C 
BRANCH  15  16
HETATM   16  C   UNL     1      27.576  45.207  54.028  1.00  0.00     0.059 C 
BRANCH  16  17
HETATM   17  C   UNL     1      28.842  44.788  54.737  1.00  0.00    -0.057 A 
HETATM   18  C   UNL     1      29.443  43.545  54.498  1.00  0.00     0.007 A 
HETATM   19  C   UNL     1      30.560  43.140  55.231  1.00  0.00     0.001 A 
HETATM   20  C   UNL     1      31.085  43.965  56.224  1.00  0.00     0.000 A 
HETATM   21  C   UNL     1      30.498  45.201  56.478  1.00  0.00     0.001 A 
HETATM   22  C   UNL     1      29.384  45.610  55.740  1.00  0.00     0.007 A 
ENDBRANCH  16  17
ENDBRANCH  15  16
ENDBRANCH   2  15
BRANCH   3  23
HETATM   23  S   UNL     1      27.959  41.568  51.625  1.00  0.00    -0.081 SA
BRANCH  23  24
HETATM   24  C   UNL     1      27.316  40.449  50.344  1.00  0.00     0.185 C 
BRANCH  24  25
HETATM   25  C   UNL     1      28.307  39.344  50.016  1.00  0.00     0.226 C 
HETATM   26  N   UNL     1      29.143  38.993  51.056  1.00  0.00    -0.365 N 
HETATM   27  C   UNL     1      30.101  37.927  50.910  1.00  0.00     0.149 C 
HETATM   28  H   UNL     1      28.802  39.191  51.997  1.00  0.00     0.161 HD
HETATM   29  O   UNL     1      28.374  38.834  48.899  1.00  0.00    -0.273 OA
ENDBRANCH  24  25
ENDBRANCH  23  24
ENDBRANCH   3  23
TORSDOF 9
ENDMDL
MODEL 4
REMARK VINA RESULT:      -9.0      2.956      8.171
REMARK  9 active torsions:
REMARK  status: ('A' for Active; 'I' for Inactive)
REMARK    1  A    between atoms: C_3  and  O_4 
REMARK    2  A    between atoms: O_4  and  C_5 
REMARK    3  A    between atoms: C_5  and  C_6 
REMARK    4  A    between atoms: N_7  and  C_8 
REMARK    5  A    between atoms: C_8  and  C_9 
REMARK    6  A    between atoms: C_9  and  C_10 
REMARK    7  A    between atoms: C_16  and  S_17 
REMARK    8  A    between atoms: S_17  and  C_18 
REMARK    9  A    between atoms: C_18  and  C_19 
REMARK       I    between atoms: C_19  and  N_20 
ROOT
HETATM    1  C   UNL     1      26.644  46.085  53.814  1.00  0.00     0.155 A 
HETATM    2  N   UNL     1      26.433  45.813  52.474  1.00  0.00    -0.309 N 
HETATM    3  C   UNL     1      25.686  46.872  52.018  1.00  0.00     0.192 A 
HETATM    4  N   UNL     1      25.423  47.695  53.005  1.00  0.00    -0.123 NA
HETATM    5  N   UNL     1      26.027  47.210  54.127  1.00  0.00    -0.132 NA
ENDROOT
BRANCH   1   6
HETATM    6  C   UNL     1      27.377  45.236  54.794  1.00  0.00     0.256 C 
BRANCH   6   7
HETATM    7  O   UNL     1      28.772  45.365  54.529  1.00  0.00    -0.343 OA
BRANCH   7   8
HETATM    8  C   UNL     1      29.594  44.971  55.554  1.00  0.00     0.075 A 
HETATM    9  C   UNL     1      30.320  43.785  55.355  1.00  0.00    -0.029 A 
HETATM   10  C   UNL     1      30.229  43.023  54.062  1.00  0.00     0.051 C 
HETATM   11  C   UNL     1      31.199  43.344  56.357  1.00  0.00     0.009 A 
HETATM   12  C   UNL     1      31.327  44.052  57.552  1.00  0.00     0.001 A 
HETATM   13  C   UNL     1      30.577  45.206  57.758  1.00  0.00     0.003 A 
HETATM   14  C   UNL     1      29.709  45.663  56.766  1.00  0.00     0.037 A 
ENDBRANCH   7   8
ENDBRANCH   6   7
ENDBRANCH   1   6
BRANCH   2  15
HETATM   15  C   UNL     1      26.894  44.656  51.721  1.00  0.00     0.137 C 
BRANCH  15  16
HETATM   16  C   UNL     1      25.967  43.438  51.853  1.00  0.00     0.059 C 
BRANCH  16  17
HETATM   17  C   UNL     1      26.490  42.140  51.286  1.00  0.00    -0.057 A 
HETATM   18  C   UNL     1      27.785  41.683  51.565  1.00  0.00     0.007 A 
HETATM   19  C   UNL     1      28.280  40.528  50.957  1.00  0.00     0.001 A 
HETATM   20  C   UNL     1      27.495  39.820  50.050  1.00  0.00     0.000 A 
HETATM   21  C   UNL     1      26.208  40.263  49.756  1.00  0.00     0.001 A 
HETATM   22  C   UNL     1      25.709  41.414  50.369  1.00  0.00     0.007 A 
ENDBRANCH  16  17
ENDBRANCH  15  16
ENDBRANCH   2  15
BRANCH   3  23
HETATM   23  S   UNL     1      25.157  47.096  50.388  1.00  0.00    -0.081 SA
BRANCH  23  24
HETATM   24  C   UNL     1      26.485  48.147  49.727  1.00  0.00     0.185 C 
BRANCH  24  25
HETATM   25  C   UNL     1      25.943  49.204  48.778  1.00  0.00     0.226 C 
HETATM   26  N   UNL     1      24.566  49.286  48.733  1.00  0.00    -0.365 N 
HETATM   27  C   UNL     1      23.909  50.274  47.917  1.00  0.00     0.149 C 
HETATM   28  H   UNL     1      24.065  48.949  49.556  1.00  0.00     0.161 HD
HETATM   29  O   UNL     1      26.681  49.902  48.085  1.00  0.00    -0.273 OA
ENDBRANCH  24  25
ENDBRANCH  23  24
ENDBRANCH   3  23
TORSDOF 9
ENDMDL
MODEL 5
REMARK VINA RESULT:      -8.6      2.423      7.406
REMARK  9 active torsions:
REMARK  status: ('A' for Active; 'I' for Inactive)
REMARK    1  A    between atoms: C_3  and  O_4 
REMARK    2  A    between atoms: O_4  and  C_5 
REMARK    3  A    between atoms: C_5  and  C_6 
REMARK    4  A    between atoms: N_7  and  C_8 
REMARK    5  A    between atoms: C_8  and  C_9 
REMARK    6  A    between atoms: C_9  and  C_10 
REMARK    7  A    between atoms: C_16  and  S_17 
REMARK    8  A    between atoms: S_17  and  C_18 
REMARK    9  A    between atoms: C_18  and  C_19 
REMARK       I    between atoms: C_19  and  N_20 
ROOT
HETATM    1  C   UNL     1      26.632  45.142  53.799  1.00  0.00     0.155 A 
HETATM    2  N   UNL     1      25.935  45.607  52.700  1.00  0.00    -0.309 N 
HETATM    3  C   UNL     1      25.324  44.492  52.179  1.00  0.00     0.192 A 
HETATM    4  N   UNL     1      25.660  43.431  52.873  1.00  0.00    -0.123 NA
HETATM    5  N   UNL     1      26.471  43.835  53.891  1.00  0.00    -0.132 NA
ENDROOT
BRANCH   1   6
HETATM    6  C   UNL     1      27.497  45.940  54.713  1.00  0.00     0.256 C 
BRANCH   6   7
HETATM    7  O   UNL     1      28.852  45.574  54.467  1.00  0.00    -0.343 OA
BRANCH   7   8
HETATM    8  C   UNL     1      29.565  45.210  55.581  1.00  0.00     0.075 A 
HETATM    9  C   UNL     1      30.281  44.004  55.503  1.00  0.00    -0.029 A 
HETATM   10  C   UNL     1      30.296  43.188  54.240  1.00  0.00     0.051 C 
HETATM   11  C   UNL     1      31.051  43.592  56.601  1.00  0.00     0.009 A 
HETATM   12  C   UNL     1      31.080  44.349  57.773  1.00  0.00     0.001 A 
HETATM   13  C   UNL     1      30.340  45.524  57.858  1.00  0.00     0.003 A 
HETATM   14  C   UNL     1      29.580  45.953  56.768  1.00  0.00     0.037 A 
ENDBRANCH   7   8
ENDBRANCH   6   7
ENDBRANCH   1   6
BRANCH   2  15
HETATM   15  C   UNL     1      25.871  46.974  52.203  1.00  0.00     0.137 C 
BRANCH  15  16
HETATM   16  C   UNL     1      26.754  47.212  50.969  1.00  0.00     0.059 C 
BRANCH  16  17
HETATM   17  C   UNL     1      26.176  48.108  49.900  1.00  0.00    -0.057 A 
HETATM   18  C   UNL     1      26.981  48.977  49.153  1.00  0.00     0.007 A 
HETATM   19  C   UNL     1      26.413  49.862  48.234  1.00  0.00     0.001 A 
HETATM   20  C   UNL     1      25.031  49.902  48.058  1.00  0.00     0.000 A 
HETATM   21  C   UNL     1      24.216  49.049  48.797  1.00  0.00     0.001 A 
HETATM   22  C   UNL     1      24.783  48.158  49.711  1.00  0.00     0.007 A 
ENDBRANCH  16  17
ENDBRANCH  15  16
ENDBRANCH   2  15
BRANCH   3  23
HETATM   23  S   UNL     1      24.273  44.475  50.807  1.00  0.00    -0.081 SA
BRANCH  23  24
HETATM   24  C   UNL     1      25.469  44.299  49.448  1.00  0.00     0.185 C 
BRANCH  24  25
HETATM   25  C   UNL     1      26.099  42.916  49.431  1.00  0.00     0.226 C 
HETATM   26  N   UNL     1      25.375  41.946  50.094  1.00  0.00    -0.365 N 
HETATM   27  C   UNL     1      25.821  40.576  50.119  1.00  0.00     0.149 C 
HETATM   28  H   UNL     1      24.373  42.114  50.188  1.00  0.00     0.161 HD
HETATM   29  O   UNL     1      27.184  42.697  48.896  1.00  0.00    -0.273 OA
ENDBRANCH  24  25
ENDBRANCH  23  24
ENDBRANCH   3  23
TORSDOF 9
ENDMDL
MODEL 6
REMARK VINA RESULT:      -8.6      1.903      7.285
REMARK  9 active torsions:
REMARK  status: ('A' for Active; 'I' for Inactive)
REMARK    1  A    between atoms: C_3  and  O_4 
REMARK    2  A    between atoms: O_4  and  C_5 
REMARK    3  A    between atoms: C_5  and  C_6 
REMARK    4  A    between atoms: N_7  and  C_8 
REMARK    5  A    between atoms: C_8  and  C_9 
REMARK    6  A    between atoms: C_9  and  C_10 
REMARK    7  A    between atoms: C_16  and  S_17 
REMARK    8  A    between atoms: S_17  and  C_18 
REMARK    9  A    between atoms: C_18  and  C_19 
REMARK       I    between atoms: C_19  and  N_20 
ROOT
HETATM    1  C   UNL     1      27.079  43.383  50.780  1.00  0.00     0.155 A 
HETATM    2  N   UNL     1      26.538  44.279  51.684  1.00  0.00    -0.309 N 
HETATM    3  C   UNL     1      26.136  45.346  50.917  1.00  0.00     0.192 A 
HETATM    4  N   UNL     1      26.449  45.139  49.660  1.00  0.00    -0.123 NA
HETATM    5  N   UNL     1      27.031  43.910  49.570  1.00  0.00    -0.132 NA
ENDROOT
BRANCH   1   6
HETATM    6  C   UNL     1      27.694  42.061  51.089  1.00  0.00     0.256 C 
BRANCH   6   7
HETATM    7  O   UNL     1      27.660  41.273  49.903  1.00  0.00    -0.343 OA
BRANCH   7   8
HETATM    8  C   UNL     1      28.417  40.130  49.945  1.00  0.00     0.075 A 
HETATM    9  C   UNL     1      28.665  39.495  48.717  1.00  0.00    -0.029 A 
HETATM   10  C   UNL     1      28.163  40.076  47.425  1.00  0.00     0.051 C 
HETATM   11  C   UNL     1      29.456  38.336  48.693  1.00  0.00     0.009 A 
HETATM   12  C   UNL     1      29.962  37.796  49.875  1.00  0.00     0.001 A 
HETATM   13  C   UNL     1      29.682  38.408  51.093  1.00  0.00     0.003 A 
HETATM   14  C   UNL     1      28.909  39.569  51.131  1.00  0.00     0.037 A 
ENDBRANCH   7   8
ENDBRANCH   6   7
ENDBRANCH   1   6
BRANCH   2  15
HETATM   15  C   UNL     1      26.429  44.126  53.128  1.00  0.00     0.137 C 
BRANCH  15  16
HETATM   16  C   UNL     1      27.233  45.174  53.911  1.00  0.00     0.059 C 
BRANCH  16  17
HETATM   17  C   UNL     1      28.475  44.672  54.610  1.00  0.00    -0.057 A 
HETATM   18  C   UNL     1      29.129  45.436  55.584  1.00  0.00     0.007 A 
HETATM   19  C   UNL     1      30.326  44.994  56.151  1.00  0.00     0.001 A 
HETATM   20  C   UNL     1      30.894  43.789  55.743  1.00  0.00     0.000 A 
HETATM   21  C   UNL     1      30.260  43.020  54.772  1.00  0.00     0.001 A 
HETATM   22  C   UNL     1      29.059  43.458  54.209  1.00  0.00     0.007 A 
ENDBRANCH  16  17
ENDBRANCH  15  16
ENDBRANCH   2  15
BRANCH   3  23
HETATM   23  S   UNL     1      25.342  46.762  51.510  1.00  0.00    -0.081 SA
BRANCH  23  24
HETATM   24  C   UNL     1      24.555  47.385  49.994  1.00  0.00     0.185 C 
BRANCH  24  25
HETATM   25  C   UNL     1      25.295  48.589  49.433  1.00  0.00     0.226 C 
HETATM   26  N   UNL     1      26.670  48.469  49.430  1.00  0.00    -0.365 N 
HETATM   27  C   UNL     1      27.503  49.509  48.882  1.00  0.00     0.149 C 
HETATM   28  H   UNL     1      27.042  47.519  49.425  1.00  0.00     0.161 HD
HETATM   29  O   UNL     1      24.707  49.597  49.045  1.00  0.00    -0.273 OA
ENDBRANCH  24  25
ENDBRANCH  23  24
ENDBRANCH   3  23
TORSDOF 9
ENDMDL
MODEL 7
REMARK VINA RESULT:      -8.4      2.769      7.992
REMARK  9 active torsions:
REMARK  status: ('A' for Active; 'I' for Inactive)
REMARK    1  A    between atoms: C_3  and  O_4 
REMARK    2  A    between atoms: O_4  and  C_5 
REMARK    3  A    between atoms: C_5  and  C_6 
REMARK    4  A    between atoms: N_7  and  C_8 
REMARK    5  A    between atoms: C_8  and  C_9 
REMARK    6  A    between atoms: C_9  and  C_10 
REMARK    7  A    between atoms: C_16  and  S_17 
REMARK    8  A    between atoms: S_17  and  C_18 
REMARK    9  A    between atoms: C_18  and  C_19 
REMARK       I    between atoms: C_19  and  N_20 
ROOT
HETATM    1  C   UNL     1      25.881  43.703  51.819  1.00  0.00     0.155 A 
HETATM    2  N   UNL     1      25.230  44.614  51.008  1.00  0.00    -0.309 N 
HETATM    3  C   UNL     1      24.843  43.885  49.909  1.00  0.00     0.192 A 
HETATM    4  N   UNL     1      25.264  42.647  50.020  1.00  0.00    -0.123 NA
HETATM    5  N   UNL     1      25.906  42.529  51.216  1.00  0.00    -0.132 NA
ENDROOT
BRANCH   1   6
HETATM    6  C   UNL     1      26.528  43.978  53.133  1.00  0.00     0.256 C 
BRANCH   6   7
HETATM    7  O   UNL     1      27.928  44.122  52.912  1.00  0.00    -0.343 OA
BRANCH   7   8
HETATM    8  C   UNL     1      28.665  44.416  54.031  1.00  0.00     0.075 A 
HETATM    9  C   UNL     1      29.794  43.615  54.268  1.00  0.00    -0.029 A 
HETATM   10  C   UNL     1      30.191  42.527  53.311  1.00  0.00     0.051 C 
HETATM   11  C   UNL     1      30.602  43.884  55.383  1.00  0.00     0.009 A 
HETATM   12  C   UNL     1      30.273  44.910  56.269  1.00  0.00     0.001 A 
HETATM   13  C   UNL     1      29.133  45.677  56.049  1.00  0.00     0.003 A 
HETATM   14  C   UNL     1      28.327  45.429  54.937  1.00  0.00     0.037 A 
ENDBRANCH   7   8
ENDBRANCH   6   7
ENDBRANCH   1   6
BRANCH   2  15
HETATM   15  C   UNL     1      25.013  46.031  51.260  1.00  0.00     0.137 C 
BRANCH  15  16
HETATM   16  C   UNL     1      26.185  46.914  50.806  1.00  0.00     0.059 C 
BRANCH  16  17
HETATM   17  C   UNL     1      25.862  47.966  49.772  1.00  0.00    -0.057 A 
HETATM   18  C   UNL     1      26.856  48.783  49.219  1.00  0.00     0.007 A 
HETATM   19  C   UNL     1      26.524  49.810  48.334  1.00  0.00     0.001 A 
HETATM   20  C   UNL     1      25.192  50.046  47.999  1.00  0.00     0.000 A 
HETATM   21  C   UNL     1      24.191  49.248  48.545  1.00  0.00     0.001 A 
HETATM   22  C   UNL     1      24.522  48.215  49.425  1.00  0.00     0.007 A 
ENDBRANCH  16  17
ENDBRANCH  15  16
ENDBRANCH   2  15
BRANCH   3  23
HETATM   23  S   UNL     1      23.941  44.497  48.568  1.00  0.00    -0.081 SA
BRANCH  23  24
HETATM   24  C   UNL     1      22.241  44.384  49.205  1.00  0.00     0.185 C 
BRANCH  24  25
HETATM   25  C   UNL     1      21.318  45.377  48.518  1.00  0.00     0.226 C 
HETATM   26  N   UNL     1      20.127  45.608  49.176  1.00  0.00    -0.365 N 
HETATM   27  C   UNL     1      19.174  46.563  48.671  1.00  0.00     0.149 C 
HETATM   28  H   UNL     1      20.123  45.429  50.181  1.00  0.00     0.161 HD
HETATM   29  O   UNL     1      21.604  45.902  47.443  1.00  0.00    -0.273 OA
ENDBRANCH  24  25
ENDBRANCH  23  24
ENDBRANCH   3  23
TORSDOF 9
ENDMDL
MODEL 8
REMARK VINA RESULT:      -8.4      4.467      8.981
REMARK  9 active torsions:
REMARK  status: ('A' for Active; 'I' for Inactive)
REMARK    1  A    between atoms: C_3  and  O_4 
REMARK    2  A    between atoms: O_4  and  C_5 
REMARK    3  A    between atoms: C_5  and  C_6 
REMARK    4  A    between atoms: N_7  and  C_8 
REMARK    5  A    between atoms: C_8  and  C_9 
REMARK    6  A    between atoms: C_9  and  C_10 
REMARK    7  A    between atoms: C_16  and  S_17 
REMARK    8  A    between atoms: S_17  and  C_18 
REMARK    9  A    between atoms: C_18  and  C_19 
REMARK       I    between atoms: C_19  and  N_20 
ROOT
HETATM    1  C   UNL     1      22.966  48.547  49.163  1.00  0.00     0.155 A 
HETATM    2  N   UNL     1      22.723  47.308  48.600  1.00  0.00    -0.309 N 
HETATM    3  C   UNL     1      23.697  46.492  49.124  1.00  0.00     0.192 A 
HETATM    4  N   UNL     1      24.494  47.186  49.901  1.00  0.00    -0.123 NA
HETATM    5  N   UNL     1      24.035  48.468  49.934  1.00  0.00    -0.132 NA
ENDROOT
BRANCH   1   6
HETATM    6  C   UNL     1      22.213  49.808  48.909  1.00  0.00     0.256 C 
BRANCH   6   7
HETATM    7  O   UNL     1      21.204  49.926  49.909  1.00  0.00    -0.343 OA
BRANCH   7   8
HETATM    8  C   UNL     1      20.128  50.700  49.556  1.00  0.00     0.075 A 
HETATM    9  C   UNL     1      18.899  50.375  50.154  1.00  0.00    -0.029 A 
HETATM   10  C   UNL     1      18.793  49.267  51.164  1.00  0.00     0.051 C 
HETATM   11  C   UNL     1      17.766  51.148  49.854  1.00  0.00     0.009 A 
HETATM   12  C   UNL     1      17.846  52.203  48.945  1.00  0.00     0.001 A 
HETATM   13  C   UNL     1      19.059  52.497  48.328  1.00  0.00     0.003 A 
HETATM   14  C   UNL     1      20.196  51.746  48.627  1.00  0.00     0.037 A 
ENDBRANCH   7   8
ENDBRANCH   6   7
ENDBRANCH   1   6
BRANCH   2  15
HETATM   15  C   UNL     1      21.673  46.953  47.656  1.00  0.00     0.137 C 
BRANCH  15  16
HETATM   16  C   UNL     1      20.305  46.748  48.322  1.00  0.00     0.059 C 
BRANCH  16  17
HETATM   17  C   UNL     1      19.159  47.547  47.747  1.00  0.00    -0.057 A 
HETATM   18  C   UNL     1      19.369  48.553  46.795  1.00  0.00     0.007 A 
HETATM   19  C   UNL     1      18.308  49.341  46.345  1.00  0.00     0.001 A 
HETATM   20  C   UNL     1      17.024  49.146  46.850  1.00  0.00     0.000 A 
HETATM   21  C   UNL     1      16.799  48.155  47.800  1.00  0.00     0.001 A 
HETATM   22  C   UNL     1      17.858  47.360  48.246  1.00  0.00     0.007 A 
ENDBRANCH  16  17
ENDBRANCH  15  16
ENDBRANCH   2  15
BRANCH   3  23
HETATM   23  S   UNL     1      23.864  44.801  48.806  1.00  0.00    -0.081 SA
BRANCH  23  24
HETATM   24  C   UNL     1      23.511  44.098  50.446  1.00  0.00     0.185 C 
BRANCH  24  25
HETATM   25  C   UNL     1      24.745  44.101  51.334  1.00  0.00     0.226 C 
HETATM   26  N   UNL     1      25.939  44.259  50.660  1.00  0.00    -0.365 N 
HETATM   27  C   UNL     1      27.189  44.332  51.373  1.00  0.00     0.149 C 
HETATM   28  H   UNL     1      25.889  44.724  49.752  1.00  0.00     0.161 HD
HETATM   29  O   UNL     1      24.677  43.942  52.551  1.00  0.00    -0.273 OA
ENDBRANCH  24  25
ENDBRANCH  23  24
ENDBRANCH   3  23
TORSDOF 9
ENDMDL
MODEL 9
REMARK VINA RESULT:      -8.3      2.877      6.411
REMARK  9 active torsions:
REMARK  status: ('A' for Active; 'I' for Inactive)
REMARK    1  A    between atoms: C_3  and  O_4 
REMARK    2  A    between atoms: O_4  and  C_5 
REMARK    3  A    between atoms: C_5  and  C_6 
REMARK    4  A    between atoms: N_7  and  C_8 
REMARK    5  A    between atoms: C_8  and  C_9 
REMARK    6  A    between atoms: C_9  and  C_10 
REMARK    7  A    between atoms: C_16  and  S_17 
REMARK    8  A    between atoms: S_17  and  C_18 
REMARK    9  A    between atoms: C_18  and  C_19 
REMARK       I    between atoms: C_19  and  N_20 
ROOT
HETATM    1  C   UNL     1      29.075  42.526  52.905  1.00  0.00     0.155 A 
HETATM    2  N   UNL     1      28.292  42.395  51.773  1.00  0.00    -0.309 N 
HETATM    3  C   UNL     1      28.102  41.041  51.637  1.00  0.00     0.192 A 
HETATM    4  N   UNL     1      28.753  40.399  52.578  1.00  0.00    -0.123 NA
HETATM    5  N   UNL     1      29.355  41.324  53.377  1.00  0.00    -0.132 NA
ENDROOT
BRANCH   1   6
HETATM    6  C   UNL     1      29.599  43.793  53.489  1.00  0.00     0.256 C 
BRANCH   6   7
HETATM    7  O   UNL     1      30.313  43.466  54.678  1.00  0.00    -0.343 OA
BRANCH   7   8
HETATM    8  C   UNL     1      30.105  44.320  55.731  1.00  0.00     0.075 A 
HETATM    9  C   UNL     1      30.907  44.122  56.868  1.00  0.00    -0.029 A 
HETATM   10  C   UNL     1      31.968  43.058  56.896  1.00  0.00     0.051 C 
HETATM   11  C   UNL     1      30.759  44.981  57.968  1.00  0.00     0.009 A 
HETATM   12  C   UNL     1      29.804  45.997  57.953  1.00  0.00     0.001 A 
HETATM   13  C   UNL     1      28.987  46.166  56.839  1.00  0.00     0.003 A 
HETATM   14  C   UNL     1      29.132  45.328  55.732  1.00  0.00     0.037 A 
ENDBRANCH   7   8
ENDBRANCH   6   7
ENDBRANCH   1   6
BRANCH   2  15
HETATM   15  C   UNL     1      27.790  43.457  50.914  1.00  0.00     0.137 C 
BRANCH  15  16
HETATM   16  C   UNL     1      26.358  43.889  51.259  1.00  0.00     0.059 C 
BRANCH  16  17
HETATM   17  C   UNL     1      26.226  45.075  52.185  1.00  0.00    -0.057 A 
HETATM   18  C   UNL     1      26.114  44.917  53.572  1.00  0.00     0.007 A 
HETATM   19  C   UNL     1      25.901  46.020  54.401  1.00  0.00     0.001 A 
HETATM   20  C   UNL     1      25.783  47.297  53.855  1.00  0.00     0.000 A 
HETATM   21  C   UNL     1      25.885  47.471  52.478  1.00  0.00     0.001 A 
HETATM   22  C   UNL     1      26.106  46.369  51.648  1.00  0.00     0.007 A 
ENDBRANCH  16  17
ENDBRANCH  15  16
ENDBRANCH   2  15
BRANCH   3  23
HETATM   23  S   UNL     1      27.155  40.281  50.407  1.00  0.00    -0.081 SA
BRANCH  23  24
HETATM   24  C   UNL     1      28.440  39.416  49.455  1.00  0.00     0.185 C 
BRANCH  24  25
HETATM   25  C   UNL     1      28.615  37.981  49.924  1.00  0.00     0.226 C 
HETATM   26  N   UNL     1      29.564  37.809  50.912  1.00  0.00    -0.365 N 
HETATM   27  C   UNL     1      29.804  36.512  51.491  1.00  0.00     0.149 C 
HETATM   28  H   UNL     1      29.771  38.626  51.488  1.00  0.00     0.161 HD
HETATM   29  O   UNL     1      27.980  37.049  49.433  1.00  0.00    -0.273 OA
ENDBRANCH  24  25
ENDBRANCH  23  24
ENDBRANCH   3  23
TORSDOF 9
ENDMDL
MODEL 10
REMARK VINA RESULT:      -8.3      1.948      7.325
REMARK  9 active torsions:
REMARK  status: ('A' for Active; 'I' for Inactive)
REMARK    1  A    between atoms: C_3  and  O_4 
REMARK    2  A    between atoms: O_4  and  C_5 
REMARK    3  A    between atoms: C_5  and  C_6 
REMARK    4  A    between atoms: N_7  and  C_8 
REMARK    5  A    between atoms: C_8  and  C_9 
REMARK    6  A    between atoms: C_9  and  C_10 
REMARK    7  A    between atoms: C_16  and  S_17 
REMARK    8  A    between atoms: S_17  and  C_18 
REMARK    9  A    between atoms: C_18  and  C_19 
REMARK       I    between atoms: C_19  and  N_20 
ROOT
HETATM    1  C   UNL     1      27.088  42.374  50.385  1.00  0.00     0.155 A 
HETATM    2  N   UNL     1      26.980  43.244  51.453  1.00  0.00    -0.309 N 
HETATM    3  C   UNL     1      26.770  44.475  50.880  1.00  0.00     0.192 A 
HETATM    4  N   UNL     1      26.796  44.371  49.572  1.00  0.00    -0.123 NA
HETATM    5  N   UNL     1      26.986  43.058  49.260  1.00  0.00    -0.132 NA
ENDROOT
BRANCH   1   6
HETATM    6  C   UNL     1      27.351  40.909  50.447  1.00  0.00     0.256 C 
BRANCH   6   7
HETATM    7  O   UNL     1      28.583  40.654  49.776  1.00  0.00    -0.343 OA
BRANCH   7   8
HETATM    8  C   UNL     1      28.487  39.831  48.683  1.00  0.00     0.075 A 
HETATM    9  C   UNL     1      29.069  38.558  48.803  1.00  0.00    -0.029 A 
HETATM   10  C   UNL     1      29.715  38.115  50.086  1.00  0.00     0.051 C 
HETATM   11  C   UNL     1      28.980  37.661  47.727  1.00  0.00     0.009 A 
HETATM   12  C   UNL     1      28.356  38.037  46.538  1.00  0.00     0.001 A 
HETATM   13  C   UNL     1      27.815  39.313  46.411  1.00  0.00     0.003 A 
HETATM   14  C   UNL     1      27.883  40.210  47.478  1.00  0.00     0.037 A 
ENDBRANCH   7   8
ENDBRANCH   6   7
ENDBRANCH   1   6
BRANCH   2  15
HETATM   15  C   UNL     1      27.077  42.925  52.871  1.00  0.00     0.137 C 
BRANCH  15  16
HETATM   16  C   UNL     1      28.506  42.585  53.319  1.00  0.00     0.059 C 
BRANCH  16  17
HETATM   17  C   UNL     1      29.102  43.482  54.378  1.00  0.00    -0.057 A 
HETATM   18  C   UNL     1      28.516  44.708  54.719  1.00  0.00     0.007 A 
HETATM   19  C   UNL     1      29.132  45.563  55.634  1.00  0.00     0.001 A 
HETATM   20  C   UNL     1      30.351  45.212  56.213  1.00  0.00     0.000 A 
HETATM   21  C   UNL     1      30.950  44.001  55.880  1.00  0.00     0.001 A 
HETATM   22  C   UNL     1      30.331  43.141  54.970  1.00  0.00     0.007 A 
ENDBRANCH  16  17
ENDBRANCH  15  16
ENDBRANCH   2  15
BRANCH   3  23
HETATM   23  S   UNL     1      26.515  45.951  51.741  1.00  0.00    -0.081 SA
BRANCH  23  24
HETATM   24  C   UNL     1      24.784  46.313  51.318  1.00  0.00     0.185 C 
BRANCH  24  25
HETATM   25  C   UNL     1      24.675  47.498  50.372  1.00  0.00     0.226 C 
HETATM   26  N   UNL     1      23.408  47.720  49.872  1.00  0.00    -0.365 N 
HETATM   27  C   UNL     1      23.140  48.837  49.002  1.00  0.00     0.149 C 
HETATM   28  H   UNL     1      22.632  47.364  50.430  1.00  0.00     0.161 HD
HETATM   29  O   UNL     1      25.651  48.177  50.057  1.00  0.00    -0.273 OA
ENDBRANCH  24  25
ENDBRANCH  23  24
ENDBRANCH   3  23
TORSDOF 9
ENDMDL
