MODEL 1
REMARK VINA RESULT:      -9.9      0.000      0.000
REMARK  3 active torsions:
REMARK  status: ('A' for Active; 'I' for Inactive)
REMARK    1  A    between atoms: C_9  and  C_10 
REMARK       I    between atoms: C_10  and  N_11 
REMARK    2  A    between atoms: N_11  and  C_12 
REMARK    3  A    between atoms: C_14  and  C_15 
ROOT
HETATM    1  C   UNL     1      26.574  45.094  50.588  1.00  0.00     0.252 C 
HETATM    2  N   UNL     1      26.140  46.371  50.892  1.00  0.00    -0.325 N 
HETATM    3  O   UNL     1      27.204  44.760  49.586  1.00  0.00    -0.270 OA
HETATM    4  H   UNL     1      25.787  46.491  51.836  1.00  0.00     0.169 HD
ENDROOT
BRANCH   2   5
HETATM    5  C   UNL     1      25.992  47.465  50.022  1.00  0.00     0.035 A 
HETATM    6  C   UNL     1      24.757  48.015  49.672  1.00  0.00     0.042 A 
HETATM    7  C   UNL     1      24.681  49.175  48.882  1.00  0.00    -0.021 A 
HETATM    8  C   UNL     1      25.869  49.769  48.433  1.00  0.00     0.012 A 
HETATM    9  C   UNL     1      27.105  49.218  48.768  1.00  0.00     0.003 A 
HETATM   10  C   UNL     1      27.166  48.073  49.561  1.00  0.00     0.029 A 
BRANCH   7  11
HETATM   11  C   UNL     1      23.399  49.778  48.560  1.00  0.00     0.010 A 
HETATM   12  C   UNL     1      22.314  49.295  47.790  1.00  0.00     0.152 A 
HETATM   13  N   UNL     1      21.296  50.159  47.726  1.00  0.00    -0.187 NA
HETATM   14  N   UNL     1      21.728  51.203  48.453  1.00  0.00    -0.289 N 
HETATM   15  H   UNL     1      21.117  52.006  48.552  1.00  0.00     0.188 HD
HETATM   16  C   UNL     1      22.976  51.025  48.974  1.00  0.00     0.123 A 
ENDBRANCH   7  11
ENDBRANCH   2   5
BRANCH   1  17
HETATM   17  C   UNL     1      26.103  44.036  51.615  1.00  0.00     0.225 C 
HETATM   18  C   UNL     1      25.656  44.752  52.898  1.00  0.00     0.083 C 
HETATM   19  C   UNL     1      26.917  44.626  53.668  1.00  0.00    -0.021 A 
HETATM   20  C   UNL     1      27.684  43.616  53.118  1.00  0.00     0.076 A 
HETATM   21  C   UNL     1      27.368  45.342  54.760  1.00  0.00     0.017 A 
HETATM   22  C   UNL     1      28.913  43.261  53.631  1.00  0.00     0.044 A 
HETATM   23  O   UNL     1      27.145  43.088  51.968  1.00  0.00    -0.336 OA
HETATM   24  C   UNL     1      29.408  43.983  54.730  1.00  0.00    -0.053 A 
HETATM   25  C   UNL     1      28.636  45.038  55.289  1.00  0.00    -0.055 A 
HETATM   26  C   UNL     1      30.774  43.649  55.264  1.00  0.00     0.049 C 
HETATM   27  C   UNL     1      29.167  45.872  56.426  1.00  0.00     0.049 C 
ENDBRANCH   1  17
TORSDOF 3
ENDMDL
MODEL 2
REMARK VINA RESULT:      -9.1      2.707      8.167
REMARK  3 active torsions:
REMARK  status: ('A' for Active; 'I' for Inactive)
REMARK    1  A    between atoms: C_9  and  C_10 
REMARK       I    between atoms: C_10  and  N_11 
REMARK    2  A    between atoms: N_11  and  C_12 
REMARK    3  A    between atoms: C_14  and  C_15 
ROOT
HETATM    1  C   UNL     1      25.131  45.000  52.221  1.00  0.00     0.252 C 
HETATM    2  N   UNL     1      26.000  46.027  52.544  1.00  0.00    -0.325 N 
HETATM    3  O   UNL     1      24.557  44.258  53.015  1.00  0.00    -0.270 OA
HETATM    4  H   UNL     1      26.245  46.640  51.773  1.00  0.00     0.169 HD
ENDROOT
BRANCH   2   5
HETATM    5  C   UNL     1      26.690  46.230  53.752  1.00  0.00     0.035 A 
HETATM    6  C   UNL     1      27.738  45.418  54.192  1.00  0.00     0.042 A 
HETATM    7  C   UNL     1      28.457  45.736  55.357  1.00  0.00    -0.021 A 
HETATM    8  C   UNL     1      28.097  46.878  56.086  1.00  0.00     0.012 A 
HETATM    9  C   UNL     1      27.042  47.686  55.659  1.00  0.00     0.003 A 
HETATM   10  C   UNL     1      26.345  47.364  54.496  1.00  0.00     0.029 A 
BRANCH   7  11
HETATM   11  C   UNL     1      29.581  44.923  55.788  1.00  0.00     0.010 A 
HETATM   12  C   UNL     1      30.122  43.730  55.251  1.00  0.00     0.152 A 
HETATM   13  N   UNL     1      31.173  43.279  55.942  1.00  0.00    -0.187 NA
HETATM   14  N   UNL     1      31.307  44.180  56.929  1.00  0.00    -0.289 N 
HETATM   15  H   UNL     1      32.054  44.049  57.603  1.00  0.00     0.188 HD
HETATM   16  C   UNL     1      30.383  45.182  56.880  1.00  0.00     0.123 A 
ENDBRANCH   7  11
ENDBRANCH   2   5
BRANCH   1  17
HETATM   17  C   UNL     1      24.996  44.781  50.695  1.00  0.00     0.225 C 
HETATM   18  C   UNL     1      26.320  45.167  50.018  1.00  0.00     0.083 C 
HETATM   19  C   UNL     1      25.971  46.556  49.633  1.00  0.00    -0.021 A 
HETATM   20  C   UNL     1      24.596  46.695  49.641  1.00  0.00     0.076 A 
HETATM   21  C   UNL     1      26.787  47.622  49.309  1.00  0.00     0.017 A 
HETATM   22  C   UNL     1      23.973  47.880  49.314  1.00  0.00     0.044 A 
HETATM   23  O   UNL     1      23.938  45.577  50.101  1.00  0.00    -0.336 OA
HETATM   24  C   UNL     1      24.776  48.988  48.998  1.00  0.00    -0.053 A 
HETATM   25  C   UNL     1      26.193  48.861  49.008  1.00  0.00    -0.055 A 
HETATM   26  C   UNL     1      24.114  50.305  48.698  1.00  0.00     0.049 C 
HETATM   27  C   UNL     1      27.081  50.047  48.738  1.00  0.00     0.049 C 
ENDBRANCH   1  17
TORSDOF 3
ENDMDL
MODEL 3
REMARK VINA RESULT:      -8.7      2.780      8.602
REMARK  3 active torsions:
REMARK  status: ('A' for Active; 'I' for Inactive)
REMARK    1  A    between atoms: C_9  and  C_10 
REMARK       I    between atoms: C_10  and  N_11 
REMARK    2  A    between atoms: N_11  and  C_12 
REMARK    3  A    between atoms: C_14  and  C_15 
ROOT
HETATM    1  C   UNL     1      25.122  46.176  51.341  1.00  0.00     0.252 C 
HETATM    2  N   UNL     1      25.929  47.073  52.018  1.00  0.00    -0.325 N 
HETATM    3  O   UNL     1      24.482  45.253  51.841  1.00  0.00    -0.270 OA
HETATM    4  H   UNL     1      26.242  47.867  51.469  1.00  0.00     0.169 HD
ENDROOT
BRANCH   2   5
HETATM    5  C   UNL     1      26.480  46.941  53.304  1.00  0.00     0.035 A 
HETATM    6  C   UNL     1      27.459  46.001  53.636  1.00  0.00     0.042 A 
HETATM    7  C   UNL     1      28.046  45.991  54.912  1.00  0.00    -0.021 A 
HETATM    8  C   UNL     1      27.624  46.932  55.861  1.00  0.00     0.012 A 
HETATM    9  C   UNL     1      26.638  47.865  55.541  1.00  0.00     0.003 A 
HETATM   10  C   UNL     1      26.071  47.871  54.267  1.00  0.00     0.029 A 
BRANCH   7  11
HETATM   11  C   UNL     1      29.100  45.047  55.243  1.00  0.00     0.010 A 
HETATM   12  C   UNL     1      29.405  43.772  54.710  1.00  0.00     0.152 A 
HETATM   13  N   UNL     1      30.469  43.207  55.287  1.00  0.00    -0.187 NA
HETATM   14  N   UNL     1      30.850  44.119  56.197  1.00  0.00    -0.289 N 
HETATM   15  H   UNL     1      31.656  43.912  56.778  1.00  0.00     0.188 HD
HETATM   16  C   UNL     1      30.067  45.236  56.210  1.00  0.00     0.123 A 
ENDBRANCH   7  11
ENDBRANCH   2   5
BRANCH   1  17
HETATM   17  C   UNL     1      25.157  46.372  49.806  1.00  0.00     0.225 C 
HETATM   18  C   UNL     1      25.347  47.865  49.499  1.00  0.00     0.083 C 
HETATM   19  C   UNL     1      23.923  48.229  49.298  1.00  0.00    -0.021 A 
HETATM   20  C   UNL     1      23.195  47.082  49.043  1.00  0.00     0.076 A 
HETATM   21  C   UNL     1      23.304  49.463  49.344  1.00  0.00     0.017 A 
HETATM   22  C   UNL     1      21.838  47.108  48.804  1.00  0.00     0.044 A 
HETATM   23  O   UNL     1      23.939  45.929  49.152  1.00  0.00    -0.336 OA
HETATM   24  C   UNL     1      21.177  48.346  48.862  1.00  0.00    -0.053 A 
HETATM   25  C   UNL     1      21.913  49.529  49.146  1.00  0.00    -0.055 A 
HETATM   26  C   UNL     1      19.685  48.384  48.665  1.00  0.00     0.049 C 
HETATM   27  C   UNL     1      21.222  50.861  49.279  1.00  0.00     0.049 C 
ENDBRANCH   1  17
TORSDOF 3
ENDMDL
MODEL 4
REMARK VINA RESULT:      -8.6      2.226      3.402
REMARK  3 active torsions:
REMARK  status: ('A' for Active; 'I' for Inactive)
REMARK    1  A    between atoms: C_9  and  C_10 
REMARK       I    between atoms: C_10  and  N_11 
REMARK    2  A    between atoms: N_11  and  C_12 
REMARK    3  A    between atoms: C_14  and  C_15 
ROOT
HETATM    1  C   UNL     1      24.543  46.730  49.508  1.00  0.00     0.252 C 
HETATM    2  N   UNL     1      23.270  47.217  49.273  1.00  0.00    -0.325 N 
HETATM    3  O   UNL     1      25.543  47.402  49.754  1.00  0.00    -0.270 OA
HETATM    4  H   UNL     1      22.538  46.513  49.257  1.00  0.00     0.169 HD
ENDROOT
BRANCH   2   5
HETATM    5  C   UNL     1      22.894  48.522  48.912  1.00  0.00     0.035 A 
HETATM    6  C   UNL     1      21.641  49.074  49.189  1.00  0.00     0.042 A 
HETATM    7  C   UNL     1      21.364  50.420  48.896  1.00  0.00    -0.021 A 
HETATM    8  C   UNL     1      22.363  51.204  48.303  1.00  0.00     0.012 A 
HETATM    9  C   UNL     1      23.611  50.657  48.010  1.00  0.00     0.003 A 
HETATM   10  C   UNL     1      23.876  49.323  48.316  1.00  0.00     0.029 A 
BRANCH   7  11
HETATM   11  C   UNL     1      20.079  51.009  49.232  1.00  0.00     0.010 A 
HETATM   12  C   UNL     1      19.105  50.629  50.186  1.00  0.00     0.152 A 
HETATM   13  N   UNL     1      18.041  51.437  50.194  1.00  0.00    -0.187 NA
HETATM   14  N   UNL     1      18.328  52.338  49.240  1.00  0.00    -0.289 N 
HETATM   15  H   UNL     1      17.652  53.071  49.052  1.00  0.00     0.188 HD
HETATM   16  C   UNL     1      19.533  52.128  48.637  1.00  0.00     0.123 A 
ENDBRANCH   7  11
ENDBRANCH   2   5
BRANCH   1  17
HETATM   17  C   UNL     1      24.643  45.195  49.339  1.00  0.00     0.225 C 
HETATM   18  C   UNL     1      23.920  44.517  50.512  1.00  0.00     0.083 C 
HETATM   19  C   UNL     1      25.094  44.282  51.386  1.00  0.00    -0.021 A 
HETATM   20  C   UNL     1      26.246  44.350  50.624  1.00  0.00     0.076 A 
HETATM   21  C   UNL     1      25.159  44.039  52.744  1.00  0.00     0.017 A 
HETATM   22  C   UNL     1      27.499  44.161  51.165  1.00  0.00     0.044 A 
HETATM   23  O   UNL     1      26.014  44.718  49.319  1.00  0.00    -0.336 OA
HETATM   24  C   UNL     1      27.599  43.930  52.547  1.00  0.00    -0.053 A 
HETATM   25  C   UNL     1      26.422  43.882  53.343  1.00  0.00    -0.055 A 
HETATM   26  C   UNL     1      28.964  43.784  53.163  1.00  0.00     0.049 C 
HETATM   27  C   UNL     1      26.500  43.700  54.837  1.00  0.00     0.049 C 
ENDBRANCH   1  17
TORSDOF 3
ENDMDL
MODEL 5
REMARK VINA RESULT:      -8.6      4.829      8.109
REMARK  3 active torsions:
REMARK  status: ('A' for Active; 'I' for Inactive)
REMARK    1  A    between atoms: C_9  and  C_10 
REMARK       I    between atoms: C_10  and  N_11 
REMARK    2  A    between atoms: N_11  and  C_12 
REMARK    3  A    between atoms: C_14  and  C_15 
ROOT
HETATM    1  C   UNL     1      26.518  43.666  51.589  1.00  0.00     0.252 C 
HETATM    2  N   UNL     1      27.871  43.949  51.629  1.00  0.00    -0.325 N 
HETATM    3  O   UNL     1      25.772  43.545  52.558  1.00  0.00    -0.270 OA
HETATM    4  H   UNL     1      28.287  44.180  50.732  1.00  0.00     0.169 HD
ENDROOT
BRANCH   2   5
HETATM    5  C   UNL     1      28.752  43.813  52.715  1.00  0.00     0.035 A 
HETATM    6  C   UNL     1      28.698  44.607  53.862  1.00  0.00     0.042 A 
HETATM    7  C   UNL     1      29.540  44.352  54.958  1.00  0.00    -0.021 A 
HETATM    8  C   UNL     1      30.452  43.290  54.879  1.00  0.00     0.012 A 
HETATM    9  C   UNL     1      30.521  42.501  53.731  1.00  0.00     0.003 A 
HETATM   10  C   UNL     1      29.673  42.760  52.656  1.00  0.00     0.029 A 
BRANCH   7  11
HETATM   11  C   UNL     1      29.449  45.144  56.173  1.00  0.00     0.010 A 
HETATM   12  C   UNL     1      28.417  45.982  56.658  1.00  0.00     0.152 A 
HETATM   13  N   UNL     1      28.714  46.547  57.832  1.00  0.00    -0.187 NA
HETATM   14  N   UNL     1      29.942  46.075  58.102  1.00  0.00    -0.289 N 
HETATM   15  H   UNL     1      30.394  46.371  58.961  1.00  0.00     0.188 HD
HETATM   16  C   UNL     1      30.425  45.233  57.144  1.00  0.00     0.123 A 
ENDBRANCH   7  11
ENDBRANCH   2   5
BRANCH   1  17
HETATM   17  C   UNL     1      25.998  43.406  50.154  1.00  0.00     0.225 C 
HETATM   18  C   UNL     1      25.030  42.213  50.184  1.00  0.00     0.083 C 
HETATM   19  C   UNL     1      25.986  41.146  49.802  1.00  0.00    -0.021 A 
HETATM   20  C   UNL     1      27.089  41.722  49.199  1.00  0.00     0.076 A 
HETATM   21  C   UNL     1      25.909  39.778  49.974  1.00  0.00     0.017 A 
HETATM   22  C   UNL     1      28.145  40.974  48.727  1.00  0.00     0.044 A 
HETATM   23  O   UNL     1      27.062  43.098  49.215  1.00  0.00    -0.336 OA
HETATM   24  C   UNL     1      28.105  39.581  48.904  1.00  0.00    -0.053 A 
HETATM   25  C   UNL     1      26.985  38.981  49.543  1.00  0.00    -0.055 A 
HETATM   26  C   UNL     1      29.278  38.755  48.449  1.00  0.00     0.049 C 
HETATM   27  C   UNL     1      26.942  37.498  49.804  1.00  0.00     0.049 C 
ENDBRANCH   1  17
TORSDOF 3
ENDMDL
MODEL 6
REMARK VINA RESULT:      -8.5      3.287      9.165
REMARK  3 active torsions:
REMARK  status: ('A' for Active; 'I' for Inactive)
REMARK    1  A    between atoms: C_9  and  C_10 
REMARK       I    between atoms: C_10  and  N_11 
REMARK    2  A    between atoms: N_11  and  C_12 
REMARK    3  A    between atoms: C_14  and  C_15 
ROOT
HETATM    1  C   UNL     1      23.607  48.815  49.251  1.00  0.00     0.252 C 
HETATM    2  N   UNL     1      24.483  47.744  49.239  1.00  0.00    -0.325 N 
HETATM    3  O   UNL     1      23.151  49.370  50.248  1.00  0.00    -0.270 OA
HETATM    4  H   UNL     1      24.883  47.527  48.332  1.00  0.00     0.169 HD
ENDROOT
BRANCH   2   5
HETATM    5  C   UNL     1      24.764  46.844  50.282  1.00  0.00     0.035 A 
HETATM    6  C   UNL     1      25.472  47.190  51.435  1.00  0.00     0.042 A 
HETATM    7  C   UNL     1      25.628  46.273  52.488  1.00  0.00    -0.021 A 
HETATM    8  C   UNL     1      25.075  44.992  52.360  1.00  0.00     0.012 A 
HETATM    9  C   UNL     1      24.379  44.635  51.205  1.00  0.00     0.003 A 
HETATM   10  C   UNL     1      24.222  45.559  50.173  1.00  0.00     0.029 A 
BRANCH   7  11
HETATM   11  C   UNL     1      26.319  46.649  53.710  1.00  0.00     0.010 A 
HETATM   12  C   UNL     1      26.172  47.780  54.548  1.00  0.00     0.152 A 
HETATM   13  N   UNL     1      27.003  47.763  55.594  1.00  0.00    -0.187 NA
HETATM   14  N   UNL     1      27.690  46.621  55.429  1.00  0.00    -0.289 N 
HETATM   15  H   UNL     1      28.400  46.382  56.113  1.00  0.00     0.188 HD
HETATM   16  C   UNL     1      27.318  45.918  54.321  1.00  0.00     0.123 A 
ENDBRANCH   7  11
ENDBRANCH   2   5
BRANCH   1  17
HETATM   17  C   UNL     1      23.142  49.229  47.834  1.00  0.00     0.225 C 
HETATM   18  C   UNL     1      22.857  50.739  47.825  1.00  0.00     0.083 C 
HETATM   19  C   UNL     1      21.394  50.687  48.058  1.00  0.00    -0.021 A 
HETATM   20  C   UNL     1      20.931  49.424  47.741  1.00  0.00     0.076 A 
HETATM   21  C   UNL     1      20.531  51.661  48.520  1.00  0.00     0.017 A 
HETATM   22  C   UNL     1      19.601  49.078  47.848  1.00  0.00     0.044 A 
HETATM   23  O   UNL     1      21.934  48.542  47.412  1.00  0.00    -0.336 OA
HETATM   24  C   UNL     1      18.701  50.041  48.334  1.00  0.00    -0.053 A 
HETATM   25  C   UNL     1      19.172  51.337  48.684  1.00  0.00    -0.055 A 
HETATM   26  C   UNL     1      17.256  49.661  48.515  1.00  0.00     0.049 C 
HETATM   27  C   UNL     1      18.243  52.370  49.267  1.00  0.00     0.049 C 
ENDBRANCH   1  17
TORSDOF 3
ENDMDL
MODEL 7
REMARK VINA RESULT:      -8.5      4.601      8.255
REMARK  3 active torsions:
REMARK  status: ('A' for Active; 'I' for Inactive)
REMARK    1  A    between atoms: C_9  and  C_10 
REMARK       I    between atoms: C_10  and  N_11 
REMARK    2  A    between atoms: N_11  and  C_12 
REMARK    3  A    between atoms: C_14  and  C_15 
ROOT
HETATM    1  C   UNL     1      27.152  44.056  51.474  1.00  0.00     0.252 C 
HETATM    2  N   UNL     1      26.652  44.352  52.729  1.00  0.00    -0.325 N 
HETATM    3  O   UNL     1      28.333  44.091  51.135  1.00  0.00    -0.270 OA
HETATM    4  H   UNL     1      25.677  44.106  52.872  1.00  0.00     0.169 HD
ENDROOT
BRANCH   2   5
HETATM    5  C   UNL     1      27.275  45.075  53.761  1.00  0.00     0.035 A 
HETATM    6  C   UNL     1      28.284  44.554  54.573  1.00  0.00     0.042 A 
HETATM    7  C   UNL     1      28.940  45.361  55.517  1.00  0.00    -0.021 A 
HETATM    8  C   UNL     1      28.556  46.703  55.646  1.00  0.00     0.012 A 
HETATM    9  C   UNL     1      27.540  47.227  54.848  1.00  0.00     0.003 A 
HETATM   10  C   UNL     1      26.905  46.417  53.907  1.00  0.00     0.029 A 
BRANCH   7  11
HETATM   11  C   UNL     1      30.026  44.834  56.327  1.00  0.00     0.010 A 
HETATM   12  C   UNL     1      30.967  43.810  56.063  1.00  0.00     0.152 A 
HETATM   13  N   UNL     1      31.820  43.615  57.072  1.00  0.00    -0.187 NA
HETATM   14  N   UNL     1      31.427  44.513  57.991  1.00  0.00    -0.289 N 
HETATM   15  H   UNL     1      31.932  44.557  58.869  1.00  0.00     0.188 HD
HETATM   16  C   UNL     1      30.362  45.267  57.594  1.00  0.00     0.123 A 
ENDBRANCH   7  11
ENDBRANCH   2   5
BRANCH   1  17
HETATM   17  C   UNL     1      26.042  43.749  50.439  1.00  0.00     0.225 C 
HETATM   18  C   UNL     1      25.240  42.530  50.917  1.00  0.00     0.083 C 
HETATM   19  C   UNL     1      25.952  41.483  50.145  1.00  0.00    -0.021 A 
HETATM   20  C   UNL     1      26.634  42.079  49.100  1.00  0.00     0.076 A 
HETATM   21  C   UNL     1      26.012  40.118  50.341  1.00  0.00     0.017 A 
HETATM   22  C   UNL     1      27.383  41.352  48.200  1.00  0.00     0.044 A 
HETATM   23  O   UNL     1      26.568  43.453  49.119  1.00  0.00    -0.336 OA
HETATM   24  C   UNL     1      27.479  39.963  48.383  1.00  0.00    -0.053 A 
HETATM   25  C   UNL     1      26.799  39.344  49.468  1.00  0.00    -0.055 A 
HETATM   26  C   UNL     1      28.342  39.162  47.446  1.00  0.00     0.049 C 
HETATM   27  C   UNL     1      26.934  37.866  49.729  1.00  0.00     0.049 C 
ENDBRANCH   1  17
TORSDOF 3
ENDMDL
MODEL 8
REMARK VINA RESULT:      -8.3      4.512      7.018
REMARK  3 active torsions:
REMARK  status: ('A' for Active; 'I' for Inactive)
REMARK    1  A    between atoms: C_9  and  C_10 
REMARK       I    between atoms: C_10  and  N_11 
REMARK    2  A    between atoms: N_11  and  C_12 
REMARK    3  A    between atoms: C_14  and  C_15 
ROOT
HETATM    1  C   UNL     1      25.963  42.793  50.161  1.00  0.00     0.252 C 
HETATM    2  N   UNL     1      27.032  43.626  50.437  1.00  0.00    -0.325 N 
HETATM    3  O   UNL     1      25.073  42.469  50.945  1.00  0.00    -0.270 OA
HETATM    4  H   UNL     1      27.570  43.916  49.627  1.00  0.00     0.169 HD
ENDROOT
BRANCH   2   5
HETATM    5  C   UNL     1      27.542  43.992  51.695  1.00  0.00     0.035 A 
HETATM    6  C   UNL     1      27.111  45.110  52.411  1.00  0.00     0.042 A 
HETATM    7  C   UNL     1      27.585  45.363  53.710  1.00  0.00    -0.021 A 
HETATM    8  C   UNL     1      28.516  44.481  54.276  1.00  0.00     0.012 A 
HETATM    9  C   UNL     1      28.962  43.369  53.560  1.00  0.00     0.003 A 
HETATM   10  C   UNL     1      28.474  43.125  52.277  1.00  0.00     0.029 A 
BRANCH   7  11
HETATM   11  C   UNL     1      27.097  46.496  54.477  1.00  0.00     0.010 A 
HETATM   12  C   UNL     1      25.998  47.361  54.258  1.00  0.00     0.152 A 
HETATM   13  N   UNL     1      25.877  48.298  55.202  1.00  0.00    -0.187 NA
HETATM   14  N   UNL     1      26.902  48.039  56.031  1.00  0.00    -0.289 N 
HETATM   15  H   UNL     1      27.025  48.632  56.845  1.00  0.00     0.188 HD
HETATM   16  C   UNL     1      27.659  46.973  55.644  1.00  0.00     0.123 A 
ENDBRANCH   7  11
ENDBRANCH   2   5
BRANCH   1  17
HETATM   17  C   UNL     1      26.022  42.186  48.738  1.00  0.00     0.225 C 
HETATM   18  C   UNL     1      25.263  40.851  48.734  1.00  0.00     0.083 C 
HETATM   19  C   UNL     1      26.417  39.942  48.938  1.00  0.00    -0.021 A 
HETATM   20  C   UNL     1      27.581  40.609  48.603  1.00  0.00     0.076 A 
HETATM   21  C   UNL     1      26.454  38.638  49.390  1.00  0.00     0.017 A 
HETATM   22  C   UNL     1      28.820  40.012  48.682  1.00  0.00     0.044 A 
HETATM   23  O   UNL     1      27.379  41.933  48.288  1.00  0.00    -0.336 OA
HETATM   24  C   UNL     1      28.893  38.692  49.156  1.00  0.00    -0.053 A 
HETATM   25  C   UNL     1      27.704  38.005  49.524  1.00  0.00    -0.055 A 
HETATM   26  C   UNL     1      30.244  38.046  49.306  1.00  0.00     0.049 C 
HETATM   27  C   UNL     1      27.755  36.613  50.096  1.00  0.00     0.049 C 
ENDBRANCH   1  17
TORSDOF 3
ENDMDL
MODEL 9
REMARK VINA RESULT:      -8.2      4.377      7.977
REMARK  3 active torsions:
REMARK  status: ('A' for Active; 'I' for Inactive)
REMARK    1  A    between atoms: C_9  and  C_10 
REMARK       I    between atoms: C_10  and  N_11 
REMARK    2  A    between atoms: N_11  and  C_12 
REMARK    3  A    between atoms: C_14  and  C_15 
ROOT
HETATM    1  C   UNL     1      25.665  42.899  50.230  1.00  0.00     0.252 C 
HETATM    2  N   UNL     1      26.375  43.993  50.689  1.00  0.00    -0.325 N 
HETATM    3  O   UNL     1      24.838  42.249  50.867  1.00  0.00    -0.270 OA
HETATM    4  H   UNL     1      26.884  44.505  49.975  1.00  0.00     0.169 HD
ENDROOT
BRANCH   2   5
HETATM    5  C   UNL     1      26.593  44.387  52.021  1.00  0.00     0.035 A 
HETATM    6  C   UNL     1      27.735  44.051  52.752  1.00  0.00     0.042 A 
HETATM    7  C   UNL     1      27.942  44.564  54.043  1.00  0.00    -0.021 A 
HETATM    8  C   UNL     1      26.975  45.411  54.600  1.00  0.00     0.012 A 
HETATM    9  C   UNL     1      25.825  45.740  53.882  1.00  0.00     0.003 A 
HETATM   10  C   UNL     1      25.638  45.232  52.597  1.00  0.00     0.029 A 
BRANCH   7  11
HETATM   11  C   UNL     1      29.155  44.258  54.784  1.00  0.00     0.010 A 
HETATM   12  C   UNL     1      29.854  45.000  55.766  1.00  0.00     0.152 A 
HETATM   13  N   UNL     1      30.942  44.370  56.216  1.00  0.00    -0.187 NA
HETATM   14  N   UNL     1      30.947  43.221  55.521  1.00  0.00    -0.289 N 
HETATM   15  H   UNL     1      31.698  42.559  55.689  1.00  0.00     0.188 HD
HETATM   16  C   UNL     1      29.901  43.104  54.654  1.00  0.00     0.123 A 
ENDBRANCH   7  11
ENDBRANCH   2   5
BRANCH   1  17
HETATM   17  C   UNL     1      26.079  42.468  48.802  1.00  0.00     0.225 C 
HETATM   18  C   UNL     1      25.321  41.183  48.431  1.00  0.00     0.083 C 
HETATM   19  C   UNL     1      26.367  40.199  48.801  1.00  0.00    -0.021 A 
HETATM   20  C   UNL     1      27.590  40.840  48.862  1.00  0.00     0.076 A 
HETATM   21  C   UNL     1      26.262  38.849  49.073  1.00  0.00     0.017 A 
HETATM   22  C   UNL     1      28.756  40.175  49.174  1.00  0.00     0.044 A 
HETATM   23  O   UNL     1      27.501  42.202  48.682  1.00  0.00    -0.336 OA
HETATM   24  C   UNL     1      28.679  38.805  49.475  1.00  0.00    -0.053 A 
HETATM   25  C   UNL     1      27.422  38.141  49.436  1.00  0.00    -0.055 A 
HETATM   26  C   UNL     1      29.933  38.077  49.878  1.00  0.00     0.049 C 
HETATM   27  C   UNL     1      27.298  36.689  49.816  1.00  0.00     0.049 C 
ENDBRANCH   1  17
TORSDOF 3
ENDMDL
MODEL 10
REMARK VINA RESULT:      -8.1      5.319     10.963
REMARK  3 active torsions:
REMARK  status: ('A' for Active; 'I' for Inactive)
REMARK    1  A    between atoms: C_9  and  C_10 
REMARK       I    between atoms: C_10  and  N_11 
REMARK    2  A    between atoms: N_11  and  C_12 
REMARK    3  A    between atoms: C_14  and  C_15 
ROOT
HETATM    1  C   UNL     1      19.471  51.011  50.061  1.00  0.00     0.252 C 
HETATM    2  N   UNL     1      20.689  51.069  49.409  1.00  0.00    -0.325 N 
HETATM    3  O   UNL     1      19.072  50.092  50.774  1.00  0.00    -0.270 OA
HETATM    4  H   UNL     1      20.918  51.973  49.007  1.00  0.00     0.169 HD
ENDROOT
BRANCH   2   5
HETATM    5  C   UNL     1      21.564  50.010  49.111  1.00  0.00     0.035 A 
HETATM    6  C   UNL     1      22.953  50.146  49.046  1.00  0.00     0.042 A 
HETATM    7  C   UNL     1      23.779  49.027  48.848  1.00  0.00    -0.021 A 
HETATM    8  C   UNL     1      23.188  47.765  48.700  1.00  0.00     0.012 A 
HETATM    9  C   UNL     1      21.801  47.623  48.751  1.00  0.00     0.003 A 
HETATM   10  C   UNL     1      20.994  48.741  48.958  1.00  0.00     0.029 A 
BRANCH   7  11
HETATM   11  C   UNL     1      25.226  49.159  48.833  1.00  0.00     0.010 A 
HETATM   12  C   UNL     1      26.229  48.455  49.542  1.00  0.00     0.152 A 
HETATM   13  N   UNL     1      27.463  48.875  49.250  1.00  0.00    -0.187 NA
HETATM   14  N   UNL     1      27.256  49.854  48.354  1.00  0.00    -0.289 N 
HETATM   15  H   UNL     1      28.062  50.341  47.977  1.00  0.00     0.188 HD
HETATM   16  C   UNL     1      25.938  50.061  48.070  1.00  0.00     0.123 A 
ENDBRANCH   7  11
ENDBRANCH   2   5
BRANCH   1  17
HETATM   17  C   UNL     1      18.555  52.215  49.737  1.00  0.00     0.225 C 
HETATM   18  C   UNL     1      17.090  51.787  49.913  1.00  0.00     0.083 C 
HETATM   19  C   UNL     1      16.789  51.451  48.500  1.00  0.00    -0.021 A 
HETATM   20  C   UNL     1      17.723  52.059  47.683  1.00  0.00     0.076 A 
HETATM   21  C   UNL     1      15.785  50.667  47.966  1.00  0.00     0.017 A 
HETATM   22  C   UNL     1      17.693  51.934  46.310  1.00  0.00     0.044 A 
HETATM   23  O   UNL     1      18.721  52.701  48.379  1.00  0.00    -0.336 OA
HETATM   24  C   UNL     1      16.695  51.128  45.738  1.00  0.00    -0.053 A 
HETATM   25  C   UNL     1      15.743  50.480  46.573  1.00  0.00    -0.055 A 
HETATM   26  C   UNL     1      16.685  50.932  44.246  1.00  0.00     0.049 C 
HETATM   27  C   UNL     1      14.701  49.559  45.994  1.00  0.00     0.049 C 
ENDBRANCH   1  17
TORSDOF 3
ENDMDL
