MODEL 1
REMARK VINA RESULT:     -10.1      0.000      0.000
REMARK  4 active torsions:
REMARK  status: ('A' for Active; 'I' for Inactive)
REMARK    1  A    between atoms: C_2  and  C_3 
REMARK    2  A    between atoms: C_7  and  C_8 
REMARK       I    between atoms: C_8  and  N_9 
REMARK    3  A    between atoms: N_9  and  C_10 
REMARK    4  A    between atoms: C_10  and  C_11 
ROOT
HETATM    1  C   UNL     1      26.740  45.358  50.600  1.00  0.00     0.270 C 
HETATM    2  N   UNL     1      26.826  45.255  51.966  1.00  0.00    -0.351 N 
HETATM    3  O   UNL     1      27.206  44.515  49.842  1.00  0.00    -0.266 OA
HETATM    4  H   UNL     1      26.350  45.922  52.554  1.00  0.00     0.163 HD
ENDROOT
BRANCH   1   5
HETATM    5  C   UNL     1      26.069  46.531  50.108  1.00  0.00     0.120 A 
HETATM    6  N   UNL     1      26.775  47.597  49.627  1.00  0.00    -0.272 N 
HETATM    7  N   UNL     1      26.014  48.612  49.196  1.00  0.00    -0.174 NA
HETATM    8  H   UNL     1      27.786  47.680  49.570  1.00  0.00     0.189 HD
HETATM    9  C   UNL     1      24.752  48.208  49.409  1.00  0.00     0.089 A 
HETATM   10  C   UNL     1      24.746  46.904  49.984  1.00  0.00     0.071 A 
BRANCH   9  11
HETATM   11  C   UNL     1      23.608  49.058  49.056  1.00  0.00    -0.005 A 
HETATM   12  C   UNL     1      23.811  50.400  48.687  1.00  0.00     0.017 A 
HETATM   13  C   UNL     1      22.734  51.220  48.340  1.00  0.00     0.043 A 
HETATM   14  C   UNL     1      21.448  50.701  48.363  1.00  0.00     0.116 A 
HETATM   15  C   UNL     1      21.217  49.381  48.728  1.00  0.00     0.043 A 
HETATM   16  F   UNL     1      20.413  51.485  48.031  1.00  0.00    -0.206 F 
HETATM   17  C   UNL     1      22.295  48.559  49.074  1.00  0.00     0.017 A 
ENDBRANCH   9  11
ENDBRANCH   1   5
BRANCH   2  18
HETATM   18  C   UNL     1      27.440  44.113  52.604  1.00  0.00     0.161 C 
BRANCH  18  19
HETATM   19  C   UNL     1      28.253  44.522  53.806  1.00  0.00    -0.040 A 
HETATM   20  C   UNL     1      29.223  43.659  54.339  1.00  0.00     0.018 A 
HETATM   21  C   UNL     1      29.959  44.013  55.480  1.00  0.00    -0.024 A 
HETATM   22  C   UNL     1      29.685  45.228  56.115  1.00  0.00     0.075 A 
HETATM   23  C   UNL     1      30.997  43.075  56.024  1.00  0.00     0.043 C 
HETATM   24  O   UNL     1      30.333  45.655  57.245  1.00  0.00    -0.351 OA
HETATM   25  C   UNL     1      28.727  46.095  55.593  1.00  0.00     0.038 A 
HETATM   26  C   UNL     1      31.030  44.624  57.951  1.00  0.00     0.176 C 
HETATM   27  C   UNL     1      31.896  43.790  57.023  1.00  0.00     0.031 C 
HETATM   28  C   UNL     1      28.011  45.745  54.446  1.00  0.00     0.011 A 
ENDBRANCH  18  19
ENDBRANCH   2  18
TORSDOF 4
ENDMDL
MODEL 2
REMARK VINA RESULT:      -9.6      3.970      9.777
REMARK  4 active torsions:
REMARK  status: ('A' for Active; 'I' for Inactive)
REMARK    1  A    between atoms: C_2  and  C_3 
REMARK    2  A    between atoms: C_7  and  C_8 
REMARK       I    between atoms: C_8  and  N_9 
REMARK    3  A    between atoms: N_9  and  C_10 
REMARK    4  A    between atoms: C_10  and  C_11 
ROOT
HETATM    1  C   UNL     1      26.933  43.868  50.791  1.00  0.00     0.270 C 
HETATM    2  N   UNL     1      25.692  44.356  51.112  1.00  0.00    -0.351 N 
HETATM    3  O   UNL     1      27.268  43.612  49.640  1.00  0.00    -0.266 OA
HETATM    4  H   UNL     1      25.489  44.640  52.059  1.00  0.00     0.163 HD
ENDROOT
BRANCH   1   5
HETATM    5  C   UNL     1      27.825  43.666  51.901  1.00  0.00     0.120 A 
HETATM    6  N   UNL     1      28.624  42.560  51.971  1.00  0.00    -0.272 N 
HETATM    7  N   UNL     1      29.407  42.514  53.057  1.00  0.00    -0.174 NA
HETATM    8  H   UNL     1      28.674  41.803  51.295  1.00  0.00     0.189 HD
HETATM    9  C   UNL     1      29.108  43.629  53.742  1.00  0.00     0.089 A 
HETATM   10  C   UNL     1      28.115  44.379  53.047  1.00  0.00     0.071 A 
BRANCH   9  11
HETATM   11  C   UNL     1      29.773  43.947  55.012  1.00  0.00    -0.005 A 
HETATM   12  C   UNL     1      29.477  45.147  55.683  1.00  0.00     0.017 A 
HETATM   13  C   UNL     1      30.094  45.461  56.897  1.00  0.00     0.043 A 
HETATM   14  C   UNL     1      31.013  44.577  57.444  1.00  0.00     0.116 A 
HETATM   15  C   UNL     1      31.329  43.387  56.799  1.00  0.00     0.043 A 
HETATM   16  F   UNL     1      31.607  44.875  58.607  1.00  0.00    -0.206 F 
HETATM   17  C   UNL     1      30.711  43.071  55.585  1.00  0.00     0.017 A 
ENDBRANCH   9  11
ENDBRANCH   1   5
BRANCH   2  18
HETATM   18  C   UNL     1      24.704  44.643  50.097  1.00  0.00     0.161 C 
BRANCH  18  19
HETATM   19  C   UNL     1      24.638  46.118  49.791  1.00  0.00    -0.040 A 
HETATM   20  C   UNL     1      23.472  46.685  49.254  1.00  0.00     0.018 A 
HETATM   21  C   UNL     1      23.412  48.049  48.930  1.00  0.00    -0.024 A 
HETATM   22  C   UNL     1      24.550  48.840  49.108  1.00  0.00     0.075 A 
HETATM   23  C   UNL     1      22.148  48.631  48.366  1.00  0.00     0.043 C 
HETATM   24  O   UNL     1      24.599  50.176  48.804  1.00  0.00    -0.351 OA
HETATM   25  C   UNL     1      25.713  48.291  49.645  1.00  0.00     0.038 A 
HETATM   26  C   UNL     1      23.549  50.624  47.942  1.00  0.00     0.176 C 
HETATM   27  C   UNL     1      22.186  50.151  48.419  1.00  0.00     0.031 C 
HETATM   28  C   UNL     1      25.760  46.936  49.982  1.00  0.00     0.011 A 
ENDBRANCH  18  19
ENDBRANCH   2  18
TORSDOF 4
ENDMDL
MODEL 3
REMARK VINA RESULT:      -9.4      4.112     10.341
REMARK  4 active torsions:
REMARK  status: ('A' for Active; 'I' for Inactive)
REMARK    1  A    between atoms: C_2  and  C_3 
REMARK    2  A    between atoms: C_7  and  C_8 
REMARK       I    between atoms: C_8  and  N_9 
REMARK    3  A    between atoms: N_9  and  C_10 
REMARK    4  A    between atoms: C_10  and  C_11 
ROOT
HETATM    1  C   UNL     1      23.921  47.237  49.515  1.00  0.00     0.270 C 
HETATM    2  N   UNL     1      22.786  46.577  49.116  1.00  0.00    -0.351 N 
HETATM    3  O   UNL     1      24.347  48.230  48.936  1.00  0.00    -0.266 OA
HETATM    4  H   UNL     1      22.419  45.821  49.674  1.00  0.00     0.163 HD
ENDROOT
BRANCH   1   5
HETATM    5  C   UNL     1      24.590  46.682  50.660  1.00  0.00     0.120 A 
HETATM    6  N   UNL     1      24.216  45.474  51.178  1.00  0.00    -0.272 N 
HETATM    7  N   UNL     1      24.937  45.082  52.237  1.00  0.00    -0.174 NA
HETATM    8  H   UNL     1      23.470  44.873  50.839  1.00  0.00     0.189 HD
HETATM    9  C   UNL     1      25.818  46.074  52.437  1.00  0.00     0.089 A 
HETATM   10  C   UNL     1      25.630  47.100  51.466  1.00  0.00     0.071 A 
BRANCH   9  11
HETATM   11  C   UNL     1      26.803  46.013  53.525  1.00  0.00    -0.005 A 
HETATM   12  C   UNL     1      27.501  44.819  53.780  1.00  0.00     0.017 A 
HETATM   13  C   UNL     1      28.448  44.747  54.805  1.00  0.00     0.043 A 
HETATM   14  C   UNL     1      28.699  45.868  55.582  1.00  0.00     0.116 A 
HETATM   15  C   UNL     1      28.020  47.059  55.356  1.00  0.00     0.043 A 
HETATM   16  F   UNL     1      29.606  45.802  56.566  1.00  0.00    -0.206 F 
HETATM   17  C   UNL     1      27.073  47.133  54.329  1.00  0.00     0.017 A 
ENDBRANCH   9  11
ENDBRANCH   1   5
BRANCH   2  18
HETATM   18  C   UNL     1      21.989  47.042  48.004  1.00  0.00     0.161 C 
BRANCH  18  19
HETATM   19  C   UNL     1      20.908  47.991  48.457  1.00  0.00    -0.040 A 
HETATM   20  C   UNL     1      21.022  49.370  48.216  1.00  0.00     0.018 A 
HETATM   21  C   UNL     1      20.042  50.267  48.665  1.00  0.00    -0.024 A 
HETATM   22  C   UNL     1      18.959  49.777  49.402  1.00  0.00     0.075 A 
HETATM   23  C   UNL     1      20.184  51.735  48.385  1.00  0.00     0.043 C 
HETATM   24  O   UNL     1      17.961  50.573  49.901  1.00  0.00    -0.351 OA
HETATM   25  C   UNL     1      18.832  48.411  49.644  1.00  0.00     0.038 A 
HETATM   26  C   UNL     1      18.287  51.965  49.955  1.00  0.00     0.176 C 
HETATM   27  C   UNL     1      18.871  52.460  48.643  1.00  0.00     0.031 C 
HETATM   28  C   UNL     1      19.803  47.521  49.178  1.00  0.00     0.011 A 
ENDBRANCH  18  19
ENDBRANCH   2  18
TORSDOF 4
ENDMDL
MODEL 4
REMARK VINA RESULT:      -9.2      4.301      9.663
REMARK  4 active torsions:
REMARK  status: ('A' for Active; 'I' for Inactive)
REMARK    1  A    between atoms: C_2  and  C_3 
REMARK    2  A    between atoms: C_7  and  C_8 
REMARK       I    between atoms: C_8  and  N_9 
REMARK    3  A    between atoms: N_9  and  C_10 
REMARK    4  A    between atoms: C_10  and  C_11 
ROOT
HETATM    1  C   UNL     1      26.891  42.066  51.458  1.00  0.00     0.270 C 
HETATM    2  N   UNL     1      25.709  42.753  51.582  1.00  0.00    -0.351 N 
HETATM    3  O   UNL     1      27.056  41.175  50.633  1.00  0.00    -0.266 OA
HETATM    4  H   UNL     1      25.645  43.540  52.211  1.00  0.00     0.163 HD
ENDROOT
BRANCH   1   5
HETATM    5  C   UNL     1      27.931  42.456  52.370  1.00  0.00     0.120 A 
HETATM    6  N   UNL     1      29.248  42.245  52.070  1.00  0.00    -0.272 N 
HETATM    7  N   UNL     1      30.102  42.669  53.011  1.00  0.00    -0.174 NA
HETATM    8  H   UNL     1      29.616  41.813  51.227  1.00  0.00     0.189 HD
HETATM    9  C   UNL     1      29.322  43.172  53.980  1.00  0.00     0.089 A 
HETATM   10  C   UNL     1      27.949  43.055  53.614  1.00  0.00     0.071 A 
BRANCH   9  11
HETATM   11  C   UNL     1      29.898  43.749  55.201  1.00  0.00    -0.005 A 
HETATM   12  C   UNL     1      30.862  43.035  55.934  1.00  0.00     0.017 A 
HETATM   13  C   UNL     1      31.426  43.574  57.094  1.00  0.00     0.043 A 
HETATM   14  C   UNL     1      31.025  44.829  57.528  1.00  0.00     0.116 A 
HETATM   15  C   UNL     1      30.070  45.554  56.826  1.00  0.00     0.043 A 
HETATM   16  F   UNL     1      31.563  45.348  58.640  1.00  0.00    -0.206 F 
HETATM   17  C   UNL     1      29.506  45.017  55.665  1.00  0.00     0.017 A 
ENDBRANCH   9  11
ENDBRANCH   1   5
BRANCH   2  18
HETATM   18  C   UNL     1      24.587  42.496  50.709  1.00  0.00     0.161 C 
BRANCH  18  19
HETATM   19  C   UNL     1      24.098  43.760  50.049  1.00  0.00    -0.040 A 
HETATM   20  C   UNL     1      24.650  45.004  50.392  1.00  0.00     0.018 A 
HETATM   21  C   UNL     1      24.177  46.191  49.812  1.00  0.00    -0.024 A 
HETATM   22  C   UNL     1      23.110  46.129  48.912  1.00  0.00     0.075 A 
HETATM   23  C   UNL     1      24.792  47.507  50.190  1.00  0.00     0.043 C 
HETATM   24  O   UNL     1      22.564  47.231  48.308  1.00  0.00    -0.351 OA
HETATM   25  C   UNL     1      22.556  44.900  48.560  1.00  0.00     0.038 A 
HETATM   26  C   UNL     1      22.892  48.473  48.938  1.00  0.00     0.176 C 
HETATM   27  C   UNL     1      24.382  48.594  49.206  1.00  0.00     0.031 C 
HETATM   28  C   UNL     1      23.043  43.720  49.127  1.00  0.00     0.011 A 
ENDBRANCH  18  19
ENDBRANCH   2  18
TORSDOF 4
ENDMDL
MODEL 5
REMARK VINA RESULT:      -9.0      4.075      9.954
REMARK  4 active torsions:
REMARK  status: ('A' for Active; 'I' for Inactive)
REMARK    1  A    between atoms: C_2  and  C_3 
REMARK    2  A    between atoms: C_7  and  C_8 
REMARK       I    between atoms: C_8  and  N_9 
REMARK    3  A    between atoms: N_9  and  C_10 
REMARK    4  A    between atoms: C_10  and  C_11 
ROOT
HETATM    1  C   UNL     1      24.597  44.079  51.117  1.00  0.00     0.270 C 
HETATM    2  N   UNL     1      24.698  45.008  50.112  1.00  0.00    -0.351 N 
HETATM    3  O   UNL     1      23.791  43.156  51.086  1.00  0.00    -0.266 OA
HETATM    4  H   UNL     1      25.436  45.697  50.133  1.00  0.00     0.163 HD
ENDROOT
BRANCH   1   5
HETATM    5  C   UNL     1      25.499  44.261  52.222  1.00  0.00     0.120 A 
HETATM    6  N   UNL     1      25.085  44.859  53.379  1.00  0.00    -0.272 N 
HETATM    7  N   UNL     1      26.033  44.950  54.321  1.00  0.00    -0.174 NA
HETATM    8  H   UNL     1      24.157  45.223  53.576  1.00  0.00     0.189 HD
HETATM    9  C   UNL     1      27.123  44.400  53.765  1.00  0.00     0.089 A 
HETATM   10  C   UNL     1      26.827  43.956  52.443  1.00  0.00     0.071 A 
BRANCH   9  11
HETATM   11  C   UNL     1      28.391  44.306  54.499  1.00  0.00    -0.005 A 
HETATM   12  C   UNL     1      28.782  45.338  55.370  1.00  0.00     0.017 A 
HETATM   13  C   UNL     1      29.981  45.261  56.083  1.00  0.00     0.043 A 
HETATM   14  C   UNL     1      30.798  44.150  55.925  1.00  0.00     0.116 A 
HETATM   15  C   UNL     1      30.439  43.118  55.067  1.00  0.00     0.043 A 
HETATM   16  F   UNL     1      31.948  44.072  56.606  1.00  0.00    -0.206 F 
HETATM   17  C   UNL     1      29.238  43.194  54.354  1.00  0.00     0.017 A 
ENDBRANCH   9  11
ENDBRANCH   1   5
BRANCH   2  18
HETATM   18  C   UNL     1      23.882  44.932  48.922  1.00  0.00     0.161 C 
BRANCH  18  19
HETATM   19  C   UNL     1      22.974  46.129  48.797  1.00  0.00    -0.040 A 
HETATM   20  C   UNL     1      23.464  47.425  49.020  1.00  0.00     0.018 A 
HETATM   21  C   UNL     1      22.620  48.542  48.943  1.00  0.00    -0.024 A 
HETATM   22  C   UNL     1      21.260  48.350  48.683  1.00  0.00     0.075 A 
HETATM   23  C   UNL     1      23.173  49.918  49.177  1.00  0.00     0.043 C 
HETATM   24  O   UNL     1      20.351  49.373  48.609  1.00  0.00    -0.351 OA
HETATM   25  C   UNL     1      20.761  47.069  48.456  1.00  0.00     0.038 A 
HETATM   26  C   UNL     1      20.797  50.603  49.187  1.00  0.00     0.176 C 
HETATM   27  C   UNL     1      22.189  50.980  48.707  1.00  0.00     0.031 C 
HETATM   28  C   UNL     1      21.611  45.962  48.516  1.00  0.00     0.011 A 
ENDBRANCH  18  19
ENDBRANCH   2  18
TORSDOF 4
ENDMDL
MODEL 6
REMARK VINA RESULT:      -8.9      5.687      8.070
REMARK  4 active torsions:
REMARK  status: ('A' for Active; 'I' for Inactive)
REMARK    1  A    between atoms: C_2  and  C_3 
REMARK    2  A    between atoms: C_7  and  C_8 
REMARK       I    between atoms: C_8  and  N_9 
REMARK    3  A    between atoms: N_9  and  C_10 
REMARK    4  A    between atoms: C_10  and  C_11 
ROOT
HETATM    1  C   UNL     1      27.487  43.273  50.983  1.00  0.00     0.270 C 
HETATM    2  N   UNL     1      27.231  43.432  52.321  1.00  0.00    -0.351 N 
HETATM    3  O   UNL     1      27.533  44.216  50.201  1.00  0.00    -0.266 OA
HETATM    4  H   UNL     1      27.293  42.641  52.945  1.00  0.00     0.163 HD
ENDROOT
BRANCH   1   5
HETATM    5  C   UNL     1      27.693  41.918  50.548  1.00  0.00     0.120 A 
HETATM    6  N   UNL     1      28.555  41.088  51.210  1.00  0.00    -0.272 N 
HETATM    7  N   UNL     1      28.635  39.854  50.696  1.00  0.00    -0.174 NA
HETATM    8  H   UNL     1      29.113  41.320  52.026  1.00  0.00     0.189 HD
HETATM    9  C   UNL     1      27.802  39.867  49.643  1.00  0.00     0.089 A 
HETATM   10  C   UNL     1      27.192  41.149  49.517  1.00  0.00     0.071 A 
BRANCH   9  11
HETATM   11  C   UNL     1      27.608  38.675  48.809  1.00  0.00    -0.005 A 
HETATM   12  C   UNL     1      26.810  37.612  49.268  1.00  0.00     0.017 A 
HETATM   13  C   UNL     1      26.608  36.474  48.483  1.00  0.00     0.043 A 
HETATM   14  C   UNL     1      27.206  36.393  47.234  1.00  0.00     0.116 A 
HETATM   15  C   UNL     1      28.004  37.425  46.757  1.00  0.00     0.043 A 
HETATM   16  F   UNL     1      27.014  35.303  46.478  1.00  0.00    -0.206 F 
HETATM   17  C   UNL     1      28.205  38.565  47.541  1.00  0.00     0.017 A 
ENDBRANCH   9  11
ENDBRANCH   1   5
BRANCH   2  18
HETATM   18  C   UNL     1      27.040  44.738  52.908  1.00  0.00     0.161 C 
BRANCH  18  19
HETATM   19  C   UNL     1      27.998  44.979  54.047  1.00  0.00    -0.040 A 
HETATM   20  C   UNL     1      28.930  43.996  54.416  1.00  0.00     0.018 A 
HETATM   21  C   UNL     1      29.801  44.194  55.497  1.00  0.00    -0.024 A 
HETATM   22  C   UNL     1      29.702  45.373  56.243  1.00  0.00     0.075 A 
HETATM   23  C   UNL     1      30.795  43.130  55.864  1.00  0.00     0.043 C 
HETATM   24  O   UNL     1      30.492  45.651  57.327  1.00  0.00    -0.351 OA
HETATM   25  C   UNL     1      28.784  46.357  55.884  1.00  0.00     0.038 A 
HETATM   26  C   UNL     1      31.155  44.511  57.883  1.00  0.00     0.176 C 
HETATM   27  C   UNL     1      31.847  43.684  56.814  1.00  0.00     0.031 C 
HETATM   28  C   UNL     1      27.932  46.162  54.794  1.00  0.00     0.011 A 
ENDBRANCH  18  19
ENDBRANCH   2  18
TORSDOF 4
ENDMDL
MODEL 7
REMARK VINA RESULT:      -8.8      2.168      2.926
REMARK  4 active torsions:
REMARK  status: ('A' for Active; 'I' for Inactive)
REMARK    1  A    between atoms: C_2  and  C_3 
REMARK    2  A    between atoms: C_7  and  C_8 
REMARK       I    between atoms: C_8  and  N_9 
REMARK    3  A    between atoms: N_9  and  C_10 
REMARK    4  A    between atoms: C_10  and  C_11 
ROOT
HETATM    1  C   UNL     1      24.265  45.586  49.521  1.00  0.00     0.270 C 
HETATM    2  N   UNL     1      24.810  45.762  50.768  1.00  0.00    -0.351 N 
HETATM    3  O   UNL     1      24.680  44.749  48.729  1.00  0.00    -0.266 OA
HETATM    4  H   UNL     1      24.381  46.398  51.423  1.00  0.00     0.163 HD
ENDROOT
BRANCH   1   5
HETATM    5  C   UNL     1      23.169  46.459  49.197  1.00  0.00     0.120 A 
HETATM    6  N   UNL     1      21.975  45.959  48.759  1.00  0.00    -0.272 N 
HETATM    7  N   UNL     1      21.047  46.891  48.506  1.00  0.00    -0.174 NA
HETATM    8  H   UNL     1      21.742  44.980  48.619  1.00  0.00     0.189 HD
HETATM    9  C   UNL     1      21.652  48.058  48.775  1.00  0.00     0.089 A 
HETATM   10  C   UNL     1      22.989  47.828  49.210  1.00  0.00     0.071 A 
BRANCH   9  11
HETATM   11  C   UNL     1      20.948  49.337  48.621  1.00  0.00    -0.005 A 
HETATM   12  C   UNL     1      20.936  50.270  49.674  1.00  0.00     0.017 A 
HETATM   13  C   UNL     1      20.279  51.495  49.541  1.00  0.00     0.043 A 
HETATM   14  C   UNL     1      19.625  51.793  48.353  1.00  0.00     0.116 A 
HETATM   15  C   UNL     1      19.615  50.888  47.299  1.00  0.00     0.043 A 
HETATM   16  F   UNL     1      18.993  52.967  48.222  1.00  0.00    -0.206 F 
HETATM   17  C   UNL     1      20.275  49.662  47.431  1.00  0.00     0.017 A 
ENDBRANCH   9  11
ENDBRANCH   1   5
BRANCH   2  18
HETATM   18  C   UNL     1      25.893  44.933  51.247  1.00  0.00     0.161 C 
BRANCH  18  19
HETATM   19  C   UNL     1      26.484  45.477  52.523  1.00  0.00    -0.040 A 
HETATM   20  C   UNL     1      27.527  44.800  53.172  1.00  0.00     0.018 A 
HETATM   21  C   UNL     1      28.059  45.276  54.380  1.00  0.00    -0.024 A 
HETATM   22  C   UNL     1      27.506  46.421  54.961  1.00  0.00     0.075 A 
HETATM   23  C   UNL     1      29.182  44.537  55.048  1.00  0.00     0.043 C 
HETATM   24  O   UNL     1      27.941  46.953  56.147  1.00  0.00    -0.351 OA
HETATM   25  C   UNL     1      26.473  47.105  54.324  1.00  0.00     0.038 A 
HETATM   26  C   UNL     1      28.728  46.061  56.942  1.00  0.00     0.176 C 
HETATM   27  C   UNL     1      29.825  45.398  56.126  1.00  0.00     0.031 C 
HETATM   28  C   UNL     1      25.960  46.635  53.113  1.00  0.00     0.011 A 
ENDBRANCH  18  19
ENDBRANCH   2  18
TORSDOF 4
ENDMDL
MODEL 8
REMARK VINA RESULT:      -8.8      6.745     10.400
REMARK  4 active torsions:
REMARK  status: ('A' for Active; 'I' for Inactive)
REMARK    1  A    between atoms: C_2  and  C_3 
REMARK    2  A    between atoms: C_7  and  C_8 
REMARK       I    between atoms: C_8  and  N_9 
REMARK    3  A    between atoms: N_9  and  C_10 
REMARK    4  A    between atoms: C_10  and  C_11 
ROOT
HETATM    1  C   UNL     1      27.160  41.730  51.412  1.00  0.00     0.270 C 
HETATM    2  N   UNL     1      27.233  40.388  51.136  1.00  0.00    -0.351 N 
HETATM    3  O   UNL     1      26.337  42.471  50.886  1.00  0.00    -0.266 OA
HETATM    4  H   UNL     1      27.863  39.798  51.658  1.00  0.00     0.163 HD
ENDROOT
BRANCH   1   5
HETATM    5  C   UNL     1      28.123  42.221  52.360  1.00  0.00     0.120 A 
HETATM    6  N   UNL     1      29.458  41.975  52.201  1.00  0.00    -0.272 N 
HETATM    7  N   UNL     1      30.233  42.502  53.158  1.00  0.00    -0.174 NA
HETATM    8  H   UNL     1      29.892  41.449  51.448  1.00  0.00     0.189 HD
HETATM    9  C   UNL     1      29.378  43.115  53.992  1.00  0.00     0.089 A 
HETATM   10  C   UNL     1      28.041  42.958  53.525  1.00  0.00     0.071 A 
BRANCH   9  11
HETATM   11  C   UNL     1      29.853  43.827  55.185  1.00  0.00    -0.005 A 
HETATM   12  C   UNL     1      30.873  43.274  55.979  1.00  0.00     0.017 A 
HETATM   13  C   UNL     1      31.343  43.943  57.113  1.00  0.00     0.043 A 
HETATM   14  C   UNL     1      30.791  45.168  57.459  1.00  0.00     0.116 A 
HETATM   15  C   UNL     1      29.778  45.734  56.696  1.00  0.00     0.043 A 
HETATM   16  F   UNL     1      31.238  45.811  58.545  1.00  0.00    -0.206 F 
HETATM   17  C   UNL     1      29.308  45.067  55.560  1.00  0.00     0.017 A 
ENDBRANCH   9  11
ENDBRANCH   1   5
BRANCH   2  18
HETATM   18  C   UNL     1      26.306  39.748  50.231  1.00  0.00     0.161 C 
BRANCH  18  19
HETATM   19  C   UNL     1      26.972  39.375  48.930  1.00  0.00    -0.040 A 
HETATM   20  C   UNL     1      26.999  40.278  47.856  1.00  0.00     0.018 A 
HETATM   21  C   UNL     1      27.583  39.928  46.630  1.00  0.00    -0.024 A 
HETATM   22  C   UNL     1      28.104  38.641  46.468  1.00  0.00     0.075 A 
HETATM   23  C   UNL     1      27.606  40.918  45.501  1.00  0.00     0.043 C 
HETATM   24  O   UNL     1      28.676  38.197  45.304  1.00  0.00    -0.351 OA
HETATM   25  C   UNL     1      28.087  37.737  47.528  1.00  0.00     0.038 A 
HETATM   26  C   UNL     1      28.365  38.988  44.154  1.00  0.00     0.176 C 
HETATM   27  C   UNL     1      28.574  40.470  44.415  1.00  0.00     0.031 C 
HETATM   28  C   UNL     1      27.521  38.098  48.752  1.00  0.00     0.011 A 
ENDBRANCH  18  19
ENDBRANCH   2  18
TORSDOF 4
ENDMDL
MODEL 9
REMARK VINA RESULT:      -8.7      4.206     10.574
REMARK  4 active torsions:
REMARK  status: ('A' for Active; 'I' for Inactive)
REMARK    1  A    between atoms: C_2  and  C_3 
REMARK    2  A    between atoms: C_7  and  C_8 
REMARK       I    between atoms: C_8  and  N_9 
REMARK    3  A    between atoms: N_9  and  C_10 
REMARK    4  A    between atoms: C_10  and  C_11 
ROOT
HETATM    1  C   UNL     1      25.396  48.037  49.651  1.00  0.00     0.270 C 
HETATM    2  N   UNL     1      24.059  48.168  49.374  1.00  0.00    -0.351 N 
HETATM    3  O   UNL     1      26.254  48.735  49.123  1.00  0.00    -0.266 OA
HETATM    4  H   UNL     1      23.379  47.637  49.898  1.00  0.00     0.163 HD
ENDROOT
BRANCH   1   5
HETATM    5  C   UNL     1      25.733  47.014  50.604  1.00  0.00     0.120 A 
HETATM    6  N   UNL     1      25.336  47.107  51.908  1.00  0.00    -0.272 N 
HETATM    7  N   UNL     1      25.716  46.077  52.675  1.00  0.00    -0.174 NA
HETATM    8  H   UNL     1      24.798  47.861  52.326  1.00  0.00     0.189 HD
HETATM    9  C   UNL     1      26.401  45.271  51.849  1.00  0.00     0.089 A 
HETATM   10  C   UNL     1      26.436  45.828  50.538  1.00  0.00     0.071 A 
BRANCH   9  11
HETATM   11  C   UNL     1      26.986  44.010  52.324  1.00  0.00    -0.005 A 
HETATM   12  C   UNL     1      27.406  43.884  53.660  1.00  0.00     0.017 A 
HETATM   13  C   UNL     1      27.956  42.689  54.130  1.00  0.00     0.043 A 
HETATM   14  C   UNL     1      28.093  41.614  53.263  1.00  0.00     0.116 A 
HETATM   15  C   UNL     1      27.692  41.713  51.936  1.00  0.00     0.043 A 
HETATM   16  F   UNL     1      28.621  40.467  53.710  1.00  0.00    -0.206 F 
HETATM   17  C   UNL     1      27.139  42.908  51.466  1.00  0.00     0.017 A 
ENDBRANCH   9  11
ENDBRANCH   1   5
BRANCH   2  18
HETATM   18  C   UNL     1      23.568  49.178  48.464  1.00  0.00     0.161 C 
BRANCH  18  19
HETATM   19  C   UNL     1      22.088  49.406  48.638  1.00  0.00    -0.040 A 
HETATM   20  C   UNL     1      21.542  50.692  48.497  1.00  0.00     0.018 A 
HETATM   21  C   UNL     1      20.172  50.923  48.694  1.00  0.00    -0.024 A 
HETATM   22  C   UNL     1      19.352  49.859  49.079  1.00  0.00     0.075 A 
HETATM   23  C   UNL     1      19.614  52.307  48.527  1.00  0.00     0.043 C 
HETATM   24  O   UNL     1      18.008  49.986  49.315  1.00  0.00    -0.351 OA
HETATM   25  C   UNL     1      19.881  48.577  49.218  1.00  0.00     0.038 A 
HETATM   26  C   UNL     1      17.568  51.332  49.517  1.00  0.00     0.176 C 
HETATM   27  C   UNL     1      18.095  52.266  48.441  1.00  0.00     0.031 C 
HETATM   28  C   UNL     1      21.242  48.351  49.003  1.00  0.00     0.011 A 
ENDBRANCH  18  19
ENDBRANCH   2  18
TORSDOF 4
ENDMDL
MODEL 10
REMARK VINA RESULT:      -8.5      5.078     10.047
REMARK  4 active torsions:
REMARK  status: ('A' for Active; 'I' for Inactive)
REMARK    1  A    between atoms: C_2  and  C_3 
REMARK    2  A    between atoms: C_7  and  C_8 
REMARK       I    between atoms: C_8  and  N_9 
REMARK    3  A    between atoms: N_9  and  C_10 
REMARK    4  A    between atoms: C_10  and  C_11 
ROOT
HETATM    1  C   UNL     1      27.693  41.259  51.585  1.00  0.00     0.270 C 
HETATM    2  N   UNL     1      26.472  41.825  51.318  1.00  0.00    -0.351 N 
HETATM    3  O   UNL     1      28.063  40.209  51.073  1.00  0.00    -0.266 OA
HETATM    4  H   UNL     1      26.244  42.735  51.689  1.00  0.00     0.163 HD
ENDROOT
BRANCH   1   5
HETATM    5  C   UNL     1      28.518  41.979  52.517  1.00  0.00     0.120 A 
HETATM    6  N   UNL     1      29.875  42.035  52.361  1.00  0.00    -0.272 N 
HETATM    7  N   UNL     1      30.509  42.749  53.301  1.00  0.00    -0.174 NA
HETATM    8  H   UNL     1      30.419  41.600  51.621  1.00  0.00     0.189 HD
HETATM    9  C   UNL     1      29.535  43.176  54.120  1.00  0.00     0.089 A 
HETATM   10  C   UNL     1      28.269  42.710  53.661  1.00  0.00     0.071 A 
BRANCH   9  11
HETATM   11  C   UNL     1      29.834  44.009  55.292  1.00  0.00    -0.005 A 
HETATM   12  C   UNL     1      30.879  43.655  56.164  1.00  0.00     0.017 A 
HETATM   13  C   UNL     1      31.182  44.442  57.278  1.00  0.00     0.043 A 
HETATM   14  C   UNL     1      30.437  45.585  57.528  1.00  0.00     0.116 A 
HETATM   15  C   UNL     1      29.396  45.956  56.687  1.00  0.00     0.043 A 
HETATM   16  F   UNL     1      30.725  46.341  58.596  1.00  0.00    -0.206 F 
HETATM   17  C   UNL     1      29.093  45.170  55.570  1.00  0.00     0.017 A 
ENDBRANCH   9  11
ENDBRANCH   1   5
BRANCH   2  18
HETATM   18  C   UNL     1      25.552  41.234  50.374  1.00  0.00     0.161 C 
BRANCH  18  19
HETATM   19  C   UNL     1      24.785  42.287  49.615  1.00  0.00    -0.040 A 
HETATM   20  C   UNL     1      23.850  41.922  48.634  1.00  0.00     0.018 A 
HETATM   21  C   UNL     1      23.158  42.894  47.895  1.00  0.00    -0.024 A 
HETATM   22  C   UNL     1      23.442  44.245  48.116  1.00  0.00     0.075 A 
HETATM   23  C   UNL     1      22.157  42.475  46.858  1.00  0.00     0.043 C 
HETATM   24  O   UNL     1      22.836  45.267  47.433  1.00  0.00    -0.351 OA
HETATM   25  C   UNL     1      24.365  44.620  49.091  1.00  0.00     0.038 A 
HETATM   26  C   UNL     1      22.184  44.866  46.225  1.00  0.00     0.176 C 
HETATM   27  C   UNL     1      21.291  43.656  46.441  1.00  0.00     0.031 C 
HETATM   28  C   UNL     1      25.037  43.648  49.835  1.00  0.00     0.011 A 
ENDBRANCH  18  19
ENDBRANCH   2  18
TORSDOF 4
ENDMDL
