MODEL 1
REMARK VINA RESULT:      -9.1      0.000      0.000
REMARK  5 active torsions:
REMARK  status: ('A' for Active; 'I' for Inactive)
REMARK    1  A    between atoms: C_3  and  N_4 
REMARK       I    between atoms: N_4  and  C_5 
REMARK    2  A    between atoms: C_5  and  C_6 
REMARK    3  A    between atoms: C_14  and  C_15 
REMARK    4  A    between atoms: C_21  and  O_22 
REMARK    5  A    between atoms: C_24  and  O_25 
ROOT
HETATM    1  N   UNL     1      28.525  41.670  51.628  1.00  0.00    -0.322 N 
HETATM    2  C   UNL     1      28.146  41.669  52.954  1.00  0.00     0.257 C 
HETATM    3  O   UNL     1      27.907  40.722  53.687  1.00  0.00    -0.267 OA
HETATM    4  H   UNL     1      28.839  42.575  51.294  1.00  0.00     0.169 HD
ENDROOT
BRANCH   2   5
HETATM    5  C   UNL     1      28.072  43.025  53.566  1.00  0.00     0.046 A 
HETATM    6  C   UNL     1      29.043  43.513  54.471  1.00  0.00     0.008 A 
HETATM    7  C   UNL     1      28.797  44.793  54.999  1.00  0.00     0.068 A 
HETATM    8  C   UNL     1      30.235  42.839  54.857  1.00  0.00     0.015 A 
HETATM    9  C   UNL     1      29.689  45.323  55.922  1.00  0.00     0.032 A 
HETATM   10  N   UNL     1      27.743  45.544  54.641  1.00  0.00    -0.252 NA
HETATM   11  C   UNL     1      30.837  44.638  56.324  1.00  0.00     0.002 A 
HETATM   12  C   UNL     1      31.117  43.394  55.781  1.00  0.00     0.001 A 
HETATM   13  C   UNL     1      26.862  45.092  53.715  1.00  0.00     0.040 A 
HETATM   14  C   UNL     1      27.001  43.828  53.169  1.00  0.00     0.045 A 
BRANCH  13  15
HETATM   15  C   UNL     1      25.762  46.022  53.266  1.00  0.00     0.038 A 
HETATM   16  C   UNL     1      25.773  47.484  53.646  1.00  0.00     0.011 A 
HETATM   17  C   UNL     1      26.056  47.085  52.229  1.00  0.00     0.011 A 
ENDBRANCH  13  15
ENDBRANCH   2   5
BRANCH   1  18
HETATM   18  C   UNL     1      28.458  40.675  50.618  1.00  0.00     0.043 A 
HETATM   19  C   UNL     1      27.816  40.736  49.372  1.00  0.00    -0.032 A 
HETATM   20  C   UNL     1      26.952  41.866  48.890  1.00  0.00     0.050 C 
HETATM   21  C   UNL     1      27.969  39.655  48.469  1.00  0.00     0.048 A 
HETATM   22  C   UNL     1      28.743  38.532  48.773  1.00  0.00     0.102 A 
HETATM   23  C   UNL     1      29.361  38.458  50.023  1.00  0.00     0.103 A 
HETATM   24  C   UNL     1      29.201  39.512  50.931  1.00  0.00     0.069 A 
BRANCH  22  25
HETATM   25  O   UNL     1      28.939  37.472  47.925  1.00  0.00    -0.353 OA
HETATM   26  C   UNL     1      28.614  37.672  46.556  1.00  0.00     0.210 C 
ENDBRANCH  22  25
BRANCH  23  27
HETATM   27  O   UNL     1      30.089  37.323  50.281  1.00  0.00    -0.353 OA
HETATM   28  C   UNL     1      29.871  36.688  51.533  1.00  0.00     0.210 C 
ENDBRANCH  23  27
ENDBRANCH   1  18
TORSDOF 5
ENDMDL
MODEL 2
REMARK VINA RESULT:      -9.0      1.252      3.544
REMARK  5 active torsions:
REMARK  status: ('A' for Active; 'I' for Inactive)
REMARK    1  A    between atoms: C_3  and  N_4 
REMARK       I    between atoms: N_4  and  C_5 
REMARK    2  A    between atoms: C_5  and  C_6 
REMARK    3  A    between atoms: C_14  and  C_15 
REMARK    4  A    between atoms: C_21  and  O_22 
REMARK    5  A    between atoms: C_24  and  O_25 
ROOT
HETATM    1  N   UNL     1      28.416  42.250  51.821  1.00  0.00    -0.322 N 
HETATM    2  C   UNL     1      28.130  42.107  53.162  1.00  0.00     0.257 C 
HETATM    3  O   UNL     1      27.614  41.167  53.745  1.00  0.00    -0.267 OA
HETATM    4  H   UNL     1      29.009  43.047  51.613  1.00  0.00     0.169 HD
ENDROOT
BRANCH   2   5
HETATM    5  C   UNL     1      28.564  43.259  54.002  1.00  0.00     0.046 A 
HETATM    6  C   UNL     1      27.806  44.447  54.128  1.00  0.00     0.008 A 
HETATM    7  C   UNL     1      28.383  45.458  54.916  1.00  0.00     0.068 A 
HETATM    8  C   UNL     1      26.524  44.680  53.557  1.00  0.00     0.015 A 
HETATM    9  C   UNL     1      27.713  46.667  55.056  1.00  0.00     0.032 A 
HETATM   10  N   UNL     1      29.552  45.309  55.561  1.00  0.00    -0.252 NA
HETATM   11  C   UNL     1      26.473  46.902  54.460  1.00  0.00     0.002 A 
HETATM   12  C   UNL     1      25.870  45.900  53.716  1.00  0.00     0.001 A 
HETATM   13  C   UNL     1      30.228  44.137  55.491  1.00  0.00     0.040 A 
HETATM   14  C   UNL     1      29.758  43.097  54.708  1.00  0.00     0.045 A 
BRANCH  13  15
HETATM   15  C   UNL     1      31.477  43.985  56.326  1.00  0.00     0.038 A 
HETATM   16  C   UNL     1      31.471  44.306  57.802  1.00  0.00     0.011 A 
HETATM   17  C   UNL     1      31.558  42.878  57.355  1.00  0.00     0.011 A 
ENDBRANCH  13  15
ENDBRANCH   2   5
BRANCH   1  18
HETATM   18  C   UNL     1      27.956  41.558  50.670  1.00  0.00     0.043 A 
HETATM   19  C   UNL     1      27.152  42.039  49.625  1.00  0.00    -0.032 A 
HETATM   20  C   UNL     1      26.509  43.395  49.571  1.00  0.00     0.050 C 
HETATM   21  C   UNL     1      26.899  41.197  48.514  1.00  0.00     0.048 A 
HETATM   22  C   UNL     1      27.428  39.908  48.418  1.00  0.00     0.102 A 
HETATM   23  C   UNL     1      28.207  39.419  49.469  1.00  0.00     0.103 A 
HETATM   24  C   UNL     1      28.448  40.235  50.581  1.00  0.00     0.069 A 
BRANCH  22  25
HETATM   25  O   UNL     1      27.231  39.065  47.354  1.00  0.00    -0.353 OA
HETATM   26  C   UNL     1      27.817  39.441  46.115  1.00  0.00     0.210 C 
ENDBRANCH  22  25
BRANCH  23  27
HETATM   27  O   UNL     1      28.682  38.138  49.336  1.00  0.00    -0.353 OA
HETATM   28  C   UNL     1      29.632  37.700  50.298  1.00  0.00     0.210 C 
ENDBRANCH  23  27
ENDBRANCH   1  18
TORSDOF 5
ENDMDL
MODEL 3
REMARK VINA RESULT:      -9.0      1.487      2.028
REMARK  5 active torsions:
REMARK  status: ('A' for Active; 'I' for Inactive)
REMARK    1  A    between atoms: C_3  and  N_4 
REMARK       I    between atoms: N_4  and  C_5 
REMARK    2  A    between atoms: C_5  and  C_6 
REMARK    3  A    between atoms: C_14  and  C_15 
REMARK    4  A    between atoms: C_21  and  O_22 
REMARK    5  A    between atoms: C_24  and  O_25 
ROOT
HETATM    1  N   UNL     1      28.360  43.021  52.361  1.00  0.00    -0.322 N 
HETATM    2  C   UNL     1      27.978  42.983  53.685  1.00  0.00     0.257 C 
HETATM    3  O   UNL     1      27.355  42.120  54.284  1.00  0.00    -0.267 OA
HETATM    4  H   UNL     1      29.023  43.758  52.149  1.00  0.00     0.169 HD
ENDROOT
BRANCH   2   5
HETATM    5  C   UNL     1      28.443  44.151  54.485  1.00  0.00     0.046 A 
HETATM    6  C   UNL     1      29.535  44.082  55.382  1.00  0.00     0.008 A 
HETATM    7  C   UNL     1      29.811  45.259  56.100  1.00  0.00     0.068 A 
HETATM    8  C   UNL     1      30.373  42.951  55.587  1.00  0.00     0.015 A 
HETATM    9  C   UNL     1      30.846  45.255  57.025  1.00  0.00     0.032 A 
HETATM   10  N   UNL     1      29.129  46.402  55.924  1.00  0.00    -0.252 NA
HETATM   11  C   UNL     1      31.640  44.129  57.248  1.00  0.00     0.002 A 
HETATM   12  C   UNL     1      31.409  42.974  56.518  1.00  0.00     0.001 A 
HETATM   13  C   UNL     1      28.134  46.473  55.006  1.00  0.00     0.040 A 
HETATM   14  C   UNL     1      27.765  45.355  54.279  1.00  0.00     0.045 A 
BRANCH  13  15
HETATM   15  C   UNL     1      27.479  47.812  54.768  1.00  0.00     0.038 A 
HETATM   16  C   UNL     1      26.019  47.908  54.392  1.00  0.00     0.011 A 
HETATM   17  C   UNL     1      26.462  48.334  55.759  1.00  0.00     0.011 A 
ENDBRANCH  13  15
ENDBRANCH   2   5
BRANCH   1  18
HETATM   18  C   UNL     1      27.925  42.293  51.223  1.00  0.00     0.043 A 
HETATM   19  C   UNL     1      27.266  42.771  50.080  1.00  0.00    -0.032 A 
HETATM   20  C   UNL     1      26.781  44.178  49.876  1.00  0.00     0.050 C 
HETATM   21  C   UNL     1      27.016  41.877  49.009  1.00  0.00     0.048 A 
HETATM   22  C   UNL     1      27.409  40.537  49.050  1.00  0.00     0.102 A 
HETATM   23  C   UNL     1      28.041  40.053  50.197  1.00  0.00     0.103 A 
HETATM   24  C   UNL     1      28.276  40.923  51.269  1.00  0.00     0.069 A 
BRANCH  22  25
HETATM   25  O   UNL     1      27.210  39.639  48.032  1.00  0.00    -0.353 OA
HETATM   26  C   UNL     1      28.037  39.771  46.884  1.00  0.00     0.210 C 
ENDBRANCH  22  25
BRANCH  23  27
HETATM   27  O   UNL     1      28.384  38.724  50.195  1.00  0.00    -0.353 OA
HETATM   28  C   UNL     1      29.682  38.393  50.669  1.00  0.00     0.210 C 
ENDBRANCH  23  27
ENDBRANCH   1  18
TORSDOF 5
ENDMDL
MODEL 4
REMARK VINA RESULT:      -8.8      2.663      5.138
REMARK  5 active torsions:
REMARK  status: ('A' for Active; 'I' for Inactive)
REMARK    1  A    between atoms: C_3  and  N_4 
REMARK       I    between atoms: N_4  and  C_5 
REMARK    2  A    between atoms: C_5  and  C_6 
REMARK    3  A    between atoms: C_14  and  C_15 
REMARK    4  A    between atoms: C_21  and  O_22 
REMARK    5  A    between atoms: C_24  and  O_25 
ROOT
HETATM    1  N   UNL     1      27.309  43.138  51.955  1.00  0.00    -0.322 N 
HETATM    2  C   UNL     1      27.704  42.693  53.199  1.00  0.00     0.257 C 
HETATM    3  O   UNL     1      27.668  41.563  53.662  1.00  0.00    -0.267 OA
HETATM    4  H   UNL     1      27.608  44.084  51.747  1.00  0.00     0.169 HD
ENDROOT
BRANCH   2   5
HETATM    5  C   UNL     1      28.298  43.751  54.063  1.00  0.00     0.046 A 
HETATM    6  C   UNL     1      27.682  45.007  54.273  1.00  0.00     0.008 A 
HETATM    7  C   UNL     1      28.400  45.913  55.073  1.00  0.00     0.068 A 
HETATM    8  C   UNL     1      26.409  45.403  53.775  1.00  0.00     0.015 A 
HETATM    9  C   UNL     1      27.873  47.179  55.294  1.00  0.00     0.032 A 
HETATM   10  N   UNL     1      29.572  45.610  55.654  1.00  0.00    -0.252 NA
HETATM   11  C   UNL     1      26.641  47.573  54.769  1.00  0.00     0.002 A 
HETATM   12  C   UNL     1      25.900  46.677  54.015  1.00  0.00     0.001 A 
HETATM   13  C   UNL     1      30.113  44.376  55.504  1.00  0.00     0.040 A 
HETATM   14  C   UNL     1      29.498  43.430  54.703  1.00  0.00     0.045 A 
BRANCH  13  15
HETATM   15  C   UNL     1      31.372  44.052  56.271  1.00  0.00     0.038 A 
HETATM   16  C   UNL     1      31.450  44.263  57.764  1.00  0.00     0.011 A 
HETATM   17  C   UNL     1      31.390  42.870  57.215  1.00  0.00     0.011 A 
ENDBRANCH  13  15
ENDBRANCH   2   5
BRANCH   1  18
HETATM   18  C   UNL     1      26.478  42.564  50.959  1.00  0.00     0.043 A 
HETATM   19  C   UNL     1      26.757  41.489  50.101  1.00  0.00    -0.032 A 
HETATM   20  C   UNL     1      28.076  40.779  49.991  1.00  0.00     0.050 C 
HETATM   21  C   UNL     1      25.733  41.011  49.246  1.00  0.00     0.048 A 
HETATM   22  C   UNL     1      24.452  41.568  49.233  1.00  0.00     0.102 A 
HETATM   23  C   UNL     1      24.180  42.654  50.068  1.00  0.00     0.103 A 
HETATM   24  C   UNL     1      25.190  43.147  50.902  1.00  0.00     0.069 A 
BRANCH  22  25
HETATM   25  O   UNL     1      23.422  41.127  48.442  1.00  0.00    -0.353 OA
HETATM   26  C   UNL     1      23.773  40.406  47.268  1.00  0.00     0.210 C 
ENDBRANCH  22  25
BRANCH  23  27
HETATM   27  O   UNL     1      22.913  43.179  49.999  1.00  0.00    -0.353 OA
HETATM   28  C   UNL     1      22.767  44.424  49.328  1.00  0.00     0.210 C 
ENDBRANCH  23  27
ENDBRANCH   1  18
TORSDOF 5
ENDMDL
MODEL 5
REMARK VINA RESULT:      -8.6      4.207      7.465
REMARK  5 active torsions:
REMARK  status: ('A' for Active; 'I' for Inactive)
REMARK    1  A    between atoms: C_3  and  N_4 
REMARK       I    between atoms: N_4  and  C_5 
REMARK    2  A    between atoms: C_5  and  C_6 
REMARK    3  A    between atoms: C_14  and  C_15 
REMARK    4  A    between atoms: C_21  and  O_22 
REMARK    5  A    between atoms: C_24  and  O_25 
ROOT
HETATM    1  N   UNL     1      25.739  45.411  51.021  1.00  0.00    -0.322 N 
HETATM    2  C   UNL     1      25.504  44.830  52.250  1.00  0.00     0.257 C 
HETATM    3  O   UNL     1      24.441  44.540  52.775  1.00  0.00    -0.267 OA
HETATM    4  H   UNL     1      26.712  45.384  50.737  1.00  0.00     0.169 HD
ENDROOT
BRANCH   2   5
HETATM    5  C   UNL     1      26.741  44.476  53.001  1.00  0.00     0.046 A 
HETATM    6  C   UNL     1      27.425  43.251  52.820  1.00  0.00     0.008 A 
HETATM    7  C   UNL     1      28.545  43.050  53.646  1.00  0.00     0.068 A 
HETATM    8  C   UNL     1      27.092  42.244  51.872  1.00  0.00     0.015 A 
HETATM    9  C   UNL     1      29.245  41.854  53.550  1.00  0.00     0.032 A 
HETATM   10  N   UNL     1      28.988  43.970  54.518  1.00  0.00    -0.252 NA
HETATM   11  C   UNL     1      28.889  40.855  52.643  1.00  0.00     0.002 A 
HETATM   12  C   UNL     1      27.813  41.055  51.792  1.00  0.00     0.001 A 
HETATM   13  C   UNL     1      28.366  45.169  54.625  1.00  0.00     0.040 A 
HETATM   14  C   UNL     1      27.231  45.443  53.881  1.00  0.00     0.045 A 
BRANCH  13  15
HETATM   15  C   UNL     1      28.973  46.208  55.537  1.00  0.00     0.038 A 
HETATM   16  C   UNL     1      28.921  46.052  57.038  1.00  0.00     0.011 A 
HETATM   17  C   UNL     1      30.225  45.876  56.320  1.00  0.00     0.011 A 
ENDBRANCH  13  15
ENDBRANCH   2   5
BRANCH   1  18
HETATM   18  C   UNL     1      24.898  46.128  50.131  1.00  0.00     0.043 A 
HETATM   19  C   UNL     1      23.734  45.688  49.482  1.00  0.00    -0.032 A 
HETATM   20  C   UNL     1      23.190  44.289  49.519  1.00  0.00     0.050 C 
HETATM   21  C   UNL     1      22.988  46.615  48.712  1.00  0.00     0.048 A 
HETATM   22  C   UNL     1      23.366  47.953  48.583  1.00  0.00     0.102 A 
HETATM   23  C   UNL     1      24.538  48.387  49.206  1.00  0.00     0.103 A 
HETATM   24  C   UNL     1      25.294  47.475  49.953  1.00  0.00     0.069 A 
BRANCH  22  25
HETATM   25  O   UNL     1      22.665  48.891  47.868  1.00  0.00    -0.353 OA
HETATM   26  C   UNL     1      21.267  48.974  48.109  1.00  0.00     0.210 C 
ENDBRANCH  22  25
BRANCH  23  27
HETATM   27  O   UNL     1      24.877  49.705  49.027  1.00  0.00    -0.353 OA
HETATM   28  C   UNL     1      25.937  49.979  48.122  1.00  0.00     0.210 C 
ENDBRANCH  23  27
ENDBRANCH   1  18
TORSDOF 5
ENDMDL
MODEL 6
REMARK VINA RESULT:      -8.6      2.456      3.778
REMARK  5 active torsions:
REMARK  status: ('A' for Active; 'I' for Inactive)
REMARK    1  A    between atoms: C_3  and  N_4 
REMARK       I    between atoms: N_4  and  C_5 
REMARK    2  A    between atoms: C_5  and  C_6 
REMARK    3  A    between atoms: C_14  and  C_15 
REMARK    4  A    between atoms: C_21  and  O_22 
REMARK    5  A    between atoms: C_24  and  O_25 
ROOT
HETATM    1  N   UNL     1      28.026  43.403  52.244  1.00  0.00    -0.322 N 
HETATM    2  C   UNL     1      27.955  43.136  53.595  1.00  0.00     0.257 C 
HETATM    3  O   UNL     1      27.605  42.113  54.161  1.00  0.00    -0.267 OA
HETATM    4  H   UNL     1      28.518  44.262  52.023  1.00  0.00     0.169 HD
ENDROOT
BRANCH   2   5
HETATM    5  C   UNL     1      28.423  44.255  54.461  1.00  0.00     0.046 A 
HETATM    6  C   UNL     1      29.504  44.126  55.364  1.00  0.00     0.008 A 
HETATM    7  C   UNL     1      29.784  45.260  56.147  1.00  0.00     0.068 A 
HETATM    8  C   UNL     1      30.328  42.977  55.518  1.00  0.00     0.015 A 
HETATM    9  C   UNL     1      30.808  45.197  57.082  1.00  0.00     0.032 A 
HETATM   10  N   UNL     1      29.116  46.419  56.024  1.00  0.00    -0.252 NA
HETATM   11  C   UNL     1      31.588  44.052  57.253  1.00  0.00     0.002 A 
HETATM   12  C   UNL     1      31.353  42.939  56.460  1.00  0.00     0.001 A 
HETATM   13  C   UNL     1      28.133  46.549  55.100  1.00  0.00     0.040 A 
HETATM   14  C   UNL     1      27.760  45.475  54.311  1.00  0.00     0.045 A 
BRANCH  13  15
HETATM   15  C   UNL     1      27.494  47.906  54.926  1.00  0.00     0.038 A 
HETATM   16  C   UNL     1      26.033  48.038  54.564  1.00  0.00     0.011 A 
HETATM   17  C   UNL     1      26.489  48.396  55.946  1.00  0.00     0.011 A 
ENDBRANCH  13  15
ENDBRANCH   2   5
BRANCH   1  18
HETATM   18  C   UNL     1      27.452  42.763  51.115  1.00  0.00     0.043 A 
HETATM   19  C   UNL     1      27.651  41.450  50.660  1.00  0.00    -0.032 A 
HETATM   20  C   UNL     1      28.627  40.465  51.236  1.00  0.00     0.050 C 
HETATM   21  C   UNL     1      26.887  40.983  49.561  1.00  0.00     0.048 A 
HETATM   22  C   UNL     1      25.937  41.781  48.920  1.00  0.00     0.102 A 
HETATM   23  C   UNL     1      25.756  43.096  49.355  1.00  0.00     0.103 A 
HETATM   24  C   UNL     1      26.519  43.574  50.427  1.00  0.00     0.069 A 
BRANCH  22  25
HETATM   25  O   UNL     1      25.159  41.368  47.869  1.00  0.00    -0.353 OA
HETATM   26  C   UNL     1      25.361  40.042  47.398  1.00  0.00     0.210 C 
ENDBRANCH  22  25
BRANCH  23  27
HETATM   27  O   UNL     1      24.828  43.845  48.675  1.00  0.00    -0.353 OA
HETATM   28  C   UNL     1      24.494  45.112  49.225  1.00  0.00     0.210 C 
ENDBRANCH  23  27
ENDBRANCH   1  18
TORSDOF 5
ENDMDL
MODEL 7
REMARK VINA RESULT:      -8.6      4.483      7.752
REMARK  5 active torsions:
REMARK  status: ('A' for Active; 'I' for Inactive)
REMARK    1  A    between atoms: C_3  and  N_4 
REMARK       I    between atoms: N_4  and  C_5 
REMARK    2  A    between atoms: C_5  and  C_6 
REMARK    3  A    between atoms: C_14  and  C_15 
REMARK    4  A    between atoms: C_21  and  O_22 
REMARK    5  A    between atoms: C_24  and  O_25 
ROOT
HETATM    1  N   UNL     1      25.348  45.752  50.925  1.00  0.00    -0.322 N 
HETATM    2  C   UNL     1      25.203  44.934  52.025  1.00  0.00     0.257 C 
HETATM    3  O   UNL     1      24.298  44.160  52.296  1.00  0.00    -0.267 OA
HETATM    4  H   UNL     1      26.271  46.164  50.842  1.00  0.00     0.169 HD
ENDROOT
BRANCH   2   5
HETATM    5  C   UNL     1      26.347  44.986  52.976  1.00  0.00     0.046 A 
HETATM    6  C   UNL     1      26.587  46.089  53.830  1.00  0.00     0.008 A 
HETATM    7  C   UNL     1      27.741  46.003  54.629  1.00  0.00     0.068 A 
HETATM    8  C   UNL     1      25.756  47.236  53.960  1.00  0.00     0.015 A 
HETATM    9  C   UNL     1      28.060  47.064  55.466  1.00  0.00     0.032 A 
HETATM   10  N   UNL     1      28.549  44.930  54.638  1.00  0.00    -0.252 NA
HETATM   11  C   UNL     1      27.259  48.204  55.559  1.00  0.00     0.002 A 
HETATM   12  C   UNL     1      26.095  48.286  54.811  1.00  0.00     0.001 A 
HETATM   13  C   UNL     1      28.263  43.850  53.870  1.00  0.00     0.040 A 
HETATM   14  C   UNL     1      27.170  43.858  53.021  1.00  0.00     0.045 A 
BRANCH  13  15
HETATM   15  C   UNL     1      29.141  42.629  54.004  1.00  0.00     0.038 A 
HETATM   16  C   UNL     1      29.159  41.563  52.935  1.00  0.00     0.011 A 
HETATM   17  C   UNL     1      30.342  42.468  53.099  1.00  0.00     0.011 A 
ENDBRANCH  13  15
ENDBRANCH   2   5
BRANCH   1  18
HETATM   18  C   UNL     1      24.425  46.209  49.949  1.00  0.00     0.043 A 
HETATM   19  C   UNL     1      23.690  45.456  49.020  1.00  0.00    -0.032 A 
HETATM   20  C   UNL     1      23.824  43.977  48.796  1.00  0.00     0.050 C 
HETATM   21  C   UNL     1      22.739  46.115  48.202  1.00  0.00     0.048 A 
HETATM   22  C   UNL     1      22.500  47.488  48.295  1.00  0.00     0.102 A 
HETATM   23  C   UNL     1      23.248  48.244  49.201  1.00  0.00     0.103 A 
HETATM   24  C   UNL     1      24.205  47.606  49.999  1.00  0.00     0.069 A 
BRANCH  22  25
HETATM   25  O   UNL     1      21.575  48.167  47.543  1.00  0.00    -0.353 OA
HETATM   26  C   UNL     1      20.291  47.574  47.410  1.00  0.00     0.210 C 
ENDBRANCH  22  25
BRANCH  23  27
HETATM   27  O   UNL     1      22.992  49.592  49.234  1.00  0.00    -0.353 OA
HETATM   28  C   UNL     1      23.883  50.435  48.517  1.00  0.00     0.210 C 
ENDBRANCH  23  27
ENDBRANCH   1  18
TORSDOF 5
ENDMDL
MODEL 8
REMARK VINA RESULT:      -8.6      1.564      4.166
REMARK  5 active torsions:
REMARK  status: ('A' for Active; 'I' for Inactive)
REMARK    1  A    between atoms: C_3  and  N_4 
REMARK       I    between atoms: N_4  and  C_5 
REMARK    2  A    between atoms: C_5  and  C_6 
REMARK    3  A    between atoms: C_14  and  C_15 
REMARK    4  A    between atoms: C_21  and  O_22 
REMARK    5  A    between atoms: C_24  and  O_25 
ROOT
HETATM    1  N   UNL     1      28.570  41.493  51.614  1.00  0.00    -0.322 N 
HETATM    2  C   UNL     1      28.426  41.389  52.982  1.00  0.00     0.257 C 
HETATM    3  O   UNL     1      28.189  40.401  53.659  1.00  0.00    -0.267 OA
HETATM    4  H   UNL     1      28.943  42.386  51.311  1.00  0.00     0.169 HD
ENDROOT
BRANCH   2   5
HETATM    5  C   UNL     1      28.643  42.667  53.715  1.00  0.00     0.046 A 
HETATM    6  C   UNL     1      27.719  43.738  53.682  1.00  0.00     0.008 A 
HETATM    7  C   UNL     1      28.099  44.895  54.385  1.00  0.00     0.068 A 
HETATM    8  C   UNL     1      26.453  43.724  53.033  1.00  0.00     0.015 A 
HETATM    9  C   UNL     1      27.258  46.000  54.368  1.00  0.00     0.032 A 
HETATM   10  N   UNL     1      29.237  44.981  55.093  1.00  0.00    -0.252 NA
HETATM   11  C   UNL     1      26.034  45.991  53.696  1.00  0.00     0.002 A 
HETATM   12  C   UNL     1      25.624  44.844  53.034  1.00  0.00     0.001 A 
HETATM   13  C   UNL     1      30.075  43.920  55.177  1.00  0.00     0.040 A 
HETATM   14  C   UNL     1      29.804  42.752  54.486  1.00  0.00     0.045 A 
BRANCH  13  15
HETATM   15  C   UNL     1      31.281  44.034  56.078  1.00  0.00     0.038 A 
HETATM   16  C   UNL     1      31.134  44.429  57.528  1.00  0.00     0.011 A 
HETATM   17  C   UNL     1      31.492  43.016  57.177  1.00  0.00     0.011 A 
ENDBRANCH  13  15
ENDBRANCH   2   5
BRANCH   1  18
HETATM   18  C   UNL     1      28.198  40.632  50.549  1.00  0.00     0.043 A 
HETATM   19  C   UNL     1      28.657  39.335  50.272  1.00  0.00    -0.032 A 
HETATM   20  C   UNL     1      29.751  38.621  51.012  1.00  0.00     0.050 C 
HETATM   21  C   UNL     1      28.067  38.613  49.206  1.00  0.00     0.048 A 
HETATM   22  C   UNL     1      27.037  39.143  48.426  1.00  0.00     0.102 A 
HETATM   23  C   UNL     1      26.596  40.443  48.683  1.00  0.00     0.103 A 
HETATM   24  C   UNL     1      27.186  41.173  49.721  1.00  0.00     0.069 A 
BRANCH  22  25
HETATM   25  O   UNL     1      26.419  38.475  47.399  1.00  0.00    -0.353 OA
HETATM   26  C   UNL     1      25.998  37.143  47.657  1.00  0.00     0.210 C 
ENDBRANCH  22  25
BRANCH  23  27
HETATM   27  O   UNL     1      25.599  40.925  47.872  1.00  0.00    -0.353 OA
HETATM   28  C   UNL     1      24.941  42.111  48.294  1.00  0.00     0.210 C 
ENDBRANCH  23  27
ENDBRANCH   1  18
TORSDOF 5
ENDMDL
MODEL 9
REMARK VINA RESULT:      -8.4      3.835      7.407
REMARK  5 active torsions:
REMARK  status: ('A' for Active; 'I' for Inactive)
REMARK    1  A    between atoms: C_3  and  N_4 
REMARK       I    between atoms: N_4  and  C_5 
REMARK    2  A    between atoms: C_5  and  C_6 
REMARK    3  A    between atoms: C_14  and  C_15 
REMARK    4  A    between atoms: C_21  and  O_22 
REMARK    5  A    between atoms: C_24  and  O_25 
ROOT
HETATM    1  N   UNL     1      27.242  44.835  52.822  1.00  0.00    -0.322 N 
HETATM    2  C   UNL     1      25.895  44.543  52.791  1.00  0.00     0.257 C 
HETATM    3  O   UNL     1      25.177  44.118  53.683  1.00  0.00    -0.267 OA
HETATM    4  H   UNL     1      27.568  45.345  52.008  1.00  0.00     0.169 HD
ENDROOT
BRANCH   2   5
HETATM    5  C   UNL     1      25.238  44.843  51.488  1.00  0.00     0.046 A 
HETATM    6  C   UNL     1      24.959  43.848  50.522  1.00  0.00     0.008 A 
HETATM    7  C   UNL     1      24.385  44.306  49.323  1.00  0.00     0.068 A 
HETATM    8  C   UNL     1      25.182  42.452  50.676  1.00  0.00     0.015 A 
HETATM    9  C   UNL     1      24.116  43.391  48.313  1.00  0.00     0.032 A 
HETATM   10  N   UNL     1      24.063  45.592  49.108  1.00  0.00    -0.252 NA
HETATM   11  C   UNL     1      24.374  42.027  48.459  1.00  0.00     0.002 A 
HETATM   12  C   UNL     1      24.900  41.553  49.650  1.00  0.00     0.001 A 
HETATM   13  C   UNL     1      24.267  46.521  50.074  1.00  0.00     0.040 A 
HETATM   14  C   UNL     1      24.864  46.171  51.273  1.00  0.00     0.045 A 
BRANCH  13  15
HETATM   15  C   UNL     1      23.782  47.928  49.822  1.00  0.00     0.038 A 
HETATM   16  C   UNL     1      24.510  48.843  48.865  1.00  0.00     0.011 A 
HETATM   17  C   UNL     1      23.174  48.282  48.483  1.00  0.00     0.011 A 
ENDBRANCH  13  15
ENDBRANCH   2   5
BRANCH   1  18
HETATM   18  C   UNL     1      28.275  44.467  53.722  1.00  0.00     0.043 A 
HETATM   19  C   UNL     1      29.146  43.368  53.652  1.00  0.00    -0.032 A 
HETATM   20  C   UNL     1      29.081  42.268  52.632  1.00  0.00     0.050 C 
HETATM   21  C   UNL     1      30.180  43.251  54.613  1.00  0.00     0.048 A 
HETATM   22  C   UNL     1      30.370  44.196  55.624  1.00  0.00     0.102 A 
HETATM   23  C   UNL     1      29.489  45.277  55.711  1.00  0.00     0.103 A 
HETATM   24  C   UNL     1      28.451  45.391  54.779  1.00  0.00     0.069 A 
BRANCH  22  25
HETATM   25  O   UNL     1      31.369  44.139  56.562  1.00  0.00    -0.353 OA
HETATM   26  C   UNL     1      31.542  42.905  57.246  1.00  0.00     0.210 C 
ENDBRANCH  22  25
BRANCH  23  27
HETATM   27  O   UNL     1      29.704  46.162  56.738  1.00  0.00    -0.353 OA
HETATM   28  C   UNL     1      28.785  46.129  57.821  1.00  0.00     0.210 C 
ENDBRANCH  23  27
ENDBRANCH   1  18
TORSDOF 5
ENDMDL
MODEL 10
REMARK VINA RESULT:      -8.4      3.925      7.555
REMARK  5 active torsions:
REMARK  status: ('A' for Active; 'I' for Inactive)
REMARK    1  A    between atoms: C_3  and  N_4 
REMARK       I    between atoms: N_4  and  C_5 
REMARK    2  A    between atoms: C_5  and  C_6 
REMARK    3  A    between atoms: C_14  and  C_15 
REMARK    4  A    between atoms: C_21  and  O_22 
REMARK    5  A    between atoms: C_24  and  O_25 
ROOT
HETATM    1  N   UNL     1      25.901  44.629  50.410  1.00  0.00    -0.322 N 
HETATM    2  C   UNL     1      25.784  43.900  51.575  1.00  0.00     0.257 C 
HETATM    3  O   UNL     1      24.845  43.836  52.353  1.00  0.00    -0.267 OA
HETATM    4  H   UNL     1      26.707  44.373  49.849  1.00  0.00     0.169 HD
ENDROOT
BRANCH   2   5
HETATM    5  C   UNL     1      26.964  43.044  51.878  1.00  0.00     0.046 A 
HETATM    6  C   UNL     1      27.891  43.349  52.903  1.00  0.00     0.008 A 
HETATM    7  C   UNL     1      28.979  42.467  53.023  1.00  0.00     0.068 A 
HETATM    8  C   UNL     1      27.794  44.434  53.817  1.00  0.00     0.015 A 
HETATM    9  C   UNL     1      29.949  42.722  53.984  1.00  0.00     0.032 A 
HETATM   10  N   UNL     1      29.122  41.369  52.262  1.00  0.00    -0.252 NA
HETATM   11  C   UNL     1      29.866  43.812  54.852  1.00  0.00     0.002 A 
HETATM   12  C   UNL     1      28.778  44.667  54.775  1.00  0.00     0.001 A 
HETATM   13  C   UNL     1      28.186  41.051  51.335  1.00  0.00     0.040 A 
HETATM   14  C   UNL     1      27.099  41.880  51.117  1.00  0.00     0.045 A 
BRANCH  13  15
HETATM   15  C   UNL     1      28.338  39.749  50.587  1.00  0.00     0.038 A 
HETATM   16  C   UNL     1      27.339  39.335  49.532  1.00  0.00     0.011 A 
HETATM   17  C   UNL     1      28.715  39.767  49.122  1.00  0.00     0.011 A 
ENDBRANCH  13  15
ENDBRANCH   2   5
BRANCH   1  18
HETATM   18  C   UNL     1      25.172  45.734  49.900  1.00  0.00     0.043 A 
HETATM   19  C   UNL     1      23.832  45.782  49.487  1.00  0.00    -0.032 A 
HETATM   20  C   UNL     1      22.904  44.604  49.398  1.00  0.00     0.050 C 
HETATM   21  C   UNL     1      23.276  47.029  49.107  1.00  0.00     0.048 A 
HETATM   22  C   UNL     1      24.014  48.214  49.138  1.00  0.00     0.102 A 
HETATM   23  C   UNL     1      25.355  48.165  49.524  1.00  0.00     0.103 A 
HETATM   24  C   UNL     1      25.920  46.935  49.882  1.00  0.00     0.069 A 
BRANCH  22  25
HETATM   25  O   UNL     1      23.515  49.447  48.802  1.00  0.00    -0.353 OA
HETATM   26  C   UNL     1      22.149  49.695  49.106  1.00  0.00     0.210 C 
ENDBRANCH  22  25
BRANCH  23  27
HETATM   27  O   UNL     1      26.041  49.354  49.513  1.00  0.00    -0.353 OA
HETATM   28  C   UNL     1      27.304  49.363  48.863  1.00  0.00     0.210 C 
ENDBRANCH  23  27
ENDBRANCH   1  18
TORSDOF 5
ENDMDL
