MODEL 1
REMARK VINA RESULT:      -9.8      0.000      0.000
REMARK  7 active torsions:
REMARK  status: ('A' for Active; 'I' for Inactive)
REMARK    1  A    between atoms: C_2  and  O_3 
REMARK    2  A    between atoms: O_3  and  C_4 
REMARK    3  A    between atoms: C_5  and  N_6 
REMARK       I    between atoms: N_6  and  C_7 
REMARK       I    between atoms: C_7  and  N_8 
REMARK    4  A    between atoms: N_8  and  C_9 
REMARK    5  A    between atoms: C_9  and  C_10 
REMARK       I    between atoms: C_10  and  N_11 
REMARK    6  A    between atoms: N_11  and  C_12 
REMARK    7  A    between atoms: C_25  and  C_26 
ROOT
HETATM    1  N   UNL     1      23.488  47.212  49.277  1.00  0.00    -0.306 N 
HETATM    2  C   UNL     1      24.210  46.827  50.388  1.00  0.00     0.321 C 
HETATM    3  N   UNL     1      24.212  45.466  50.536  1.00  0.00    -0.334 N 
HETATM    4  O   UNL     1      24.860  47.567  51.117  1.00  0.00    -0.247 OA
HETATM    5  H   UNL     1      23.753  46.661  48.474  1.00  0.00     0.171 HD
HETATM    6  H   UNL     1      23.511  44.953  50.019  1.00  0.00     0.164 HD
ENDROOT
BRANCH   3   7
HETATM    7  C   UNL     1      25.330  44.723  51.096  1.00  0.00     0.227 C 
BRANCH   7   8
HETATM    8  C   UNL     1      25.691  44.858  52.588  1.00  0.00     0.239 C 
HETATM    9  N   UNL     1      26.913  45.455  52.818  1.00  0.00    -0.326 N 
HETATM   10  H   UNL     1      27.352  45.895  52.005  1.00  0.00     0.169 HD
HETATM   11  O   UNL     1      24.993  44.304  53.436  1.00  0.00    -0.271 OA
BRANCH   9  12
HETATM   12  C   UNL     1      27.681  45.436  53.998  1.00  0.00     0.037 A 
HETATM   13  C   UNL     1      28.681  44.491  54.258  1.00  0.00     0.061 A 
HETATM   14  C   UNL     1      29.405  44.649  55.419  1.00  0.00     0.065 A 
HETATM   15  C   UNL     1      29.164  45.685  56.317  1.00  0.00     0.063 A 
HETATM   16  N   UNL     1      30.466  43.895  55.912  1.00  0.00    -0.306 N 
HETATM   17  N   UNL     1      30.075  45.569  57.361  1.00  0.00    -0.307 N 
HETATM   18  C   UNL     1      28.182  46.618  56.105  1.00  0.00     0.034 A 
HETATM   19  C   UNL     1      30.898  44.459  57.120  1.00  0.00     0.325 A 
HETATM   20  H   UNL     1      30.169  46.172  58.161  1.00  0.00     0.170 HD
HETATM   21  O   UNL     1      31.813  44.068  57.822  1.00  0.00    -0.247 OA
HETATM   22  C   UNL     1      27.437  46.485  54.926  1.00  0.00     0.032 A 
HETATM   23  H   UNL     1      30.885  43.086  55.483  1.00  0.00     0.170 HD
ENDBRANCH   9  12
ENDBRANCH   7   8
ENDBRANCH   3   7
BRANCH   1  24
HETATM   24  C   UNL     1      23.294  48.592  49.022  1.00  0.00     0.070 A 
HETATM   25  C   UNL     1      24.330  49.389  48.499  1.00  0.00     0.095 A 
HETATM   26  C   UNL     1      24.086  50.746  48.270  1.00  0.00     0.040 A 
HETATM   27  C   UNL     1      22.821  51.290  48.520  1.00  0.00     0.019 A 
HETATM   28  C   UNL     1      21.785  50.496  49.031  1.00  0.00     0.050 A 
HETATM   29  C   UNL     1      22.043  49.148  49.315  1.00  0.00     0.048 A 
BRANCH  25  30
HETATM   30  O   UNL     1      25.541  48.774  48.315  1.00  0.00    -0.349 OA
BRANCH  30  31
HETATM   31  C   UNL     1      26.712  49.574  48.458  1.00  0.00     0.171 C 
HETATM   32  C   UNL     1      27.741  48.759  49.222  1.00  0.00     0.034 C 
ENDBRANCH  30  31
ENDBRANCH  25  30
BRANCH  28  33
HETATM   33  C   UNL     1      20.410  51.085  49.235  1.00  0.00     0.417 C 
HETATM   34  F   UNL     1      20.246  51.668  50.456  1.00  0.00    -0.166 F 
HETATM   35  F   UNL     1      20.114  52.047  48.319  1.00  0.00    -0.166 F 
HETATM   36  F   UNL     1      19.425  50.151  49.132  1.00  0.00    -0.166 F 
ENDBRANCH  28  33
ENDBRANCH   1  24
TORSDOF 7
ENDMDL
MODEL 2
REMARK VINA RESULT:      -9.5      5.446      9.743
REMARK  7 active torsions:
REMARK  status: ('A' for Active; 'I' for Inactive)
REMARK    1  A    between atoms: C_2  and  O_3 
REMARK    2  A    between atoms: O_3  and  C_4 
REMARK    3  A    between atoms: C_5  and  N_6 
REMARK       I    between atoms: N_6  and  C_7 
REMARK       I    between atoms: C_7  and  N_8 
REMARK    4  A    between atoms: N_8  and  C_9 
REMARK    5  A    between atoms: C_9  and  C_10 
REMARK       I    between atoms: C_10  and  N_11 
REMARK    6  A    between atoms: N_11  and  C_12 
REMARK    7  A    between atoms: C_25  and  C_26 
ROOT
HETATM    1  N   UNL     1      26.320  43.268  53.314  1.00  0.00    -0.306 N 
HETATM    2  C   UNL     1      26.470  43.131  51.949  1.00  0.00     0.321 C 
HETATM    3  N   UNL     1      25.540  42.272  51.427  1.00  0.00    -0.334 N 
HETATM    4  O   UNL     1      27.256  43.754  51.244  1.00  0.00    -0.247 OA
HETATM    5  H   UNL     1      25.353  43.436  53.548  1.00  0.00     0.171 HD
HETATM    6  H   UNL     1      25.064  41.667  52.082  1.00  0.00     0.164 HD
ENDROOT
BRANCH   3   7
HETATM    7  C   UNL     1      24.977  42.416  50.094  1.00  0.00     0.227 C 
BRANCH   7   8
HETATM    8  C   UNL     1      23.787  43.363  49.845  1.00  0.00     0.239 C 
HETATM    9  N   UNL     1      24.038  44.344  48.909  1.00  0.00    -0.326 N 
HETATM   10  H   UNL     1      24.897  44.230  48.365  1.00  0.00     0.169 HD
HETATM   11  O   UNL     1      22.798  43.304  50.574  1.00  0.00    -0.271 OA
BRANCH   9  12
HETATM   12  C   UNL     1      23.322  45.537  48.687  1.00  0.00     0.037 A 
HETATM   13  C   UNL     1      23.520  46.709  49.428  1.00  0.00     0.061 A 
HETATM   14  C   UNL     1      22.805  47.822  49.042  1.00  0.00     0.065 A 
HETATM   15  C   UNL     1      21.911  47.804  47.976  1.00  0.00     0.063 A 
HETATM   16  N   UNL     1      22.825  49.112  49.563  1.00  0.00    -0.306 N 
HETATM   17  N   UNL     1      21.380  49.082  47.841  1.00  0.00    -0.307 N 
HETATM   18  C   UNL     1      21.678  46.672  47.239  1.00  0.00     0.034 A 
HETATM   19  C   UNL     1      21.945  49.912  48.821  1.00  0.00     0.325 A 
HETATM   20  H   UNL     1      20.715  49.399  47.154  1.00  0.00     0.170 HD
HETATM   21  O   UNL     1      21.718  51.096  48.988  1.00  0.00    -0.247 OA
HETATM   22  C   UNL     1      22.400  45.528  47.606  1.00  0.00     0.032 A 
HETATM   23  H   UNL     1      23.383  49.447  50.332  1.00  0.00     0.170 HD
ENDBRANCH   9  12
ENDBRANCH   7   8
ENDBRANCH   3   7
BRANCH   1  24
HETATM   24  C   UNL     1      27.258  44.042  54.039  1.00  0.00     0.070 A 
HETATM   25  C   UNL     1      26.958  45.354  54.451  1.00  0.00     0.095 A 
HETATM   26  C   UNL     1      27.922  46.075  55.161  1.00  0.00     0.040 A 
HETATM   27  C   UNL     1      29.149  45.486  55.488  1.00  0.00     0.019 A 
HETATM   28  C   UNL     1      29.446  44.176  55.087  1.00  0.00     0.050 A 
HETATM   29  C   UNL     1      28.503  43.470  54.327  1.00  0.00     0.048 A 
BRANCH  25  30
HETATM   30  O   UNL     1      25.744  45.855  54.058  1.00  0.00    -0.349 OA
BRANCH  30  31
HETATM   31  C   UNL     1      25.727  47.158  53.481  1.00  0.00     0.171 C 
HETATM   32  C   UNL     1      26.025  47.014  51.999  1.00  0.00     0.034 C 
ENDBRANCH  30  31
ENDBRANCH  25  30
BRANCH  28  33
HETATM   33  C   UNL     1      30.748  43.535  55.502  1.00  0.00     0.417 C 
HETATM   34  F   UNL     1      31.730  44.437  55.786  1.00  0.00    -0.166 F 
HETATM   35  F   UNL     1      30.618  42.763  56.615  1.00  0.00    -0.166 F 
HETATM   36  F   UNL     1      31.257  42.721  54.537  1.00  0.00    -0.166 F 
ENDBRANCH  28  33
ENDBRANCH   1  24
TORSDOF 7
ENDMDL
MODEL 3
REMARK VINA RESULT:      -9.5      5.742      9.821
REMARK  7 active torsions:
REMARK  status: ('A' for Active; 'I' for Inactive)
REMARK    1  A    between atoms: C_2  and  O_3 
REMARK    2  A    between atoms: O_3  and  C_4 
REMARK    3  A    between atoms: C_5  and  N_6 
REMARK       I    between atoms: N_6  and  C_7 
REMARK       I    between atoms: C_7  and  N_8 
REMARK    4  A    between atoms: N_8  and  C_9 
REMARK    5  A    between atoms: C_9  and  C_10 
REMARK       I    between atoms: C_10  and  N_11 
REMARK    6  A    between atoms: N_11  and  C_12 
REMARK    7  A    between atoms: C_25  and  C_26 
ROOT
HETATM    1  N   UNL     1      27.915  42.936  54.047  1.00  0.00    -0.306 N 
HETATM    2  C   UNL     1      28.269  42.609  52.754  1.00  0.00     0.321 C 
HETATM    3  N   UNL     1      27.445  41.644  52.240  1.00  0.00    -0.334 N 
HETATM    4  O   UNL     1      29.138  43.154  52.084  1.00  0.00    -0.247 OA
HETATM    5  H   UNL     1      26.921  43.095  54.112  1.00  0.00     0.171 HD
HETATM    6  H   UNL     1      26.890  41.121  52.903  1.00  0.00     0.164 HD
ENDROOT
BRANCH   3   7
HETATM    7  C   UNL     1      27.083  41.567  50.833  1.00  0.00     0.227 C 
BRANCH   7   8
HETATM    8  C   UNL     1      26.805  42.850  50.025  1.00  0.00     0.239 C 
HETATM    9  N   UNL     1      26.320  43.896  50.782  1.00  0.00    -0.326 N 
HETATM   10  H   UNL     1      26.368  43.770  51.796  1.00  0.00     0.169 HD
HETATM   11  O   UNL     1      26.862  42.821  48.796  1.00  0.00    -0.271 OA
BRANCH   9  12
HETATM   12  C   UNL     1      25.666  45.061  50.337  1.00  0.00     0.037 A 
HETATM   13  C   UNL     1      24.339  45.083  49.889  1.00  0.00     0.061 A 
HETATM   14  C   UNL     1      23.809  46.312  49.563  1.00  0.00     0.065 A 
HETATM   15  C   UNL     1      24.543  47.492  49.653  1.00  0.00     0.063 A 
HETATM   16  N   UNL     1      22.527  46.637  49.130  1.00  0.00    -0.306 N 
HETATM   17  N   UNL     1      23.713  48.542  49.275  1.00  0.00    -0.307 N 
HETATM   18  C   UNL     1      25.848  47.507  50.069  1.00  0.00     0.034 A 
HETATM   19  C   UNL     1      22.450  48.025  48.951  1.00  0.00     0.325 A 
HETATM   20  H   UNL     1      23.941  49.522  49.246  1.00  0.00     0.170 HD
HETATM   21  O   UNL     1      21.476  48.662  48.591  1.00  0.00    -0.247 OA
HETATM   22  C   UNL     1      26.409  46.270  50.416  1.00  0.00     0.032 A 
HETATM   23  H   UNL     1      21.759  46.004  48.981  1.00  0.00     0.170 HD
ENDBRANCH   9  12
ENDBRANCH   7   8
ENDBRANCH   3   7
BRANCH   1  24
HETATM   24  C   UNL     1      28.720  43.847  54.775  1.00  0.00     0.070 A 
HETATM   25  C   UNL     1      28.474  45.232  54.731  1.00  0.00     0.095 A 
HETATM   26  C   UNL     1      29.300  46.086  55.465  1.00  0.00     0.040 A 
HETATM   27  C   UNL     1      30.329  45.567  56.259  1.00  0.00     0.019 A 
HETATM   28  C   UNL     1      30.569  44.187  56.313  1.00  0.00     0.050 A 
HETATM   29  C   UNL     1      29.777  43.333  55.534  1.00  0.00     0.048 A 
BRANCH  25  30
HETATM   30  O   UNL     1      27.465  45.648  53.902  1.00  0.00    -0.349 OA
BRANCH  30  31
HETATM   31  C   UNL     1      26.272  46.135  54.512  1.00  0.00     0.171 C 
HETATM   32  C   UNL     1      26.096  47.585  54.098  1.00  0.00     0.034 C 
ENDBRANCH  30  31
ENDBRANCH  25  30
BRANCH  28  33
HETATM   33  C   UNL     1      31.642  43.641  57.223  1.00  0.00     0.417 C 
HETATM   34  F   UNL     1      32.871  43.581  56.639  1.00  0.00    -0.166 F 
HETATM   35  F   UNL     1      31.800  44.387  58.350  1.00  0.00    -0.166 F 
HETATM   36  F   UNL     1      31.368  42.376  57.646  1.00  0.00    -0.166 F 
ENDBRANCH  28  33
ENDBRANCH   1  24
TORSDOF 7
ENDMDL
MODEL 4
REMARK VINA RESULT:      -9.4      5.120     10.426
REMARK  7 active torsions:
REMARK  status: ('A' for Active; 'I' for Inactive)
REMARK    1  A    between atoms: C_2  and  O_3 
REMARK    2  A    between atoms: O_3  and  C_4 
REMARK    3  A    between atoms: C_5  and  N_6 
REMARK       I    between atoms: N_6  and  C_7 
REMARK       I    between atoms: C_7  and  N_8 
REMARK    4  A    between atoms: N_8  and  C_9 
REMARK    5  A    between atoms: C_9  and  C_10 
REMARK       I    between atoms: C_10  and  N_11 
REMARK    6  A    between atoms: N_11  and  C_12 
REMARK    7  A    between atoms: C_25  and  C_26 
ROOT
HETATM    1  N   UNL     1      25.535  45.076  52.498  1.00  0.00    -0.306 N 
HETATM    2  C   UNL     1      25.705  45.487  51.191  1.00  0.00     0.321 C 
HETATM    3  N   UNL     1      24.542  45.374  50.478  1.00  0.00    -0.334 N 
HETATM    4  O   UNL     1      26.719  45.986  50.718  1.00  0.00    -0.247 OA
HETATM    5  H   UNL     1      24.706  45.493  52.895  1.00  0.00     0.171 HD
HETATM    6  H   UNL     1      23.820  44.789  50.875  1.00  0.00     0.164 HD
ENDROOT
BRANCH   3   7
HETATM    7  C   UNL     1      24.172  46.281  49.402  1.00  0.00     0.227 C 
BRANCH   7   8
HETATM    8  C   UNL     1      23.513  47.639  49.713  1.00  0.00     0.239 C 
HETATM    9  N   UNL     1      22.197  47.730  49.310  1.00  0.00    -0.326 N 
HETATM   10  H   UNL     1      21.760  46.851  49.022  1.00  0.00     0.169 HD
HETATM   11  O   UNL     1      24.203  48.571  50.123  1.00  0.00    -0.271 OA
BRANCH   9  12
HETATM   12  C   UNL     1      21.419  48.891  49.139  1.00  0.00     0.037 A 
HETATM   13  C   UNL     1      20.162  49.076  49.726  1.00  0.00     0.061 A 
HETATM   14  C   UNL     1      19.556  50.298  49.534  1.00  0.00     0.065 A 
HETATM   15  C   UNL     1      20.140  51.315  48.785  1.00  0.00     0.063 A 
HETATM   16  N   UNL     1      18.340  50.771  50.021  1.00  0.00    -0.306 N 
HETATM   17  N   UNL     1      19.285  52.412  48.809  1.00  0.00    -0.307 N 
HETATM   18  C   UNL     1      21.361  51.164  48.181  1.00  0.00     0.034 A 
HETATM   19  C   UNL     1      18.159  52.089  49.581  1.00  0.00     0.325 A 
HETATM   20  H   UNL     1      19.427  53.308  48.374  1.00  0.00     0.170 HD
HETATM   21  O   UNL     1      17.214  52.817  49.825  1.00  0.00    -0.247 OA
HETATM   22  C   UNL     1      22.003  49.933  48.367  1.00  0.00     0.032 A 
HETATM   23  H   UNL     1      17.688  50.275  50.608  1.00  0.00     0.170 HD
ENDBRANCH   9  12
ENDBRANCH   7   8
ENDBRANCH   3   7
BRANCH   1  24
HETATM   24  C   UNL     1      26.658  45.030  53.359  1.00  0.00     0.070 A 
HETATM   25  C   UNL     1      26.763  45.891  54.468  1.00  0.00     0.095 A 
HETATM   26  C   UNL     1      27.894  45.805  55.283  1.00  0.00     0.040 A 
HETATM   27  C   UNL     1      28.886  44.853  55.022  1.00  0.00     0.019 A 
HETATM   28  C   UNL     1      28.779  43.987  53.924  1.00  0.00     0.050 A 
HETATM   29  C   UNL     1      27.672  44.108  53.072  1.00  0.00     0.048 A 
BRANCH  25  30
HETATM   30  O   UNL     1      25.758  46.809  54.625  1.00  0.00    -0.349 OA
BRANCH  30  31
HETATM   31  C   UNL     1      26.118  48.188  54.601  1.00  0.00     0.171 C 
HETATM   32  C   UNL     1      26.198  48.673  56.037  1.00  0.00     0.034 C 
ENDBRANCH  30  31
ENDBRANCH  25  30
BRANCH  28  33
HETATM   33  C   UNL     1      29.826  42.925  53.694  1.00  0.00     0.417 C 
HETATM   34  F   UNL     1      30.554  43.117  52.558  1.00  0.00    -0.166 F 
HETATM   35  F   UNL     1      30.730  42.855  54.709  1.00  0.00    -0.166 F 
HETATM   36  F   UNL     1      29.286  41.680  53.585  1.00  0.00    -0.166 F 
ENDBRANCH  28  33
ENDBRANCH   1  24
TORSDOF 7
ENDMDL
MODEL 5
REMARK VINA RESULT:      -9.3      3.897      4.976
REMARK  7 active torsions:
REMARK  status: ('A' for Active; 'I' for Inactive)
REMARK    1  A    between atoms: C_2  and  O_3 
REMARK    2  A    between atoms: O_3  and  C_4 
REMARK    3  A    between atoms: C_5  and  N_6 
REMARK       I    between atoms: N_6  and  C_7 
REMARK       I    between atoms: C_7  and  N_8 
REMARK    4  A    between atoms: N_8  and  C_9 
REMARK    5  A    between atoms: C_9  and  C_10 
REMARK       I    between atoms: C_10  and  N_11 
REMARK    6  A    between atoms: N_11  and  C_12 
REMARK    7  A    between atoms: C_25  and  C_26 
ROOT
HETATM    1  N   UNL     1      23.653  47.406  49.066  1.00  0.00    -0.306 N 
HETATM    2  C   UNL     1      24.319  47.053  50.222  1.00  0.00     0.321 C 
HETATM    3  N   UNL     1      24.413  45.692  50.348  1.00  0.00    -0.334 N 
HETATM    4  O   UNL     1      24.856  47.823  51.009  1.00  0.00    -0.247 OA
HETATM    5  H   UNL     1      24.018  46.893  48.277  1.00  0.00     0.171 HD
HETATM    6  H   UNL     1      23.793  45.139  49.772  1.00  0.00     0.164 HD
ENDROOT
BRANCH   3   7
HETATM    7  C   UNL     1      25.540  45.023  50.978  1.00  0.00     0.227 C 
BRANCH   7   8
HETATM    8  C   UNL     1      26.335  43.943  50.219  1.00  0.00     0.239 C 
HETATM    9  N   UNL     1      25.925  42.654  50.485  1.00  0.00    -0.326 N 
HETATM   10  H   UNL     1      25.047  42.565  51.002  1.00  0.00     0.169 HD
HETATM   11  O   UNL     1      27.343  44.259  49.587  1.00  0.00    -0.271 OA
BRANCH   9  12
HETATM   12  C   UNL     1      26.618  41.453  50.237  1.00  0.00     0.037 A 
HETATM   13  C   UNL     1      27.782  41.074  50.917  1.00  0.00     0.061 A 
HETATM   14  C   UNL     1      28.302  39.832  50.625  1.00  0.00     0.065 A 
HETATM   15  C   UNL     1      27.722  38.979  49.689  1.00  0.00     0.063 A 
HETATM   16  N   UNL     1      29.411  39.187  51.162  1.00  0.00    -0.306 N 
HETATM   17  N   UNL     1      28.475  37.811  49.651  1.00  0.00    -0.307 N 
HETATM   18  C   UNL     1      26.594  39.324  48.991  1.00  0.00     0.034 A 
HETATM   19  C   UNL     1      29.530  37.923  50.568  1.00  0.00     0.325 A 
HETATM   20  H   UNL     1      28.309  36.995  49.085  1.00  0.00     0.170 HD
HETATM   21  O   UNL     1      30.377  37.081  50.806  1.00  0.00    -0.247 OA
HETATM   22  C   UNL     1      26.040  40.579  49.277  1.00  0.00     0.032 A 
HETATM   23  H   UNL     1      30.031  39.538  51.874  1.00  0.00     0.170 HD
ENDBRANCH   9  12
ENDBRANCH   7   8
ENDBRANCH   3   7
BRANCH   1  24
HETATM   24  C   UNL     1      23.375  48.772  48.818  1.00  0.00     0.070 A 
HETATM   25  C   UNL     1      24.352  49.630  48.279  1.00  0.00     0.095 A 
HETATM   26  C   UNL     1      24.025  50.970  48.058  1.00  0.00     0.040 A 
HETATM   27  C   UNL     1      22.736  51.439  48.334  1.00  0.00     0.019 A 
HETATM   28  C   UNL     1      21.757  50.585  48.861  1.00  0.00     0.050 A 
HETATM   29  C   UNL     1      22.099  49.254  49.137  1.00  0.00     0.048 A 
BRANCH  25  30
HETATM   30  O   UNL     1      25.593  49.087  48.070  1.00  0.00    -0.349 OA
BRANCH  30  31
HETATM   31  C   UNL     1      26.722  49.838  48.510  1.00  0.00     0.171 C 
HETATM   32  C   UNL     1      27.708  48.870  49.140  1.00  0.00     0.034 C 
ENDBRANCH  30  31
ENDBRANCH  25  30
BRANCH  28  33
HETATM   33  C   UNL     1      20.355  51.093  49.094  1.00  0.00     0.417 C 
HETATM   34  F   UNL     1      19.997  51.116  50.408  1.00  0.00    -0.166 F 
HETATM   35  F   UNL     1      20.178  52.362  48.636  1.00  0.00    -0.166 F 
HETATM   36  F   UNL     1      19.418  50.332  48.465  1.00  0.00    -0.166 F 
ENDBRANCH  28  33
ENDBRANCH   1  24
TORSDOF 7
ENDMDL
MODEL 6
REMARK VINA RESULT:      -9.3      6.076      8.710
REMARK  7 active torsions:
REMARK  status: ('A' for Active; 'I' for Inactive)
REMARK    1  A    between atoms: C_2  and  O_3 
REMARK    2  A    between atoms: O_3  and  C_4 
REMARK    3  A    between atoms: C_5  and  N_6 
REMARK       I    between atoms: N_6  and  C_7 
REMARK       I    between atoms: C_7  and  N_8 
REMARK    4  A    between atoms: N_8  and  C_9 
REMARK    5  A    between atoms: C_9  and  C_10 
REMARK       I    between atoms: C_10  and  N_11 
REMARK    6  A    between atoms: N_11  and  C_12 
REMARK    7  A    between atoms: C_25  and  C_26 
ROOT
HETATM    1  N   UNL     1      26.165  45.633  52.446  1.00  0.00    -0.306 N 
HETATM    2  C   UNL     1      25.111  44.757  52.286  1.00  0.00     0.321 C 
HETATM    3  N   UNL     1      24.262  45.173  51.296  1.00  0.00    -0.334 N 
HETATM    4  O   UNL     1      24.968  43.687  52.865  1.00  0.00    -0.247 OA
HETATM    5  H   UNL     1      26.574  45.861  51.552  1.00  0.00     0.171 HD
HETATM    6  H   UNL     1      24.341  46.138  51.006  1.00  0.00     0.164 HD
ENDROOT
BRANCH   3   7
HETATM    7  C   UNL     1      23.524  44.260  50.437  1.00  0.00     0.227 C 
BRANCH   7   8
HETATM    8  C   UNL     1      24.266  43.195  49.606  1.00  0.00     0.239 C 
HETATM    9  N   UNL     1      24.758  42.144  50.351  1.00  0.00    -0.326 N 
HETATM   10  H   UNL     1      24.431  42.094  51.319  1.00  0.00     0.169 HD
HETATM   11  O   UNL     1      24.515  43.412  48.421  1.00  0.00    -0.271 OA
BRANCH   9  12
HETATM   12  C   UNL     1      25.739  41.202  49.983  1.00  0.00     0.037 A 
HETATM   13  C   UNL     1      26.898  40.957  50.729  1.00  0.00     0.061 A 
HETATM   14  C   UNL     1      27.724  39.947  50.287  1.00  0.00     0.065 A 
HETATM   15  C   UNL     1      27.448  39.198  49.147  1.00  0.00     0.063 A 
HETATM   16  N   UNL     1      28.908  39.465  50.839  1.00  0.00    -0.306 N 
HETATM   17  N   UNL     1      28.461  38.257  48.997  1.00  0.00    -0.307 N 
HETATM   18  C   UNL     1      26.333  39.421  48.382  1.00  0.00     0.034 A 
HETATM   19  C   UNL     1      29.377  38.407  50.049  1.00  0.00     0.325 A 
HETATM   20  H   UNL     1      28.544  37.557  48.278  1.00  0.00     0.170 HD
HETATM   21  O   UNL     1      30.379  37.743  50.239  1.00  0.00    -0.247 OA
HETATM   22  C   UNL     1      25.471  40.437  48.815  1.00  0.00     0.032 A 
HETATM   23  H   UNL     1      29.363  39.791  51.677  1.00  0.00     0.170 HD
ENDBRANCH   9  12
ENDBRANCH   7   8
ENDBRANCH   3   7
BRANCH   1  24
HETATM   24  C   UNL     1      27.092  45.415  53.495  1.00  0.00     0.070 A 
HETATM   25  C   UNL     1      27.028  46.154  54.691  1.00  0.00     0.095 A 
HETATM   26  C   UNL     1      27.969  45.901  55.691  1.00  0.00     0.040 A 
HETATM   27  C   UNL     1      28.935  44.902  55.519  1.00  0.00     0.019 A 
HETATM   28  C   UNL     1      28.995  44.157  54.333  1.00  0.00     0.050 A 
HETATM   29  C   UNL     1      28.087  44.448  53.306  1.00  0.00     0.048 A 
BRANCH  25  30
HETATM   30  O   UNL     1      26.067  47.130  54.755  1.00  0.00    -0.349 OA
BRANCH  30  31
HETATM   31  C   UNL     1      26.502  48.463  55.012  1.00  0.00     0.171 C 
HETATM   32  C   UNL     1      25.998  48.859  56.389  1.00  0.00     0.034 C 
ENDBRANCH  30  31
ENDBRANCH  25  30
BRANCH  28  33
HETATM   33  C   UNL     1      30.002  43.043  54.190  1.00  0.00     0.417 C 
HETATM   34  F   UNL     1      30.627  43.027  52.979  1.00  0.00    -0.166 F 
HETATM   35  F   UNL     1      30.993  43.113  55.120  1.00  0.00    -0.166 F 
HETATM   36  F   UNL     1      29.437  41.812  54.334  1.00  0.00    -0.166 F 
ENDBRANCH  28  33
ENDBRANCH   1  24
TORSDOF 7
ENDMDL
MODEL 7
REMARK VINA RESULT:      -9.2      4.729     10.270
REMARK  7 active torsions:
REMARK  status: ('A' for Active; 'I' for Inactive)
REMARK    1  A    between atoms: C_2  and  O_3 
REMARK    2  A    between atoms: O_3  and  C_4 
REMARK    3  A    between atoms: C_5  and  N_6 
REMARK       I    between atoms: N_6  and  C_7 
REMARK       I    between atoms: C_7  and  N_8 
REMARK    4  A    between atoms: N_8  and  C_9 
REMARK    5  A    between atoms: C_9  and  C_10 
REMARK       I    between atoms: C_10  and  N_11 
REMARK    6  A    between atoms: N_11  and  C_12 
REMARK    7  A    between atoms: C_25  and  C_26 
ROOT
HETATM    1  N   UNL     1      26.005  44.106  52.286  1.00  0.00    -0.306 N 
HETATM    2  C   UNL     1      26.166  44.569  50.995  1.00  0.00     0.321 C 
HETATM    3  N   UNL     1      24.962  44.694  50.356  1.00  0.00    -0.334 N 
HETATM    4  O   UNL     1      27.221  44.925  50.483  1.00  0.00    -0.247 OA
HETATM    5  H   UNL     1      25.282  44.626  52.760  1.00  0.00     0.171 HD
HETATM    6  H   UNL     1      24.176  44.210  50.769  1.00  0.00     0.164 HD
ENDROOT
BRANCH   3   7
HETATM    7  C   UNL     1      24.688  45.717  49.359  1.00  0.00     0.227 C 
BRANCH   7   8
HETATM    8  C   UNL     1      23.925  47.000  49.742  1.00  0.00     0.239 C 
HETATM    9  N   UNL     1      22.793  47.226  48.987  1.00  0.00    -0.326 N 
HETATM   10  H   UNL     1      22.491  46.448  48.395  1.00  0.00     0.169 HD
HETATM   11  O   UNL     1      24.428  47.795  50.535  1.00  0.00    -0.271 OA
BRANCH   9  12
HETATM   12  C   UNL     1      22.070  48.427  48.843  1.00  0.00     0.037 A 
HETATM   13  C   UNL     1      20.827  48.660  49.444  1.00  0.00     0.061 A 
HETATM   14  C   UNL     1      20.278  49.913  49.280  1.00  0.00     0.065 A 
HETATM   15  C   UNL     1      20.905  50.915  48.545  1.00  0.00     0.063 A 
HETATM   16  N   UNL     1      19.090  50.433  49.785  1.00  0.00    -0.306 N 
HETATM   17  N   UNL     1      20.103  52.050  48.596  1.00  0.00    -0.307 N 
HETATM   18  C   UNL     1      22.113  50.717  47.928  1.00  0.00     0.034 A 
HETATM   19  C   UNL     1      18.969  51.767  49.371  1.00  0.00     0.325 A 
HETATM   20  H   UNL     1      20.285  52.947  48.176  1.00  0.00     0.170 HD
HETATM   21  O   UNL     1      18.062  52.534  49.637  1.00  0.00    -0.247 OA
HETATM   22  C   UNL     1      22.697  49.453  48.087  1.00  0.00     0.032 A 
HETATM   23  H   UNL     1      18.420  49.958  50.368  1.00  0.00     0.170 HD
ENDBRANCH   9  12
ENDBRANCH   7   8
ENDBRANCH   3   7
BRANCH   1  24
HETATM   24  C   UNL     1      27.153  43.820  53.066  1.00  0.00     0.070 A 
HETATM   25  C   UNL     1      27.823  42.588  52.952  1.00  0.00     0.095 A 
HETATM   26  C   UNL     1      28.948  42.357  53.748  1.00  0.00     0.040 A 
HETATM   27  C   UNL     1      29.419  43.350  54.614  1.00  0.00     0.019 A 
HETATM   28  C   UNL     1      28.760  44.583  54.721  1.00  0.00     0.050 A 
HETATM   29  C   UNL     1      27.598  44.796  53.965  1.00  0.00     0.048 A 
BRANCH  25  30
HETATM   30  O   UNL     1      27.269  41.667  52.101  1.00  0.00    -0.349 OA
BRANCH  30  31
HETATM   31  C   UNL     1      28.092  41.165  51.050  1.00  0.00     0.171 C 
HETATM   32  C   UNL     1      27.251  40.216  50.215  1.00  0.00     0.034 C 
ENDBRANCH  30  31
ENDBRANCH  25  30
BRANCH  28  33
HETATM   33  C   UNL     1      29.318  45.664  55.612  1.00  0.00     0.417 C 
HETATM   34  F   UNL     1      29.263  46.908  55.058  1.00  0.00    -0.166 F 
HETATM   35  F   UNL     1      28.658  45.756  56.799  1.00  0.00    -0.166 F 
HETATM   36  F   UNL     1      30.626  45.454  55.926  1.00  0.00    -0.166 F 
ENDBRANCH  28  33
ENDBRANCH   1  24
TORSDOF 7
ENDMDL
MODEL 8
REMARK VINA RESULT:      -9.1      3.788      8.927
REMARK  7 active torsions:
REMARK  status: ('A' for Active; 'I' for Inactive)
REMARK    1  A    between atoms: C_2  and  O_3 
REMARK    2  A    between atoms: O_3  and  C_4 
REMARK    3  A    between atoms: C_5  and  N_6 
REMARK       I    between atoms: N_6  and  C_7 
REMARK       I    between atoms: C_7  and  N_8 
REMARK    4  A    between atoms: N_8  and  C_9 
REMARK    5  A    between atoms: C_9  and  C_10 
REMARK       I    between atoms: C_10  and  N_11 
REMARK    6  A    between atoms: N_11  and  C_12 
REMARK    7  A    between atoms: C_25  and  C_26 
ROOT
HETATM    1  N   UNL     1      26.022  43.300  53.336  1.00  0.00    -0.306 N 
HETATM    2  C   UNL     1      26.052  43.246  51.957  1.00  0.00     0.321 C 
HETATM    3  N   UNL     1      25.206  42.284  51.476  1.00  0.00    -0.334 N 
HETATM    4  O   UNL     1      26.668  44.007  51.220  1.00  0.00    -0.247 OA
HETATM    5  H   UNL     1      25.069  43.314  53.669  1.00  0.00     0.171 HD
HETATM    6  H   UNL     1      24.888  41.587  52.136  1.00  0.00     0.164 HD
ENDROOT
BRANCH   3   7
HETATM    7  C   UNL     1      24.497  42.401  50.212  1.00  0.00     0.227 C 
BRANCH   7   8
HETATM    8  C   UNL     1      23.556  43.593  49.949  1.00  0.00     0.239 C 
HETATM    9  N   UNL     1      24.120  44.596  49.189  1.00  0.00    -0.326 N 
HETATM   10  H   UNL     1      25.012  44.367  48.743  1.00  0.00     0.169 HD
HETATM   11  O   UNL     1      22.478  43.661  50.539  1.00  0.00    -0.271 OA
BRANCH   9  12
HETATM   12  C   UNL     1      23.683  45.927  49.044  1.00  0.00     0.037 A 
HETATM   13  C   UNL     1      22.614  46.308  48.223  1.00  0.00     0.061 A 
HETATM   14  C   UNL     1      22.248  47.635  48.247  1.00  0.00     0.065 A 
HETATM   15  C   UNL     1      22.904  48.579  49.033  1.00  0.00     0.063 A 
HETATM   16  N   UNL     1      21.217  48.283  47.572  1.00  0.00    -0.306 N 
HETATM   17  N   UNL     1      22.278  49.806  48.842  1.00  0.00    -0.307 N 
HETATM   18  C   UNL     1      23.965  48.247  49.835  1.00  0.00     0.034 A 
HETATM   19  C   UNL     1      21.219  49.636  47.936  1.00  0.00     0.325 A 
HETATM   20  H   UNL     1      22.506  50.684  49.278  1.00  0.00     0.170 HD
HETATM   21  O   UNL     1      20.450  50.497  47.550  1.00  0.00    -0.247 OA
HETATM   22  C   UNL     1      24.351  46.900  49.836  1.00  0.00     0.032 A 
HETATM   23  H   UNL     1      20.555  47.869  46.937  1.00  0.00     0.170 HD
ENDBRANCH   9  12
ENDBRANCH   7   8
ENDBRANCH   3   7
BRANCH   1  24
HETATM   24  C   UNL     1      26.909  44.171  54.014  1.00  0.00     0.070 A 
HETATM   25  C   UNL     1      28.188  43.741  54.416  1.00  0.00     0.095 A 
HETATM   26  C   UNL     1      29.022  44.640  55.085  1.00  0.00     0.040 A 
HETATM   27  C   UNL     1      28.605  45.956  55.315  1.00  0.00     0.019 A 
HETATM   28  C   UNL     1      27.336  46.390  54.906  1.00  0.00     0.050 A 
HETATM   29  C   UNL     1      26.476  45.474  54.286  1.00  0.00     0.048 A 
BRANCH  25  30
HETATM   30  O   UNL     1      28.495  42.427  54.174  1.00  0.00    -0.349 OA
BRANCH  30  31
HETATM   31  C   UNL     1      29.403  42.149  53.111  1.00  0.00     0.171 C 
HETATM   32  C   UNL     1      28.901  40.915  52.382  1.00  0.00     0.034 C 
ENDBRANCH  30  31
ENDBRANCH  25  30
BRANCH  28  33
HETATM   33  C   UNL     1      26.928  47.829  55.107  1.00  0.00     0.417 C 
HETATM   34  F   UNL     1      26.561  48.116  56.387  1.00  0.00    -0.166 F 
HETATM   35  F   UNL     1      27.926  48.702  54.800  1.00  0.00    -0.166 F 
HETATM   36  F   UNL     1      25.869  48.181  54.327  1.00  0.00    -0.166 F 
ENDBRANCH  28  33
ENDBRANCH   1  24
TORSDOF 7
ENDMDL
MODEL 9
REMARK VINA RESULT:      -9.1      4.667     10.465
REMARK  7 active torsions:
REMARK  status: ('A' for Active; 'I' for Inactive)
REMARK    1  A    between atoms: C_2  and  O_3 
REMARK    2  A    between atoms: O_3  and  C_4 
REMARK    3  A    between atoms: C_5  and  N_6 
REMARK       I    between atoms: N_6  and  C_7 
REMARK       I    between atoms: C_7  and  N_8 
REMARK    4  A    between atoms: N_8  and  C_9 
REMARK    5  A    between atoms: C_9  and  C_10 
REMARK       I    between atoms: C_10  and  N_11 
REMARK    6  A    between atoms: N_11  and  C_12 
REMARK    7  A    between atoms: C_25  and  C_26 
ROOT
HETATM    1  N   UNL     1      25.017  46.465  52.060  1.00  0.00    -0.306 N 
HETATM    2  C   UNL     1      25.433  46.858  50.804  1.00  0.00     0.321 C 
HETATM    3  N   UNL     1      24.457  47.565  50.153  1.00  0.00    -0.334 N 
HETATM    4  O   UNL     1      26.553  46.701  50.333  1.00  0.00    -0.247 OA
HETATM    5  H   UNL     1      24.601  47.241  52.554  1.00  0.00     0.171 HD
HETATM    6  H   UNL     1      23.519  47.487  50.521  1.00  0.00     0.164 HD
ENDROOT
BRANCH   3   7
HETATM    7  C   UNL     1      24.738  48.642  49.217  1.00  0.00     0.227 C 
BRANCH   7   8
HETATM    8  C   UNL     1      23.590  49.468  48.606  1.00  0.00     0.239 C 
HETATM    9  N   UNL     1      22.485  49.584  49.424  1.00  0.00    -0.326 N 
HETATM   10  H   UNL     1      22.613  49.273  50.390  1.00  0.00     0.169 HD
HETATM   11  O   UNL     1      23.648  49.812  47.426  1.00  0.00    -0.271 OA
BRANCH   9  12
HETATM   12  C   UNL     1      21.177  49.967  49.068  1.00  0.00     0.037 A 
HETATM   13  C   UNL     1      20.107  49.071  48.966  1.00  0.00     0.061 A 
HETATM   14  C   UNL     1      18.868  49.604  48.690  1.00  0.00     0.065 A 
HETATM   15  C   UNL     1      18.664  50.969  48.503  1.00  0.00     0.063 A 
HETATM   16  N   UNL     1      17.635  48.968  48.567  1.00  0.00    -0.306 N 
HETATM   17  N   UNL     1      17.310  51.172  48.266  1.00  0.00    -0.307 N 
HETATM   18  C   UNL     1      19.691  51.874  48.578  1.00  0.00     0.034 A 
HETATM   19  C   UNL     1      16.653  49.933  48.308  1.00  0.00     0.325 A 
HETATM   20  H   UNL     1      16.841  52.049  48.106  1.00  0.00     0.170 HD
HETATM   21  O   UNL     1      15.461  49.738  48.155  1.00  0.00    -0.247 OA
HETATM   22  C   UNL     1      20.961  51.357  48.867  1.00  0.00     0.032 A 
HETATM   23  H   UNL     1      17.450  47.983  48.663  1.00  0.00     0.170 HD
ENDBRANCH   9  12
ENDBRANCH   7   8
ENDBRANCH   3   7
BRANCH   1  24
HETATM   24  C   UNL     1      25.861  45.638  52.841  1.00  0.00     0.070 A 
HETATM   25  C   UNL     1      25.788  44.235  52.756  1.00  0.00     0.095 A 
HETATM   26  C   UNL     1      26.642  43.467  53.552  1.00  0.00     0.040 A 
HETATM   27  C   UNL     1      27.579  44.085  54.388  1.00  0.00     0.019 A 
HETATM   28  C   UNL     1      27.661  45.482  54.466  1.00  0.00     0.050 A 
HETATM   29  C   UNL     1      26.768  46.255  53.711  1.00  0.00     0.048 A 
BRANCH  25  30
HETATM   30  O   UNL     1      24.819  43.722  51.934  1.00  0.00    -0.349 OA
BRANCH  30  31
HETATM   31  C   UNL     1      25.199  42.676  51.043  1.00  0.00     0.171 C 
HETATM   32  C   UNL     1      25.904  43.309  49.856  1.00  0.00     0.034 C 
ENDBRANCH  30  31
ENDBRANCH  25  30
BRANCH  28  33
HETATM   33  C   UNL     1      28.719  46.131  55.324  1.00  0.00     0.417 C 
HETATM   34  F   UNL     1      29.859  45.391  55.433  1.00  0.00    -0.166 F 
HETATM   35  F   UNL     1      29.106  47.345  54.847  1.00  0.00    -0.166 F 
HETATM   36  F   UNL     1      28.292  46.346  56.599  1.00  0.00    -0.166 F 
ENDBRANCH  28  33
ENDBRANCH   1  24
TORSDOF 7
ENDMDL
MODEL 10
REMARK VINA RESULT:      -8.6      5.404     10.679
REMARK  7 active torsions:
REMARK  status: ('A' for Active; 'I' for Inactive)
REMARK    1  A    between atoms: C_2  and  O_3 
REMARK    2  A    between atoms: O_3  and  C_4 
REMARK    3  A    between atoms: C_5  and  N_6 
REMARK       I    between atoms: N_6  and  C_7 
REMARK       I    between atoms: C_7  and  N_8 
REMARK    4  A    between atoms: N_8  and  C_9 
REMARK    5  A    between atoms: C_9  and  C_10 
REMARK       I    between atoms: C_10  and  N_11 
REMARK    6  A    between atoms: N_11  and  C_12 
REMARK    7  A    between atoms: C_25  and  C_26 
ROOT
HETATM    1  N   UNL     1      26.951  44.332  50.187  1.00  0.00    -0.306 N 
HETATM    2  C   UNL     1      25.720  44.874  50.497  1.00  0.00     0.321 C 
HETATM    3  N   UNL     1      25.397  45.898  49.648  1.00  0.00    -0.334 N 
HETATM    4  O   UNL     1      24.944  44.460  51.350  1.00  0.00    -0.247 OA
HETATM    5  H   UNL     1      27.017  44.149  49.196  1.00  0.00     0.171 HD
HETATM    6  H   UNL     1      26.154  46.296  49.109  1.00  0.00     0.164 HD
ENDROOT
BRANCH   3   7
HETATM    7  C   UNL     1      24.034  46.202  49.242  1.00  0.00     0.227 C 
BRANCH   7   8
HETATM    8  C   UNL     1      23.397  47.561  49.591  1.00  0.00     0.239 C 
HETATM    9  N   UNL     1      22.074  47.673  49.218  1.00  0.00    -0.326 N 
HETATM   10  H   UNL     1      21.621  46.804  48.924  1.00  0.00     0.169 HD
HETATM   11  O   UNL     1      24.106  48.479  50.001  1.00  0.00    -0.271 OA
BRANCH   9  12
HETATM   12  C   UNL     1      21.305  48.845  49.083  1.00  0.00     0.037 A 
HETATM   13  C   UNL     1      20.076  49.045  49.723  1.00  0.00     0.061 A 
HETATM   14  C   UNL     1      19.479  50.275  49.561  1.00  0.00     0.065 A 
HETATM   15  C   UNL     1      20.045  51.287  48.791  1.00  0.00     0.063 A 
HETATM   16  N   UNL     1      18.291  50.762  50.100  1.00  0.00    -0.306 N 
HETATM   17  N   UNL     1      19.206  52.395  48.855  1.00  0.00    -0.307 N 
HETATM   18  C   UNL     1      21.237  51.122  48.136  1.00  0.00     0.034 A 
HETATM   19  C   UNL     1      18.109  52.084  49.672  1.00  0.00     0.325 A 
HETATM   20  H   UNL     1      19.342  53.291  48.417  1.00  0.00     0.170 HD
HETATM   21  O   UNL     1      17.186  52.823  49.959  1.00  0.00    -0.247 OA
HETATM   22  C   UNL     1      21.870  49.881  48.291  1.00  0.00     0.032 A 
HETATM   23  H   UNL     1      17.658  50.273  50.712  1.00  0.00     0.170 HD
ENDBRANCH   9  12
ENDBRANCH   7   8
ENDBRANCH   3   7
BRANCH   1  24
HETATM   24  C   UNL     1      27.494  43.325  51.022  1.00  0.00     0.070 A 
HETATM   25  C   UNL     1      27.311  41.960  50.731  1.00  0.00     0.095 A 
HETATM   26  C   UNL     1      27.865  41.008  51.590  1.00  0.00     0.040 A 
HETATM   27  C   UNL     1      28.620  41.408  52.699  1.00  0.00     0.019 A 
HETATM   28  C   UNL     1      28.812  42.767  52.985  1.00  0.00     0.050 A 
HETATM   29  C   UNL     1      28.211  43.724  52.156  1.00  0.00     0.048 A 
BRANCH  25  30
HETATM   30  O   UNL     1      26.532  41.666  49.642  1.00  0.00    -0.349 OA
BRANCH  30  31
HETATM   31  C   UNL     1      27.182  41.124  48.495  1.00  0.00     0.171 C 
HETATM   32  C   UNL     1      26.637  39.725  48.270  1.00  0.00     0.034 C 
ENDBRANCH  30  31
ENDBRANCH  25  30
BRANCH  28  33
HETATM   33  C   UNL     1      29.681  43.179  54.147  1.00  0.00     0.417 C 
HETATM   34  F   UNL     1      29.598  42.335  55.214  1.00  0.00    -0.166 F 
HETATM   35  F   UNL     1      31.001  43.235  53.819  1.00  0.00    -0.166 F 
HETATM   36  F   UNL     1      29.360  44.414  54.622  1.00  0.00    -0.166 F 
ENDBRANCH  28  33
ENDBRANCH   1  24
TORSDOF 7
ENDMDL
