MODEL 1
REMARK VINA RESULT:      -9.2      0.000      0.000
REMARK  9 active torsions:
REMARK  status: ('A' for Active; 'I' for Inactive)
REMARK    1  A    between atoms: C_2  and  O_3 
REMARK    2  A    between atoms: O_3  and  C_4 
REMARK    3  A    between atoms: C_7  and  N_8 
REMARK    4  A    between atoms: C_12  and  N_13 
REMARK       I    between atoms: N_13  and  C_14 
REMARK       I    between atoms: C_14  and  N_15 
REMARK    5  A    between atoms: N_15  and  C_16 
REMARK    6  A    between atoms: C_16  and  C_17 
REMARK    7  A    between atoms: C_17  and  C_18 
REMARK    8  A    between atoms: C_21  and  S_22 
REMARK    9  A    between atoms: S_22  and  N_23 
ROOT
HETATM    1  N   UNL     1      26.660  46.510  49.960  1.00  0.00    -0.336 N 
HETATM    2  C   UNL     1      26.671  45.830  51.152  1.00  0.00     0.316 C 
HETATM    3  N   UNL     1      27.127  44.553  50.980  1.00  0.00    -0.343 N 
HETATM    4  O   UNL     1      26.292  46.298  52.215  1.00  0.00    -0.248 OA
HETATM    5  H   UNL     1      27.447  46.277  49.369  1.00  0.00     0.164 HD
HETATM    6  H   UNL     1      27.002  44.167  50.055  1.00  0.00     0.164 HD
ENDROOT
BRANCH   1   7
HETATM    7  C   UNL     1      26.180  47.886  49.911  1.00  0.00     0.113 C 
HETATM    8  C   UNL     1      26.770  48.647  48.736  1.00  0.00     0.130 C 
HETATM    9  C   UNL     1      25.682  49.605  48.324  1.00  0.00     0.226 C 
HETATM   10  N   UNL     1      24.473  49.165  48.871  1.00  0.00    -0.316 N 
HETATM   11  O   UNL     1      25.897  50.548  47.577  1.00  0.00    -0.273 OA
HETATM   12  C   UNL     1      24.671  47.996  49.697  1.00  0.00     0.157 C 
BRANCH  10  13
HETATM   13  C   UNL     1      23.169  49.625  48.529  1.00  0.00     0.037 A 
HETATM   14  C   UNL     1      22.211  48.785  47.949  1.00  0.00     0.032 A 
HETATM   15  C   UNL     1      20.900  49.226  47.710  1.00  0.00     0.039 A 
HETATM   16  C   UNL     1      20.526  50.522  48.047  1.00  0.00     0.068 A 
HETATM   17  C   UNL     1      21.481  51.391  48.561  1.00  0.00     0.039 A 
HETATM   18  C   UNL     1      22.785  50.946  48.807  1.00  0.00     0.032 A 
BRANCH  16  19
HETATM   19  O   UNL     1      19.272  51.044  47.902  1.00  0.00    -0.352 OA
BRANCH  19  20
HETATM   20  C   UNL     1      19.074  52.331  48.491  1.00  0.00     0.171 C 
HETATM   21  C   UNL     1      18.091  52.173  49.637  1.00  0.00     0.034 C 
ENDBRANCH  19  20
ENDBRANCH  16  19
ENDBRANCH  10  13
ENDBRANCH   1   7
BRANCH   3  22
HETATM   22  C   UNL     1      27.188  43.633  52.099  1.00  0.00     0.129 C 
BRANCH  22  23
HETATM   23  C   UNL     1      28.618  43.212  52.456  1.00  0.00     0.058 C 
BRANCH  23  24
HETATM   24  C   UNL     1      29.125  43.756  53.774  1.00  0.00    -0.057 A 
HETATM   25  C   UNL     1      30.266  43.217  54.386  1.00  0.00     0.009 A 
HETATM   26  C   UNL     1      30.712  43.710  55.613  1.00  0.00     0.025 A 
HETATM   27  C   UNL     1      30.026  44.763  56.225  1.00  0.00     0.074 A 
HETATM   28  C   UNL     1      28.892  45.315  55.627  1.00  0.00     0.025 A 
HETATM   29  C   UNL     1      28.450  44.816  54.401  1.00  0.00     0.009 A 
BRANCH  27  30
HETATM   30  S   UNL     1      30.560  45.351  57.804  1.00  0.00     0.239 S 
HETATM   31  O   UNL     1      31.218  46.627  57.637  1.00  0.00    -0.206 OA
HETATM   32  O   UNL     1      29.504  45.146  58.767  1.00  0.00    -0.206 OA
BRANCH  30  33
HETATM   33  N   UNL     1      31.769  44.256  58.195  1.00  0.00    -0.225 NA
HETATM   34  H   UNL     1      32.684  44.692  58.075  1.00  0.00     0.136 HD
HETATM   35  H   UNL     1      31.609  43.883  59.131  1.00  0.00     0.136 HD
ENDBRANCH  30  33
ENDBRANCH  27  30
ENDBRANCH  23  24
ENDBRANCH  22  23
ENDBRANCH   3  22
TORSDOF 9
ENDMDL
MODEL 2
REMARK VINA RESULT:      -9.1      4.204     12.174
REMARK  9 active torsions:
REMARK  status: ('A' for Active; 'I' for Inactive)
REMARK    1  A    between atoms: C_2  and  O_3 
REMARK    2  A    between atoms: O_3  and  C_4 
REMARK    3  A    between atoms: C_7  and  N_8 
REMARK    4  A    between atoms: C_12  and  N_13 
REMARK       I    between atoms: N_13  and  C_14 
REMARK       I    between atoms: C_14  and  N_15 
REMARK    5  A    between atoms: N_15  and  C_16 
REMARK    6  A    between atoms: C_16  and  C_17 
REMARK    7  A    between atoms: C_17  and  C_18 
REMARK    8  A    between atoms: C_21  and  S_22 
REMARK    9  A    between atoms: S_22  and  N_23 
ROOT
HETATM    1  N   UNL     1      24.954  47.448  50.309  1.00  0.00    -0.336 N 
HETATM    2  C   UNL     1      23.818  47.800  49.624  1.00  0.00     0.316 C 
HETATM    3  N   UNL     1      23.764  49.152  49.431  1.00  0.00    -0.343 N 
HETATM    4  O   UNL     1      22.958  47.009  49.267  1.00  0.00    -0.248 OA
HETATM    5  H   UNL     1      25.758  48.003  50.045  1.00  0.00     0.164 HD
HETATM    6  H   UNL     1      24.271  49.708  50.105  1.00  0.00     0.164 HD
ENDROOT
BRANCH   1   7
HETATM    7  C   UNL     1      25.197  46.051  50.647  1.00  0.00     0.113 C 
HETATM    8  C   UNL     1      25.882  45.308  49.512  1.00  0.00     0.130 C 
HETATM    9  C   UNL     1      26.761  44.297  50.203  1.00  0.00     0.226 C 
HETATM   10  N   UNL     1      26.922  44.685  51.536  1.00  0.00    -0.316 N 
HETATM   11  O   UNL     1      27.265  43.358  49.603  1.00  0.00    -0.273 OA
HETATM   12  C   UNL     1      26.148  45.869  51.830  1.00  0.00     0.157 C 
BRANCH  10  13
HETATM   13  C   UNL     1      27.867  44.162  52.465  1.00  0.00     0.037 A 
HETATM   14  C   UNL     1      28.830  43.214  52.096  1.00  0.00     0.032 A 
HETATM   15  C   UNL     1      29.815  42.783  52.998  1.00  0.00     0.039 A 
HETATM   16  C   UNL     1      29.853  43.296  54.290  1.00  0.00     0.068 A 
HETATM   17  C   UNL     1      28.866  44.186  54.695  1.00  0.00     0.039 A 
HETATM   18  C   UNL     1      27.889  44.621  53.792  1.00  0.00     0.032 A 
BRANCH  16  19
HETATM   19  O   UNL     1      30.789  42.985  55.235  1.00  0.00    -0.352 OA
BRANCH  19  20
HETATM   20  C   UNL     1      31.114  44.039  56.143  1.00  0.00     0.171 C 
HETATM   21  C   UNL     1      31.886  43.434  57.301  1.00  0.00     0.034 C 
ENDBRANCH  19  20
ENDBRANCH  16  19
ENDBRANCH  10  13
ENDBRANCH   1   7
BRANCH   3  22
HETATM   22  C   UNL     1      22.629  49.759  48.763  1.00  0.00     0.129 C 
BRANCH  22  23
HETATM   23  C   UNL     1      22.030  50.934  49.543  1.00  0.00     0.058 C 
BRANCH  23  24
HETATM   24  C   UNL     1      20.538  51.115  49.363  1.00  0.00    -0.057 A 
HETATM   25  C   UNL     1      20.029  52.002  48.403  1.00  0.00     0.009 A 
HETATM   26  C   UNL     1      18.652  52.179  48.261  1.00  0.00     0.025 A 
HETATM   27  C   UNL     1      17.776  51.450  49.068  1.00  0.00     0.074 A 
HETATM   28  C   UNL     1      18.265  50.558  50.024  1.00  0.00     0.025 A 
HETATM   29  C   UNL     1      19.643  50.388  50.164  1.00  0.00     0.009 A 
BRANCH  27  30
HETATM   30  S   UNL     1      16.033  51.713  48.923  1.00  0.00     0.239 S 
HETATM   31  O   UNL     1      15.414  50.515  48.404  1.00  0.00    -0.206 OA
HETATM   32  O   UNL     1      15.555  52.378  50.112  1.00  0.00    -0.206 OA
BRANCH  30  33
HETATM   33  N   UNL     1      15.952  52.847  47.690  1.00  0.00    -0.225 NA
HETATM   34  H   UNL     1      14.981  52.978  47.403  1.00  0.00     0.136 HD
HETATM   35  H   UNL     1      16.417  53.707  47.979  1.00  0.00     0.136 HD
ENDBRANCH  30  33
ENDBRANCH  27  30
ENDBRANCH  23  24
ENDBRANCH  22  23
ENDBRANCH   3  22
TORSDOF 9
ENDMDL
MODEL 3
REMARK VINA RESULT:      -8.5      4.103     11.881
REMARK  9 active torsions:
REMARK  status: ('A' for Active; 'I' for Inactive)
REMARK    1  A    between atoms: C_2  and  O_3 
REMARK    2  A    between atoms: O_3  and  C_4 
REMARK    3  A    between atoms: C_7  and  N_8 
REMARK    4  A    between atoms: C_12  and  N_13 
REMARK       I    between atoms: N_13  and  C_14 
REMARK       I    between atoms: C_14  and  N_15 
REMARK    5  A    between atoms: N_15  and  C_16 
REMARK    6  A    between atoms: C_16  and  C_17 
REMARK    7  A    between atoms: C_17  and  C_18 
REMARK    8  A    between atoms: C_21  and  S_22 
REMARK    9  A    between atoms: S_22  and  N_23 
ROOT
HETATM    1  N   UNL     1      23.333  46.280  49.961  1.00  0.00    -0.336 N 
HETATM    2  C   UNL     1      23.791  47.568  49.834  1.00  0.00     0.316 C 
HETATM    3  N   UNL     1      22.787  48.404  49.430  1.00  0.00    -0.343 N 
HETATM    4  O   UNL     1      24.948  47.909  50.027  1.00  0.00    -0.248 OA
HETATM    5  H   UNL     1      22.391  46.234  50.327  1.00  0.00     0.164 HD
HETATM    6  H   UNL     1      22.038  47.966  48.914  1.00  0.00     0.164 HD
ENDROOT
BRANCH   1   7
HETATM    7  C   UNL     1      24.249  45.218  50.357  1.00  0.00     0.113 C 
HETATM    8  C   UNL     1      25.397  45.068  49.373  1.00  0.00     0.130 C 
HETATM    9  C   UNL     1      26.567  44.644  50.223  1.00  0.00     0.226 C 
HETATM   10  N   UNL     1      26.278  44.941  51.558  1.00  0.00    -0.316 N 
HETATM   11  O   UNL     1      27.591  44.186  49.736  1.00  0.00    -0.273 OA
HETATM   12  C   UNL     1      24.945  45.483  51.692  1.00  0.00     0.157 C 
BRANCH  10  13
HETATM   13  C   UNL     1      27.196  44.940  52.647  1.00  0.00     0.037 A 
HETATM   14  C   UNL     1      27.145  45.899  53.666  1.00  0.00     0.032 A 
HETATM   15  C   UNL     1      27.993  45.826  54.782  1.00  0.00     0.039 A 
HETATM   16  C   UNL     1      28.910  44.787  54.897  1.00  0.00     0.068 A 
HETATM   17  C   UNL     1      29.021  43.864  53.864  1.00  0.00     0.039 A 
HETATM   18  C   UNL     1      28.169  43.934  52.756  1.00  0.00     0.032 A 
BRANCH  16  19
HETATM   19  O   UNL     1      29.751  44.590  55.956  1.00  0.00    -0.352 OA
BRANCH  19  20
HETATM   20  C   UNL     1      30.789  43.631  55.741  1.00  0.00     0.171 C 
HETATM   21  C   UNL     1      31.478  43.387  57.071  1.00  0.00     0.034 C 
ENDBRANCH  19  20
ENDBRANCH  16  19
ENDBRANCH  10  13
ENDBRANCH   1   7
BRANCH   3  22
HETATM   22  C   UNL     1      23.049  49.810  49.189  1.00  0.00     0.129 C 
BRANCH  22  23
HETATM   23  C   UNL     1      22.358  50.343  47.929  1.00  0.00     0.058 C 
BRANCH  23  24
HETATM   24  C   UNL     1      20.875  50.603  48.084  1.00  0.00    -0.057 A 
HETATM   25  C   UNL     1      19.928  49.674  47.628  1.00  0.00     0.009 A 
HETATM   26  C   UNL     1      18.563  49.934  47.756  1.00  0.00     0.025 A 
HETATM   27  C   UNL     1      18.139  51.119  48.362  1.00  0.00     0.074 A 
HETATM   28  C   UNL     1      19.068  52.051  48.828  1.00  0.00     0.025 A 
HETATM   29  C   UNL     1      20.432  51.787  48.695  1.00  0.00     0.009 A 
BRANCH  27  30
HETATM   30  S   UNL     1      16.410  51.470  48.476  1.00  0.00     0.239 S 
HETATM   31  O   UNL     1      15.662  50.329  48.000  1.00  0.00    -0.206 OA
HETATM   32  O   UNL     1      16.138  52.098  49.747  1.00  0.00    -0.206 OA
BRANCH  30  33
HETATM   33  N   UNL     1      16.219  52.665  47.314  1.00  0.00    -0.225 NA
HETATM   34  H   UNL     1      16.559  53.558  47.675  1.00  0.00     0.136 HD
HETATM   35  H   UNL     1      16.664  52.376  46.443  1.00  0.00     0.136 HD
ENDBRANCH  30  33
ENDBRANCH  27  30
ENDBRANCH  23  24
ENDBRANCH  22  23
ENDBRANCH   3  22
TORSDOF 9
ENDMDL
MODEL 4
REMARK VINA RESULT:      -8.3      4.700     12.152
REMARK  9 active torsions:
REMARK  status: ('A' for Active; 'I' for Inactive)
REMARK    1  A    between atoms: C_2  and  O_3 
REMARK    2  A    between atoms: O_3  and  C_4 
REMARK    3  A    between atoms: C_7  and  N_8 
REMARK    4  A    between atoms: C_12  and  N_13 
REMARK       I    between atoms: N_13  and  C_14 
REMARK       I    between atoms: C_14  and  N_15 
REMARK    5  A    between atoms: N_15  and  C_16 
REMARK    6  A    between atoms: C_16  and  C_17 
REMARK    7  A    between atoms: C_17  and  C_18 
REMARK    8  A    between atoms: C_21  and  S_22 
REMARK    9  A    between atoms: S_22  and  N_23 
ROOT
HETATM    1  N   UNL     1      23.222  49.727  48.676  1.00  0.00    -0.336 N 
HETATM    2  C   UNL     1      22.088  49.515  47.934  1.00  0.00     0.316 C 
HETATM    3  N   UNL     1      21.200  50.542  48.097  1.00  0.00    -0.343 N 
HETATM    4  O   UNL     1      21.890  48.525  47.247  1.00  0.00    -0.248 OA
HETATM    5  H   UNL     1      23.498  50.700  48.702  1.00  0.00     0.164 HD
HETATM    6  H   UNL     1      21.278  51.050  48.967  1.00  0.00     0.164 HD
ENDROOT
BRANCH   1   7
HETATM    7  C   UNL     1      24.292  48.736  48.670  1.00  0.00     0.113 C 
HETATM    8  C   UNL     1      25.664  49.388  48.690  1.00  0.00     0.130 C 
HETATM    9  C   UNL     1      26.523  48.433  49.478  1.00  0.00     0.226 C 
HETATM   10  N   UNL     1      25.686  47.578  50.201  1.00  0.00    -0.316 N 
HETATM   11  O   UNL     1      27.743  48.507  49.480  1.00  0.00    -0.273 OA
HETATM   12  C   UNL     1      24.296  47.838  49.906  1.00  0.00     0.157 C 
BRANCH  10  13
HETATM   13  C   UNL     1      26.073  46.702  51.256  1.00  0.00     0.037 A 
HETATM   14  C   UNL     1      26.525  45.399  51.015  1.00  0.00     0.032 A 
HETATM   15  C   UNL     1      26.995  44.584  52.057  1.00  0.00     0.039 A 
HETATM   16  C   UNL     1      27.021  45.062  53.362  1.00  0.00     0.068 A 
HETATM   17  C   UNL     1      26.515  46.328  53.630  1.00  0.00     0.039 A 
HETATM   18  C   UNL     1      26.054  47.142  52.589  1.00  0.00     0.032 A 
BRANCH  16  19
HETATM   19  O   UNL     1      27.498  44.377  54.444  1.00  0.00    -0.352 OA
BRANCH  19  20
HETATM   20  C   UNL     1      28.897  44.529  54.695  1.00  0.00     0.171 C 
HETATM   21  C   UNL     1      29.587  43.244  54.276  1.00  0.00     0.034 C 
ENDBRANCH  19  20
ENDBRANCH  16  19
ENDBRANCH  10  13
ENDBRANCH   1   7
BRANCH   3  22
HETATM   22  C   UNL     1      19.909  50.515  47.438  1.00  0.00     0.129 C 
BRANCH  22  23
HETATM   23  C   UNL     1      18.809  49.878  48.295  1.00  0.00     0.058 C 
BRANCH  23  24
HETATM   24  C   UNL     1      17.768  50.849  48.809  1.00  0.00    -0.057 A 
HETATM   25  C   UNL     1      16.404  50.651  48.546  1.00  0.00     0.009 A 
HETATM   26  C   UNL     1      15.455  51.564  49.005  1.00  0.00     0.025 A 
HETATM   27  C   UNL     1      15.866  52.673  49.750  1.00  0.00     0.074 A 
HETATM   28  C   UNL     1      17.218  52.882  50.026  1.00  0.00     0.025 A 
HETATM   29  C   UNL     1      18.164  51.966  49.562  1.00  0.00     0.009 A 
BRANCH  27  30
HETATM   30  S   UNL     1      14.667  53.857  50.285  1.00  0.00     0.239 S 
HETATM   31  O   UNL     1      14.565  54.908  49.299  1.00  0.00    -0.206 OA
HETATM   32  O   UNL     1      13.510  53.161  50.796  1.00  0.00    -0.206 OA
BRANCH  30  33
HETATM   33  N   UNL     1      15.424  54.543  51.615  1.00  0.00    -0.225 NA
HETATM   34  H   UNL     1      16.394  54.227  51.664  1.00  0.00     0.136 HD
HETATM   35  H   UNL     1      15.322  55.558  51.587  1.00  0.00     0.136 HD
ENDBRANCH  30  33
ENDBRANCH  27  30
ENDBRANCH  23  24
ENDBRANCH  22  23
ENDBRANCH   3  22
TORSDOF 9
ENDMDL
MODEL 5
REMARK VINA RESULT:      -8.2      2.403      3.427
REMARK  9 active torsions:
REMARK  status: ('A' for Active; 'I' for Inactive)
REMARK    1  A    between atoms: C_2  and  O_3 
REMARK    2  A    between atoms: O_3  and  C_4 
REMARK    3  A    between atoms: C_7  and  N_8 
REMARK    4  A    between atoms: C_12  and  N_13 
REMARK       I    between atoms: N_13  and  C_14 
REMARK       I    between atoms: C_14  and  N_15 
REMARK    5  A    between atoms: N_15  and  C_16 
REMARK    6  A    between atoms: C_16  and  C_17 
REMARK    7  A    between atoms: C_17  and  C_18 
REMARK    8  A    between atoms: C_21  and  S_22 
REMARK    9  A    between atoms: S_22  and  N_23 
ROOT
HETATM    1  N   UNL     1      25.570  42.810  51.557  1.00  0.00    -0.336 N 
HETATM    2  C   UNL     1      26.818  42.241  51.527  1.00  0.00     0.316 C 
HETATM    3  N   UNL     1      27.262  41.973  52.792  1.00  0.00    -0.343 N 
HETATM    4  O   UNL     1      27.456  42.032  50.506  1.00  0.00    -0.248 OA
HETATM    5  H   UNL     1      24.980  42.423  52.282  1.00  0.00     0.164 HD
HETATM    6  H   UNL     1      26.868  42.550  53.522  1.00  0.00     0.164 HD
ENDROOT
BRANCH   1   7
HETATM    7  C   UNL     1      24.920  43.202  50.312  1.00  0.00     0.113 C 
HETATM    8  C   UNL     1      23.452  42.808  50.295  1.00  0.00     0.130 C 
HETATM    9  C   UNL     1      22.781  43.893  49.494  1.00  0.00     0.226 C 
HETATM   10  N   UNL     1      23.637  44.996  49.436  1.00  0.00    -0.316 N 
HETATM   11  O   UNL     1      21.644  43.770  49.061  1.00  0.00    -0.273 OA
HETATM   12  C   UNL     1      24.894  44.714  50.091  1.00  0.00     0.157 C 
BRANCH  10  13
HETATM   13  C   UNL     1      23.301  46.310  49.002  1.00  0.00     0.037 A 
HETATM   14  C   UNL     1      22.341  46.545  48.010  1.00  0.00     0.032 A 
HETATM   15  C   UNL     1      21.950  47.848  47.663  1.00  0.00     0.039 A 
HETATM   16  C   UNL     1      22.518  48.943  48.306  1.00  0.00     0.068 A 
HETATM   17  C   UNL     1      23.521  48.732  49.245  1.00  0.00     0.039 A 
HETATM   18  C   UNL     1      23.903  47.432  49.595  1.00  0.00     0.032 A 
BRANCH  16  19
HETATM   19  O   UNL     1      22.184  50.249  48.084  1.00  0.00    -0.352 OA
BRANCH  19  20
HETATM   20  C   UNL     1      21.574  50.919  49.188  1.00  0.00     0.171 C 
HETATM   21  C   UNL     1      20.288  51.556  48.693  1.00  0.00     0.034 C 
ENDBRANCH  19  20
ENDBRANCH  16  19
ENDBRANCH  10  13
ENDBRANCH   1   7
BRANCH   3  22
HETATM   22  C   UNL     1      28.578  41.404  53.010  1.00  0.00     0.129 C 
BRANCH  22  23
HETATM   23  C   UNL     1      29.704  42.440  52.916  1.00  0.00     0.058 C 
BRANCH  23  24
HETATM   24  C   UNL     1      29.873  43.301  54.149  1.00  0.00    -0.057 A 
HETATM   25  C   UNL     1      30.898  43.048  55.072  1.00  0.00     0.009 A 
HETATM   26  C   UNL     1      31.030  43.834  56.217  1.00  0.00     0.025 A 
HETATM   27  C   UNL     1      30.146  44.894  56.434  1.00  0.00     0.074 A 
HETATM   28  C   UNL     1      29.125  45.165  55.522  1.00  0.00     0.025 A 
HETATM   29  C   UNL     1      28.995  44.373  54.379  1.00  0.00     0.009 A 
BRANCH  27  30
HETATM   30  S   UNL     1      30.283  45.856  57.911  1.00  0.00     0.239 S 
HETATM   31  O   UNL     1      31.319  46.848  57.737  1.00  0.00    -0.206 OA
HETATM   32  O   UNL     1      28.959  46.194  58.379  1.00  0.00    -0.206 OA
BRANCH  30  33
HETATM   33  N   UNL     1      30.893  44.737  59.002  1.00  0.00    -0.225 NA
HETATM   34  H   UNL     1      30.575  43.800  58.751  1.00  0.00     0.136 HD
HETATM   35  H   UNL     1      31.907  44.828  59.060  1.00  0.00     0.136 HD
ENDBRANCH  30  33
ENDBRANCH  27  30
ENDBRANCH  23  24
ENDBRANCH  22  23
ENDBRANCH   3  22
TORSDOF 9
ENDMDL
MODEL 6
REMARK VINA RESULT:      -8.1      4.176     11.002
REMARK  9 active torsions:
REMARK  status: ('A' for Active; 'I' for Inactive)
REMARK    1  A    between atoms: C_2  and  O_3 
REMARK    2  A    between atoms: O_3  and  C_4 
REMARK    3  A    between atoms: C_7  and  N_8 
REMARK    4  A    between atoms: C_12  and  N_13 
REMARK       I    between atoms: N_13  and  C_14 
REMARK       I    between atoms: C_14  and  N_15 
REMARK    5  A    between atoms: N_15  and  C_16 
REMARK    6  A    between atoms: C_16  and  C_17 
REMARK    7  A    between atoms: C_17  and  C_18 
REMARK    8  A    between atoms: C_21  and  S_22 
REMARK    9  A    between atoms: S_22  and  N_23 
ROOT
HETATM    1  N   UNL     1      22.865  49.420  49.552  1.00  0.00    -0.336 N 
HETATM    2  C   UNL     1      22.187  50.210  48.659  1.00  0.00     0.316 C 
HETATM    3  N   UNL     1      21.211  50.931  49.290  1.00  0.00    -0.343 N 
HETATM    4  O   UNL     1      22.408  50.237  47.458  1.00  0.00    -0.248 OA
HETATM    5  H   UNL     1      22.998  49.868  50.450  1.00  0.00     0.164 HD
HETATM    6  H   UNL     1      20.855  50.526  50.144  1.00  0.00     0.164 HD
ENDROOT
BRANCH   1   7
HETATM    7  C   UNL     1      23.934  48.545  49.085  1.00  0.00     0.113 C 
HETATM    8  C   UNL     1      25.271  49.265  49.036  1.00  0.00     0.130 C 
HETATM    9  C   UNL     1      26.284  48.199  49.367  1.00  0.00     0.226 C 
HETATM   10  N   UNL     1      25.619  47.126  49.968  1.00  0.00    -0.316 N 
HETATM   11  O   UNL     1      27.480  48.357  49.171  1.00  0.00    -0.273 OA
HETATM   12  C   UNL     1      24.192  47.355  50.009  1.00  0.00     0.157 C 
BRANCH  10  13
HETATM   13  C   UNL     1      26.218  46.034  50.658  1.00  0.00     0.037 A 
HETATM   14  C   UNL     1      26.870  44.994  49.983  1.00  0.00     0.032 A 
HETATM   15  C   UNL     1      27.541  43.977  50.681  1.00  0.00     0.039 A 
HETATM   16  C   UNL     1      27.569  43.983  52.071  1.00  0.00     0.068 A 
HETATM   17  C   UNL     1      26.871  44.969  52.758  1.00  0.00     0.039 A 
HETATM   18  C   UNL     1      26.210  45.987  52.061  1.00  0.00     0.032 A 
BRANCH  16  19
HETATM   19  O   UNL     1      28.226  43.074  52.851  1.00  0.00    -0.352 OA
BRANCH  19  20
HETATM   20  C   UNL     1      28.387  43.448  54.221  1.00  0.00     0.171 C 
HETATM   21  C   UNL     1      29.869  43.399  54.546  1.00  0.00     0.034 C 
ENDBRANCH  19  20
ENDBRANCH  16  19
ENDBRANCH  10  13
ENDBRANCH   1   7
BRANCH   3  22
HETATM   22  C   UNL     1      20.336  51.808  48.536  1.00  0.00     0.129 C 
BRANCH  22  23
HETATM   23  C   UNL     1      18.903  51.276  48.422  1.00  0.00     0.058 C 
BRANCH  23  24
HETATM   24  C   UNL     1      18.802  49.797  48.120  1.00  0.00    -0.057 A 
HETATM   25  C   UNL     1      18.425  48.881  49.113  1.00  0.00     0.009 A 
HETATM   26  C   UNL     1      18.356  47.516  48.829  1.00  0.00     0.025 A 
HETATM   27  C   UNL     1      18.647  47.063  47.540  1.00  0.00     0.074 A 
HETATM   28  C   UNL     1      19.018  47.962  46.538  1.00  0.00     0.025 A 
HETATM   29  C   UNL     1      19.087  49.325  46.828  1.00  0.00     0.009 A 
BRANCH  27  30
HETATM   30  S   UNL     1      18.612  45.330  47.196  1.00  0.00     0.239 S 
HETATM   31  O   UNL     1      17.241  44.909  47.019  1.00  0.00    -0.206 OA
HETATM   32  O   UNL     1      19.646  45.016  46.238  1.00  0.00    -0.206 OA
BRANCH  30  33
HETATM   33  N   UNL     1      19.112  44.673  48.656  1.00  0.00    -0.225 NA
HETATM   34  H   UNL     1      18.331  44.193  49.106  1.00  0.00     0.136 HD
HETATM   35  H   UNL     1      19.929  44.081  48.507  1.00  0.00     0.136 HD
ENDBRANCH  30  33
ENDBRANCH  27  30
ENDBRANCH  23  24
ENDBRANCH  22  23
ENDBRANCH   3  22
TORSDOF 9
ENDMDL
MODEL 7
REMARK VINA RESULT:      -8.0      4.364     11.343
REMARK  9 active torsions:
REMARK  status: ('A' for Active; 'I' for Inactive)
REMARK    1  A    between atoms: C_2  and  O_3 
REMARK    2  A    between atoms: O_3  and  C_4 
REMARK    3  A    between atoms: C_7  and  N_8 
REMARK    4  A    between atoms: C_12  and  N_13 
REMARK       I    between atoms: N_13  and  C_14 
REMARK       I    between atoms: C_14  and  N_15 
REMARK    5  A    between atoms: N_15  and  C_16 
REMARK    6  A    between atoms: C_16  and  C_17 
REMARK    7  A    between atoms: C_17  and  C_18 
REMARK    8  A    between atoms: C_21  and  S_22 
REMARK    9  A    between atoms: S_22  and  N_23 
ROOT
HETATM    1  N   UNL     1      22.795  45.030  49.961  1.00  0.00    -0.336 N 
HETATM    2  C   UNL     1      21.977  44.714  48.906  1.00  0.00     0.316 C 
HETATM    3  N   UNL     1      20.786  45.379  48.995  1.00  0.00    -0.343 N 
HETATM    4  O   UNL     1      22.267  43.918  48.025  1.00  0.00    -0.248 OA
HETATM    5  H   UNL     1      22.720  46.001  50.236  1.00  0.00     0.164 HD
HETATM    6  H   UNL     1      20.507  45.647  49.928  1.00  0.00     0.164 HD
ENDROOT
BRANCH   1   7
HETATM    7  C   UNL     1      24.108  44.408  50.076  1.00  0.00     0.113 C 
HETATM    8  C   UNL     1      25.161  45.163  49.281  1.00  0.00     0.130 C 
HETATM    9  C   UNL     1      26.427  44.996  50.081  1.00  0.00     0.226 C 
HETATM   10  N   UNL     1      26.084  44.598  51.377  1.00  0.00    -0.316 N 
HETATM   11  O   UNL     1      27.527  45.254  49.616  1.00  0.00    -0.273 OA
HETATM   12  C   UNL     1      24.657  44.410  51.503  1.00  0.00     0.157 C 
BRANCH  10  13
HETATM   13  C   UNL     1      26.943  44.573  52.513  1.00  0.00     0.037 A 
HETATM   14  C   UNL     1      27.873  43.548  52.722  1.00  0.00     0.032 A 
HETATM   15  C   UNL     1      28.779  43.590  53.794  1.00  0.00     0.039 A 
HETATM   16  C   UNL     1      28.767  44.663  54.678  1.00  0.00     0.068 A 
HETATM   17  C   UNL     1      27.807  45.656  54.526  1.00  0.00     0.039 A 
HETATM   18  C   UNL     1      26.910  45.617  53.452  1.00  0.00     0.032 A 
BRANCH  16  19
HETATM   19  O   UNL     1      29.628  44.832  55.726  1.00  0.00    -0.352 OA
BRANCH  19  20
HETATM   20  C   UNL     1      29.577  46.112  56.358  1.00  0.00     0.171 C 
HETATM   21  C   UNL     1      29.222  45.896  57.818  1.00  0.00     0.034 C 
ENDBRANCH  19  20
ENDBRANCH  16  19
ENDBRANCH  10  13
ENDBRANCH   1   7
BRANCH   3  22
HETATM   22  C   UNL     1      19.745  45.168  48.007  1.00  0.00     0.129 C 
BRANCH  22  23
HETATM   23  C   UNL     1      18.414  45.827  48.385  1.00  0.00     0.058 C 
BRANCH  23  24
HETATM   24  C   UNL     1      18.458  47.338  48.461  1.00  0.00    -0.057 A 
HETATM   25  C   UNL     1      18.604  48.115  47.302  1.00  0.00     0.009 A 
HETATM   26  C   UNL     1      18.666  49.506  47.385  1.00  0.00     0.025 A 
HETATM   27  C   UNL     1      18.562  50.130  48.631  1.00  0.00     0.074 A 
HETATM   28  C   UNL     1      18.410  49.372  49.794  1.00  0.00     0.025 A 
HETATM   29  C   UNL     1      18.350  47.981  49.705  1.00  0.00     0.009 A 
BRANCH  27  30
HETATM   30  S   UNL     1      18.694  51.889  48.740  1.00  0.00     0.239 S 
HETATM   31  O   UNL     1      17.960  52.349  49.897  1.00  0.00    -0.206 OA
HETATM   32  O   UNL     1      20.061  52.277  48.488  1.00  0.00    -0.206 OA
BRANCH  30  33
HETATM   33  N   UNL     1      17.812  52.390  47.404  1.00  0.00    -0.225 NA
HETATM   34  H   UNL     1      16.919  51.896  47.374  1.00  0.00     0.136 HD
HETATM   35  H   UNL     1      17.722  53.405  47.409  1.00  0.00     0.136 HD
ENDBRANCH  30  33
ENDBRANCH  27  30
ENDBRANCH  23  24
ENDBRANCH  22  23
ENDBRANCH   3  22
TORSDOF 9
ENDMDL
MODEL 8
REMARK VINA RESULT:      -7.8      1.641      2.292
REMARK  9 active torsions:
REMARK  status: ('A' for Active; 'I' for Inactive)
REMARK    1  A    between atoms: C_2  and  O_3 
REMARK    2  A    between atoms: O_3  and  C_4 
REMARK    3  A    between atoms: C_7  and  N_8 
REMARK    4  A    between atoms: C_12  and  N_13 
REMARK       I    between atoms: N_13  and  C_14 
REMARK       I    between atoms: C_14  and  N_15 
REMARK    5  A    between atoms: N_15  and  C_16 
REMARK    6  A    between atoms: C_16  and  C_17 
REMARK    7  A    between atoms: C_17  and  C_18 
REMARK    8  A    between atoms: C_21  and  S_22 
REMARK    9  A    between atoms: S_22  and  N_23 
ROOT
HETATM    1  N   UNL     1      24.583  46.828  49.674  1.00  0.00    -0.336 N 
HETATM    2  C   UNL     1      24.994  46.177  50.810  1.00  0.00     0.316 C 
HETATM    3  N   UNL     1      25.241  44.857  50.554  1.00  0.00    -0.343 N 
HETATM    4  O   UNL     1      25.094  46.705  51.907  1.00  0.00    -0.248 OA
HETATM    5  H   UNL     1      25.060  46.503  48.842  1.00  0.00     0.164 HD
HETATM    6  H   UNL     1      24.737  44.465  49.771  1.00  0.00     0.164 HD
ENDROOT
BRANCH   1   7
HETATM    7  C   UNL     1      24.239  48.243  49.729  1.00  0.00     0.113 C 
HETATM    8  C   UNL     1      24.882  49.024  48.596  1.00  0.00     0.130 C 
HETATM    9  C   UNL     1      23.886  50.109  48.274  1.00  0.00     0.226 C 
HETATM   10  N   UNL     1      22.649  49.750  48.817  1.00  0.00    -0.316 N 
HETATM   11  O   UNL     1      24.180  51.076  47.588  1.00  0.00    -0.273 OA
HETATM   12  C   UNL     1      22.745  48.513  49.557  1.00  0.00     0.157 C 
BRANCH  10  13
HETATM   13  C   UNL     1      21.391  50.355  48.536  1.00  0.00     0.037 A 
HETATM   14  C   UNL     1      20.662  50.058  47.378  1.00  0.00     0.032 A 
HETATM   15  C   UNL     1      19.380  50.588  47.165  1.00  0.00     0.039 A 
HETATM   16  C   UNL     1      18.804  51.429  48.111  1.00  0.00     0.068 A 
HETATM   17  C   UNL     1      19.539  51.789  49.234  1.00  0.00     0.039 A 
HETATM   18  C   UNL     1      20.814  51.253  49.449  1.00  0.00     0.032 A 
BRANCH  16  19
HETATM   19  O   UNL     1      17.550  51.965  48.031  1.00  0.00    -0.352 OA
BRANCH  19  20
HETATM   20  C   UNL     1      17.021  52.467  49.260  1.00  0.00     0.171 C 
HETATM   21  C   UNL     1      15.563  52.052  49.343  1.00  0.00     0.034 C 
ENDBRANCH  19  20
ENDBRANCH  16  19
ENDBRANCH  10  13
ENDBRANCH   1   7
BRANCH   3  22
HETATM   22  C   UNL     1      25.649  43.961  51.618  1.00  0.00     0.129 C 
BRANCH  22  23
HETATM   23  C   UNL     1      27.049  43.373  51.406  1.00  0.00     0.058 C 
BRANCH  23  24
HETATM   24  C   UNL     1      27.974  43.501  52.597  1.00  0.00    -0.057 A 
HETATM   25  C   UNL     1      27.585  44.218  53.739  1.00  0.00     0.009 A 
HETATM   26  C   UNL     1      28.454  44.349  54.823  1.00  0.00     0.025 A 
HETATM   27  C   UNL     1      29.712  43.744  54.776  1.00  0.00     0.074 A 
HETATM   28  C   UNL     1      30.113  43.022  53.651  1.00  0.00     0.025 A 
HETATM   29  C   UNL     1      29.241  42.896  52.568  1.00  0.00     0.009 A 
BRANCH  27  30
HETATM   30  S   UNL     1      30.832  43.955  56.128  1.00  0.00     0.239 S 
HETATM   31  O   UNL     1      30.798  42.775  56.961  1.00  0.00    -0.206 OA
HETATM   32  O   UNL     1      32.067  44.518  55.636  1.00  0.00    -0.206 OA
BRANCH  30  33
HETATM   33  N   UNL     1      30.086  45.168  57.014  1.00  0.00    -0.225 NA
HETATM   34  H   UNL     1      30.164  46.057  56.519  1.00  0.00     0.136 HD
HETATM   35  H   UNL     1      29.126  44.899  57.229  1.00  0.00     0.136 HD
ENDBRANCH  30  33
ENDBRANCH  27  30
ENDBRANCH  23  24
ENDBRANCH  22  23
ENDBRANCH   3  22
TORSDOF 9
ENDMDL
MODEL 9
REMARK VINA RESULT:      -7.8      4.333     11.814
REMARK  9 active torsions:
REMARK  status: ('A' for Active; 'I' for Inactive)
REMARK    1  A    between atoms: C_2  and  O_3 
REMARK    2  A    between atoms: O_3  and  C_4 
REMARK    3  A    between atoms: C_7  and  N_8 
REMARK    4  A    between atoms: C_12  and  N_13 
REMARK       I    between atoms: N_13  and  C_14 
REMARK       I    between atoms: C_14  and  N_15 
REMARK    5  A    between atoms: N_15  and  C_16 
REMARK    6  A    between atoms: C_16  and  C_17 
REMARK    7  A    between atoms: C_17  and  C_18 
REMARK    8  A    between atoms: C_21  and  S_22 
REMARK    9  A    between atoms: S_22  and  N_23 
ROOT
HETATM    1  N   UNL     1      24.690  44.318  50.251  1.00  0.00    -0.336 N 
HETATM    2  C   UNL     1      23.347  44.277  49.975  1.00  0.00     0.316 C 
HETATM    3  N   UNL     1      23.033  45.121  48.947  1.00  0.00    -0.343 N 
HETATM    4  O   UNL     1      22.538  43.598  50.591  1.00  0.00    -0.248 OA
HETATM    5  H   UNL     1      25.258  44.413  49.418  1.00  0.00     0.164 HD
HETATM    6  H   UNL     1      23.662  45.902  48.819  1.00  0.00     0.164 HD
ENDROOT
BRANCH   1   7
HETATM    7  C   UNL     1      25.236  43.511  51.335  1.00  0.00     0.113 C 
HETATM    8  C   UNL     1      26.006  42.309  50.811  1.00  0.00     0.130 C 
HETATM    9  C   UNL     1      27.109  42.103  51.816  1.00  0.00     0.226 C 
HETATM   10  N   UNL     1      27.250  43.273  52.568  1.00  0.00    -0.316 N 
HETATM   11  O   UNL     1      27.768  41.074  51.853  1.00  0.00    -0.273 OA
HETATM   12  C   UNL     1      26.260  44.256  52.190  1.00  0.00     0.157 C 
BRANCH  10  13
HETATM   13  C   UNL     1      28.327  43.596  53.441  1.00  0.00     0.037 A 
HETATM   14  C   UNL     1      28.242  44.635  54.376  1.00  0.00     0.032 A 
HETATM   15  C   UNL     1      29.275  44.878  55.296  1.00  0.00     0.039 A 
HETATM   16  C   UNL     1      30.415  44.081  55.294  1.00  0.00     0.068 A 
HETATM   17  C   UNL     1      30.546  43.089  54.330  1.00  0.00     0.039 A 
HETATM   18  C   UNL     1      29.513  42.844  53.419  1.00  0.00     0.032 A 
BRANCH  16  19
HETATM   19  O   UNL     1      31.458  44.195  56.169  1.00  0.00    -0.352 OA
BRANCH  19  20
HETATM   20  C   UNL     1      31.188  43.759  57.502  1.00  0.00     0.171 C 
HETATM   21  C   UNL     1      30.973  44.992  58.360  1.00  0.00     0.034 C 
ENDBRANCH  19  20
ENDBRANCH  16  19
ENDBRANCH  10  13
ENDBRANCH   1   7
BRANCH   3  22
HETATM   22  C   UNL     1      21.660  45.274  48.508  1.00  0.00     0.129 C 
BRANCH  22  23
HETATM   23  C   UNL     1      21.502  46.289  47.370  1.00  0.00     0.058 C 
BRANCH  23  24
HETATM   24  C   UNL     1      20.781  47.562  47.756  1.00  0.00    -0.057 A 
HETATM   25  C   UNL     1      20.989  48.157  49.010  1.00  0.00     0.009 A 
HETATM   26  C   UNL     1      20.302  49.319  49.365  1.00  0.00     0.025 A 
HETATM   27  C   UNL     1      19.417  49.904  48.456  1.00  0.00     0.074 A 
HETATM   28  C   UNL     1      19.203  49.328  47.202  1.00  0.00     0.025 A 
HETATM   29  C   UNL     1      19.891  48.165  46.853  1.00  0.00     0.009 A 
BRANCH  27  30
HETATM   30  S   UNL     1      18.508  51.345  48.927  1.00  0.00     0.239 S 
HETATM   31  O   UNL     1      18.039  51.188  50.284  1.00  0.00    -0.206 OA
HETATM   32  O   UNL     1      19.224  52.519  48.487  1.00  0.00    -0.206 OA
BRANCH  30  33
HETATM   33  N   UNL     1      17.147  51.235  47.952  1.00  0.00    -0.225 NA
HETATM   34  H   UNL     1      17.417  50.944  47.011  1.00  0.00     0.136 HD
HETATM   35  H   UNL     1      16.457  50.625  48.390  1.00  0.00     0.136 HD
ENDBRANCH  30  33
ENDBRANCH  27  30
ENDBRANCH  23  24
ENDBRANCH  22  23
ENDBRANCH   3  22
TORSDOF 9
ENDMDL
MODEL 10
REMARK VINA RESULT:      -7.7      4.143     11.073
REMARK  9 active torsions:
REMARK  status: ('A' for Active; 'I' for Inactive)
REMARK    1  A    between atoms: C_2  and  O_3 
REMARK    2  A    between atoms: O_3  and  C_4 
REMARK    3  A    between atoms: C_7  and  N_8 
REMARK    4  A    between atoms: C_12  and  N_13 
REMARK       I    between atoms: N_13  and  C_14 
REMARK       I    between atoms: C_14  and  N_15 
REMARK    5  A    between atoms: N_15  and  C_16 
REMARK    6  A    between atoms: C_16  and  C_17 
REMARK    7  A    between atoms: C_17  and  C_18 
REMARK    8  A    between atoms: C_21  and  S_22 
REMARK    9  A    between atoms: S_22  and  N_23 
ROOT
HETATM    1  N   UNL     1      22.395  45.240  49.044  1.00  0.00    -0.336 N 
HETATM    2  C   UNL     1      21.820  45.434  47.814  1.00  0.00     0.316 C 
HETATM    3  N   UNL     1      20.503  45.067  47.829  1.00  0.00    -0.343 N 
HETATM    4  O   UNL     1      22.417  45.848  46.832  1.00  0.00    -0.248 OA
HETATM    5  H   UNL     1      21.768  45.455  49.808  1.00  0.00     0.164 HD
HETATM    6  H   UNL     1      20.252  44.376  48.522  1.00  0.00     0.164 HD
ENDROOT
BRANCH   1   7
HETATM    7  C   UNL     1      23.808  45.542  49.243  1.00  0.00     0.113 C 
HETATM    8  C   UNL     1      24.009  46.918  49.856  1.00  0.00     0.130 C 
HETATM    9  C   UNL     1      25.236  46.769  50.718  1.00  0.00     0.226 C 
HETATM   10  N   UNL     1      25.459  45.407  50.942  1.00  0.00    -0.316 N 
HETATM   11  O   UNL     1      25.839  47.735  51.162  1.00  0.00    -0.273 OA
HETATM   12  C   UNL     1      24.498  44.599  50.227  1.00  0.00     0.157 C 
BRANCH  10  13
HETATM   13  C   UNL     1      26.348  44.837  51.897  1.00  0.00     0.037 A 
HETATM   14  C   UNL     1      26.079  44.857  53.272  1.00  0.00     0.032 A 
HETATM   15  C   UNL     1      26.916  44.205  54.190  1.00  0.00     0.039 A 
HETATM   16  C   UNL     1      28.043  43.521  53.747  1.00  0.00     0.068 A 
HETATM   17  C   UNL     1      28.364  43.548  52.395  1.00  0.00     0.039 A 
HETATM   18  C   UNL     1      27.523  44.191  51.480  1.00  0.00     0.032 A 
BRANCH  16  19
HETATM   19  O   UNL     1      28.902  42.816  54.542  1.00  0.00    -0.352 OA
BRANCH  19  20
HETATM   20  C   UNL     1      30.283  43.154  54.401  1.00  0.00     0.171 C 
HETATM   21  C   UNL     1      30.768  43.694  55.733  1.00  0.00     0.034 C 
ENDBRANCH  19  20
ENDBRANCH  16  19
ENDBRANCH  10  13
ENDBRANCH   1   7
BRANCH   3  22
HETATM   22  C   UNL     1      19.699  45.147  46.624  1.00  0.00     0.129 C 
BRANCH  22  23
HETATM   23  C   UNL     1      18.433  45.993  46.800  1.00  0.00     0.058 C 
BRANCH  23  24
HETATM   24  C   UNL     1      18.656  47.327  47.479  1.00  0.00    -0.057 A 
HETATM   25  C   UNL     1      18.132  47.584  48.755  1.00  0.00     0.009 A 
HETATM   26  C   UNL     1      18.324  48.825  49.363  1.00  0.00     0.025 A 
HETATM   27  C   UNL     1      19.061  49.811  48.703  1.00  0.00     0.074 A 
HETATM   28  C   UNL     1      19.596  49.570  47.436  1.00  0.00     0.025 A 
HETATM   29  C   UNL     1      19.398  48.327  46.831  1.00  0.00     0.009 A 
BRANCH  27  30
HETATM   30  S   UNL     1      19.259  51.400  49.451  1.00  0.00     0.239 S 
HETATM   31  O   UNL     1      19.696  52.345  48.449  1.00  0.00    -0.206 OA
HETATM   32  O   UNL     1      18.134  51.658  50.318  1.00  0.00    -0.206 OA
BRANCH  30  33
HETATM   33  N   UNL     1      20.577  51.151  50.458  1.00  0.00    -0.225 NA
HETATM   34  H   UNL     1      21.186  50.434  50.061  1.00  0.00     0.136 HD
HETATM   35  H   UNL     1      21.048  52.038  50.638  1.00  0.00     0.136 HD
ENDBRANCH  30  33
ENDBRANCH  27  30
ENDBRANCH  23  24
ENDBRANCH  22  23
ENDBRANCH   3  22
TORSDOF 9
ENDMDL
