MODEL 1
REMARK VINA RESULT:      -9.2      0.000      0.000
REMARK  4 active torsions:
REMARK  status: ('A' for Active; 'I' for Inactive)
REMARK    1  A    between atoms: C_3  and  N_4 
REMARK       I    between atoms: N_4  and  C_5 
REMARK       I    between atoms: C_5  and  N_6 
REMARK    2  A    between atoms: N_6  and  C_7 
REMARK    3  A    between atoms: C_7  and  C_8 
REMARK    4  A    between atoms: C_11  and  C_12 
ROOT
HETATM    1  N   UNL     1      25.057  46.768  50.156  1.00  0.00    -0.309 N 
HETATM    2  C   UNL     1      25.105  46.668  51.531  1.00  0.00     0.321 C 
HETATM    3  N   UNL     1      25.204  45.348  51.915  1.00  0.00    -0.335 N 
HETATM    4  O   UNL     1      25.141  47.589  52.333  1.00  0.00    -0.247 OA
HETATM    5  H   UNL     1      25.594  46.039  49.707  1.00  0.00     0.170 HD
HETATM    6  H   UNL     1      24.737  44.674  51.323  1.00  0.00     0.164 HD
ENDROOT
BRANCH   3   7
HETATM    7  C   UNL     1      25.398  45.007  53.311  1.00  0.00     0.213 C 
BRANCH   7   8
HETATM    8  C   UNL     1      26.815  44.724  53.659  1.00  0.00     0.190 A 
HETATM    9  O   UNL     1      27.656  44.287  52.679  1.00  0.00    -0.194 OA
HETATM   10  N   UNL     1      28.903  44.104  53.277  1.00  0.00    -0.106 NA
HETATM   11  C   UNL     1      28.693  44.425  54.565  1.00  0.00     0.189 A 
HETATM   12  N   UNL     1      27.404  44.839  54.829  1.00  0.00    -0.202 NA
BRANCH  11  13
HETATM   13  C   UNL     1      29.707  44.347  55.612  1.00  0.00     0.014 A 
HETATM   14  C   UNL     1      30.641  43.301  55.646  1.00  0.00     0.015 A 
HETATM   15  C   UNL     1      31.598  43.235  56.663  1.00  0.00     0.001 A 
HETATM   16  C   UNL     1      31.633  44.211  57.657  1.00  0.00     0.000 A 
HETATM   17  C   UNL     1      30.712  45.257  57.636  1.00  0.00     0.001 A 
HETATM   18  C   UNL     1      29.756  45.324  56.619  1.00  0.00     0.015 A 
ENDBRANCH  11  13
ENDBRANCH   7   8
ENDBRANCH   3   7
BRANCH   1  19
HETATM   19  C   UNL     1      24.992  47.991  49.446  1.00  0.00     0.042 A 
HETATM   20  C   UNL     1      26.111  48.716  48.999  1.00  0.00    -0.035 A 
HETATM   21  C   UNL     1      27.535  48.334  49.298  1.00  0.00     0.050 C 
HETATM   22  C   UNL     1      25.901  49.887  48.245  1.00  0.00     0.009 A 
HETATM   23  C   UNL     1      24.615  50.362  47.988  1.00  0.00     0.001 A 
HETATM   24  C   UNL     1      23.516  49.679  48.490  1.00  0.00     0.002 A 
HETATM   25  C   UNL     1      23.704  48.507  49.224  1.00  0.00     0.030 A 
ENDBRANCH   1  19
TORSDOF 4
ENDMDL
MODEL 2
REMARK VINA RESULT:      -9.1      1.350      8.928
REMARK  4 active torsions:
REMARK  status: ('A' for Active; 'I' for Inactive)
REMARK    1  A    between atoms: C_3  and  N_4 
REMARK       I    between atoms: N_4  and  C_5 
REMARK       I    between atoms: C_5  and  N_6 
REMARK    2  A    between atoms: N_6  and  C_7 
REMARK    3  A    between atoms: C_7  and  C_8 
REMARK    4  A    between atoms: C_11  and  C_12 
ROOT
HETATM    1  N   UNL     1      28.686  45.600  54.797  1.00  0.00    -0.309 N 
HETATM    2  C   UNL     1      27.401  45.132  54.619  1.00  0.00     0.321 C 
HETATM    3  N   UNL     1      26.776  45.818  53.599  1.00  0.00    -0.335 N 
HETATM    4  O   UNL     1      26.873  44.194  55.198  1.00  0.00    -0.247 OA
HETATM    5  H   UNL     1      29.097  45.910  53.928  1.00  0.00     0.170 HD
HETATM    6  H   UNL     1      27.037  46.788  53.488  1.00  0.00     0.164 HD
ENDROOT
BRANCH   3   7
HETATM    7  C   UNL     1      25.459  45.412  53.146  1.00  0.00     0.213 C 
BRANCH   7   8
HETATM    8  C   UNL     1      25.101  45.954  51.810  1.00  0.00     0.190 A 
HETATM    9  O   UNL     1      24.927  45.084  50.774  1.00  0.00    -0.194 OA
HETATM   10  N   UNL     1      24.603  45.855  49.658  1.00  0.00    -0.106 NA
HETATM   11  C   UNL     1      24.634  47.117  50.117  1.00  0.00     0.189 A 
HETATM   12  N   UNL     1      24.920  47.210  51.463  1.00  0.00    -0.202 NA
BRANCH  11  13
HETATM   13  C   UNL     1      24.402  48.302  49.295  1.00  0.00     0.014 A 
HETATM   14  C   UNL     1      25.464  49.108  48.861  1.00  0.00     0.015 A 
HETATM   15  C   UNL     1      25.223  50.246  48.086  1.00  0.00     0.001 A 
HETATM   16  C   UNL     1      23.919  50.591  47.735  1.00  0.00     0.000 A 
HETATM   17  C   UNL     1      22.854  49.799  48.159  1.00  0.00     0.001 A 
HETATM   18  C   UNL     1      23.094  48.661  48.933  1.00  0.00     0.015 A 
ENDBRANCH  11  13
ENDBRANCH   7   8
ENDBRANCH   3   7
BRANCH   1  19
HETATM   19  C   UNL     1      29.601  45.077  55.742  1.00  0.00     0.042 A 
HETATM   20  C   UNL     1      30.404  43.941  55.533  1.00  0.00    -0.035 A 
HETATM   21  C   UNL     1      30.329  43.072  54.308  1.00  0.00     0.050 C 
HETATM   22  C   UNL     1      31.322  43.568  56.535  1.00  0.00     0.009 A 
HETATM   23  C   UNL     1      31.404  44.267  57.738  1.00  0.00     0.001 A 
HETATM   24  C   UNL     1      30.561  45.346  57.967  1.00  0.00     0.002 A 
HETATM   25  C   UNL     1      29.658  45.741  56.979  1.00  0.00     0.030 A 
ENDBRANCH   1  19
TORSDOF 4
ENDMDL
MODEL 3
REMARK VINA RESULT:      -9.1      3.542      5.486
REMARK  4 active torsions:
REMARK  status: ('A' for Active; 'I' for Inactive)
REMARK    1  A    between atoms: C_3  and  N_4 
REMARK       I    between atoms: N_4  and  C_5 
REMARK       I    between atoms: C_5  and  N_6 
REMARK    2  A    between atoms: N_6  and  C_7 
REMARK    3  A    between atoms: C_7  and  C_8 
REMARK    4  A    between atoms: C_11  and  C_12 
ROOT
HETATM    1  N   UNL     1      21.428  50.204  49.936  1.00  0.00    -0.309 N 
HETATM    2  C   UNL     1      21.994  49.136  49.271  1.00  0.00     0.321 C 
HETATM    3  N   UNL     1      23.196  48.791  49.851  1.00  0.00    -0.335 N 
HETATM    4  O   UNL     1      21.504  48.501  48.349  1.00  0.00    -0.247 OA
HETATM    5  H   UNL     1      21.650  50.193  50.921  1.00  0.00     0.170 HD
HETATM    6  H   UNL     1      23.734  49.548  50.249  1.00  0.00     0.164 HD
ENDROOT
BRANCH   3   7
HETATM    7  C   UNL     1      23.912  47.612  49.399  1.00  0.00     0.213 C 
BRANCH   7   8
HETATM    8  C   UNL     1      24.563  46.858  50.502  1.00  0.00     0.190 A 
HETATM    9  O   UNL     1      24.256  45.539  50.664  1.00  0.00    -0.194 OA
HETATM   10  N   UNL     1      24.999  45.090  51.756  1.00  0.00    -0.106 NA
HETATM   11  C   UNL     1      25.665  46.183  52.164  1.00  0.00     0.189 A 
HETATM   12  N   UNL     1      25.431  47.297  51.386  1.00  0.00    -0.202 NA
BRANCH  11  13
HETATM   13  C   UNL     1      26.555  46.225  53.322  1.00  0.00     0.014 A 
HETATM   14  C   UNL     1      26.686  47.385  54.099  1.00  0.00     0.015 A 
HETATM   15  C   UNL     1      27.551  47.412  55.197  1.00  0.00     0.001 A 
HETATM   16  C   UNL     1      28.294  46.281  55.531  1.00  0.00     0.000 A 
HETATM   17  C   UNL     1      28.173  45.121  54.769  1.00  0.00     0.001 A 
HETATM   18  C   UNL     1      27.308  45.093  53.672  1.00  0.00     0.015 A 
ENDBRANCH  11  13
ENDBRANCH   7   8
ENDBRANCH   3   7
BRANCH   1  19
HETATM   19  C   UNL     1      20.174  50.773  49.608  1.00  0.00     0.042 A 
HETATM   20  C   UNL     1      18.942  50.352  50.140  1.00  0.00    -0.035 A 
HETATM   21  C   UNL     1      18.781  49.174  51.061  1.00  0.00     0.050 C 
HETATM   22  C   UNL     1      17.774  51.052  49.778  1.00  0.00     0.009 A 
HETATM   23  C   UNL     1      17.816  52.106  48.867  1.00  0.00     0.001 A 
HETATM   24  C   UNL     1      19.025  52.474  48.293  1.00  0.00     0.002 A 
HETATM   25  C   UNL     1      20.194  51.803  48.653  1.00  0.00     0.030 A 
ENDBRANCH   1  19
TORSDOF 4
ENDMDL
MODEL 4
REMARK VINA RESULT:      -9.1      3.104      9.671
REMARK  4 active torsions:
REMARK  status: ('A' for Active; 'I' for Inactive)
REMARK    1  A    between atoms: C_3  and  N_4 
REMARK       I    between atoms: N_4  and  C_5 
REMARK       I    between atoms: C_5  and  N_6 
REMARK    2  A    between atoms: N_6  and  C_7 
REMARK    3  A    between atoms: C_7  and  C_8 
REMARK    4  A    between atoms: C_11  and  C_12 
ROOT
HETATM    1  N   UNL     1      25.307  46.135  52.542  1.00  0.00    -0.309 N 
HETATM    2  C   UNL     1      25.358  46.684  51.278  1.00  0.00     0.321 C 
HETATM    3  N   UNL     1      24.187  46.431  50.595  1.00  0.00    -0.335 N 
HETATM    4  O   UNL     1      26.253  47.373  50.811  1.00  0.00    -0.247 OA
HETATM    5  H   UNL     1      24.369  46.140  52.916  1.00  0.00     0.170 HD
HETATM    6  H   UNL     1      23.728  45.555  50.805  1.00  0.00     0.164 HD
ENDROOT
BRANCH   3   7
HETATM    7  C   UNL     1      23.960  47.022  49.290  1.00  0.00     0.213 C 
BRANCH   7   8
HETATM    8  C   UNL     1      23.251  48.327  49.347  1.00  0.00     0.190 A 
HETATM    9  O   UNL     1      23.979  49.461  49.556  1.00  0.00    -0.194 OA
HETATM   10  N   UNL     1      23.072  50.520  49.564  1.00  0.00    -0.106 NA
HETATM   11  C   UNL     1      21.881  49.926  49.382  1.00  0.00     0.189 A 
HETATM   12  N   UNL     1      21.963  48.558  49.220  1.00  0.00    -0.202 NA
BRANCH  11  13
HETATM   13  C   UNL     1      20.601  50.628  49.361  1.00  0.00     0.014 A 
HETATM   14  C   UNL     1      19.533  50.222  50.174  1.00  0.00     0.015 A 
HETATM   15  C   UNL     1      18.310  50.898  50.132  1.00  0.00     0.001 A 
HETATM   16  C   UNL     1      18.140  51.987  49.279  1.00  0.00     0.000 A 
HETATM   17  C   UNL     1      19.193  52.402  48.466  1.00  0.00     0.001 A 
HETATM   18  C   UNL     1      20.415  51.728  48.508  1.00  0.00     0.015 A 
ENDBRANCH  11  13
ENDBRANCH   7   8
ENDBRANCH   3   7
BRANCH   1  19
HETATM   19  C   UNL     1      26.339  46.251  53.504  1.00  0.00     0.042 A 
HETATM   20  C   UNL     1      27.287  45.251  53.783  1.00  0.00    -0.035 A 
HETATM   21  C   UNL     1      27.274  43.882  53.161  1.00  0.00     0.050 C 
HETATM   22  C   UNL     1      28.303  45.525  54.720  1.00  0.00     0.009 A 
HETATM   23  C   UNL     1      28.347  46.737  55.407  1.00  0.00     0.001 A 
HETATM   24  C   UNL     1      27.369  47.695  55.176  1.00  0.00     0.002 A 
HETATM   25  C   UNL     1      26.365  47.448  54.239  1.00  0.00     0.030 A 
ENDBRANCH   1  19
TORSDOF 4
ENDMDL
MODEL 5
REMARK VINA RESULT:      -8.9      3.003      9.707
REMARK  4 active torsions:
REMARK  status: ('A' for Active; 'I' for Inactive)
REMARK    1  A    between atoms: C_3  and  N_4 
REMARK       I    between atoms: N_4  and  C_5 
REMARK       I    between atoms: C_5  and  N_6 
REMARK    2  A    between atoms: N_6  and  C_7 
REMARK    3  A    between atoms: C_7  and  C_8 
REMARK    4  A    between atoms: C_11  and  C_12 
ROOT
HETATM    1  N   UNL     1      25.358  45.718  52.406  1.00  0.00    -0.309 N 
HETATM    2  C   UNL     1      25.395  46.206  51.117  1.00  0.00     0.321 C 
HETATM    3  N   UNL     1      24.124  46.260  50.585  1.00  0.00    -0.335 N 
HETATM    4  O   UNL     1      26.375  46.621  50.516  1.00  0.00    -0.247 OA
HETATM    5  H   UNL     1      24.507  45.980  52.883  1.00  0.00     0.170 HD
HETATM    6  H   UNL     1      23.481  45.543  50.892  1.00  0.00     0.164 HD
ENDROOT
BRANCH   3   7
HETATM    7  C   UNL     1      23.902  46.862  49.284  1.00  0.00     0.213 C 
BRANCH   7   8
HETATM    8  C   UNL     1      23.229  48.185  49.353  1.00  0.00     0.190 A 
HETATM    9  O   UNL     1      23.980  49.290  49.625  1.00  0.00    -0.194 OA
HETATM   10  N   UNL     1      23.104  50.375  49.629  1.00  0.00    -0.106 NA
HETATM   11  C   UNL     1      21.905  49.823  49.382  1.00  0.00     0.189 A 
HETATM   12  N   UNL     1      21.954  48.458  49.182  1.00  0.00    -0.202 NA
BRANCH  11  13
HETATM   13  C   UNL     1      20.647  50.564  49.331  1.00  0.00     0.014 A 
HETATM   14  C   UNL     1      20.484  51.663  48.477  1.00  0.00     0.015 A 
HETATM   15  C   UNL     1      19.277  52.370  48.449  1.00  0.00     0.001 A 
HETATM   16  C   UNL     1      18.222  51.986  49.275  1.00  0.00     0.000 A 
HETATM   17  C   UNL     1      18.370  50.894  50.129  1.00  0.00     0.001 A 
HETATM   18  C   UNL     1      19.575  50.188  50.155  1.00  0.00     0.015 A 
ENDBRANCH  11  13
ENDBRANCH   7   8
ENDBRANCH   3   7
BRANCH   1  19
HETATM   19  C   UNL     1      26.495  45.575  53.238  1.00  0.00     0.042 A 
HETATM   20  C   UNL     1      26.867  46.483  54.245  1.00  0.00    -0.035 A 
HETATM   21  C   UNL     1      26.156  47.781  54.512  1.00  0.00     0.050 C 
HETATM   22  C   UNL     1      27.987  46.184  55.045  1.00  0.00     0.009 A 
HETATM   23  C   UNL     1      28.755  45.043  54.818  1.00  0.00     0.001 A 
HETATM   24  C   UNL     1      28.423  44.185  53.778  1.00  0.00     0.002 A 
HETATM   25  C   UNL     1      27.307  44.456  52.987  1.00  0.00     0.030 A 
ENDBRANCH   1  19
TORSDOF 4
ENDMDL
MODEL 6
REMARK VINA RESULT:      -8.6      3.603      7.843
REMARK  4 active torsions:
REMARK  status: ('A' for Active; 'I' for Inactive)
REMARK    1  A    between atoms: C_3  and  N_4 
REMARK       I    between atoms: N_4  and  C_5 
REMARK       I    between atoms: C_5  and  N_6 
REMARK    2  A    between atoms: N_6  and  C_7 
REMARK    3  A    between atoms: C_7  and  C_8 
REMARK    4  A    between atoms: C_11  and  C_12 
ROOT
HETATM    1  N   UNL     1      28.732  45.657  54.808  1.00  0.00    -0.309 N 
HETATM    2  C   UNL     1      27.450  45.193  54.602  1.00  0.00     0.321 C 
HETATM    3  N   UNL     1      26.871  45.837  53.529  1.00  0.00    -0.335 N 
HETATM    4  O   UNL     1      26.891  44.287  55.202  1.00  0.00    -0.247 OA
HETATM    5  H   UNL     1      29.178  45.924  53.942  1.00  0.00     0.170 HD
HETATM    6  H   UNL     1      27.146  46.798  53.384  1.00  0.00     0.164 HD
ENDROOT
BRANCH   3   7
HETATM    7  C   UNL     1      25.568  45.421  53.044  1.00  0.00     0.213 C 
BRANCH   7   8
HETATM    8  C   UNL     1      25.624  44.257  52.123  1.00  0.00     0.190 A 
HETATM    9  O   UNL     1      24.459  43.641  51.772  1.00  0.00    -0.194 OA
HETATM   10  N   UNL     1      24.803  42.598  50.914  1.00  0.00    -0.106 NA
HETATM   11  C   UNL     1      26.143  42.665  50.845  1.00  0.00     0.189 A 
HETATM   12  N   UNL     1      26.683  43.707  51.571  1.00  0.00    -0.202 NA
BRANCH  11  13
HETATM   13  C   UNL     1      26.980  41.738  50.089  1.00  0.00     0.014 A 
HETATM   14  C   UNL     1      27.043  41.787  48.689  1.00  0.00     0.015 A 
HETATM   15  C   UNL     1      27.840  40.883  47.980  1.00  0.00     0.001 A 
HETATM   16  C   UNL     1      28.583  39.921  48.662  1.00  0.00     0.000 A 
HETATM   17  C   UNL     1      28.532  39.861  50.053  1.00  0.00     0.001 A 
HETATM   18  C   UNL     1      27.736  40.764  50.762  1.00  0.00     0.015 A 
ENDBRANCH  11  13
ENDBRANCH   7   8
ENDBRANCH   3   7
BRANCH   1  19
HETATM   19  C   UNL     1      29.605  45.170  55.810  1.00  0.00     0.042 A 
HETATM   20  C   UNL     1      30.431  44.041  55.669  1.00  0.00    -0.035 A 
HETATM   21  C   UNL     1      30.430  43.141  54.465  1.00  0.00     0.050 C 
HETATM   22  C   UNL     1      31.303  43.706  56.725  1.00  0.00     0.009 A 
HETATM   23  C   UNL     1      31.316  44.435  57.913  1.00  0.00     0.001 A 
HETATM   24  C   UNL     1      30.449  45.507  58.072  1.00  0.00     0.002 A 
HETATM   25  C   UNL     1      29.591  45.865  57.031  1.00  0.00     0.030 A 
ENDBRANCH   1  19
TORSDOF 4
ENDMDL
MODEL 7
REMARK VINA RESULT:      -8.5      1.894      9.096
REMARK  4 active torsions:
REMARK  status: ('A' for Active; 'I' for Inactive)
REMARK    1  A    between atoms: C_3  and  N_4 
REMARK       I    between atoms: N_4  and  C_5 
REMARK       I    between atoms: C_5  and  N_6 
REMARK    2  A    between atoms: N_6  and  C_7 
REMARK    3  A    between atoms: C_7  and  C_8 
REMARK    4  A    between atoms: C_11  and  C_12 
ROOT
HETATM    1  N   UNL     1      26.737  43.981  53.208  1.00  0.00    -0.309 N 
HETATM    2  C   UNL     1      26.697  44.183  51.844  1.00  0.00     0.321 C 
HETATM    3  N   UNL     1      25.392  44.263  51.407  1.00  0.00    -0.335 N 
HETATM    4  O   UNL     1      27.650  44.355  51.099  1.00  0.00    -0.247 OA
HETATM    5  H   UNL     1      25.962  44.428  53.677  1.00  0.00     0.170 HD
HETATM    6  H   UNL     1      24.718  43.700  51.907  1.00  0.00     0.164 HD
ENDROOT
BRANCH   3   7
HETATM    7  C   UNL     1      25.104  44.601  50.026  1.00  0.00     0.213 C 
BRANCH   7   8
HETATM    8  C   UNL     1      24.767  46.035  49.827  1.00  0.00     0.190 A 
HETATM    9  O   UNL     1      25.685  46.980  50.179  1.00  0.00    -0.194 OA
HETATM   10  N   UNL     1      25.112  48.217  49.888  1.00  0.00    -0.106 NA
HETATM   11  C   UNL     1      23.896  47.907  49.411  1.00  0.00     0.189 A 
HETATM   12  N   UNL     1      23.660  46.549  49.339  1.00  0.00    -0.202 NA
BRANCH  11  13
HETATM   13  C   UNL     1      22.891  48.886  49.005  1.00  0.00     0.014 A 
HETATM   14  C   UNL     1      23.163  50.262  49.032  1.00  0.00     0.015 A 
HETATM   15  C   UNL     1      22.186  51.187  48.652  1.00  0.00     0.001 A 
HETATM   16  C   UNL     1      20.927  50.748  48.243  1.00  0.00     0.000 A 
HETATM   17  C   UNL     1      20.644  49.384  48.210  1.00  0.00     0.001 A 
HETATM   18  C   UNL     1      21.621  48.460  48.588  1.00  0.00     0.015 A 
ENDBRANCH  11  13
ENDBRANCH   7   8
ENDBRANCH   3   7
BRANCH   1  19
HETATM   19  C   UNL     1      27.929  43.892  53.966  1.00  0.00     0.042 A 
HETATM   20  C   UNL     1      28.744  42.749  54.041  1.00  0.00    -0.035 A 
HETATM   21  C   UNL     1      28.409  41.432  53.397  1.00  0.00     0.050 C 
HETATM   22  C   UNL     1      29.941  42.819  54.782  1.00  0.00     0.009 A 
HETATM   23  C   UNL     1      30.295  43.973  55.479  1.00  0.00     0.001 A 
HETATM   24  C   UNL     1      29.452  45.076  55.457  1.00  0.00     0.002 A 
HETATM   25  C   UNL     1      28.271  45.031  54.714  1.00  0.00     0.030 A 
ENDBRANCH   1  19
TORSDOF 4
ENDMDL
MODEL 8
REMARK VINA RESULT:      -8.2      2.385      3.754
REMARK  4 active torsions:
REMARK  status: ('A' for Active; 'I' for Inactive)
REMARK    1  A    between atoms: C_3  and  N_4 
REMARK       I    between atoms: N_4  and  C_5 
REMARK       I    between atoms: C_5  and  N_6 
REMARK    2  A    between atoms: N_6  and  C_7 
REMARK    3  A    between atoms: C_7  and  C_8 
REMARK    4  A    between atoms: C_11  and  C_12 
ROOT
HETATM    1  N   UNL     1      22.667  48.563  49.806  1.00  0.00    -0.309 N 
HETATM    2  C   UNL     1      23.321  47.415  49.407  1.00  0.00     0.321 C 
HETATM    3  N   UNL     1      24.292  47.072  50.324  1.00  0.00    -0.335 N 
HETATM    4  O   UNL     1      23.061  46.721  48.436  1.00  0.00    -0.247 OA
HETATM    5  H   UNL     1      22.610  48.632  50.812  1.00  0.00     0.170 HD
HETATM    6  H   UNL     1      24.749  47.838  50.798  1.00  0.00     0.164 HD
ENDROOT
BRANCH   3   7
HETATM    7  C   UNL     1      25.024  45.828  50.180  1.00  0.00     0.213 C 
BRANCH   7   8
HETATM    8  C   UNL     1      25.733  45.413  51.418  1.00  0.00     0.190 A 
HETATM    9  O   UNL     1      25.121  45.606  52.621  1.00  0.00    -0.194 OA
HETATM   10  N   UNL     1      26.000  45.133  53.595  1.00  0.00    -0.106 NA
HETATM   11  C   UNL     1      27.069  44.722  52.893  1.00  0.00     0.189 A 
HETATM   12  N   UNL     1      26.922  44.863  51.528  1.00  0.00    -0.202 NA
BRANCH  11  13
HETATM   13  C   UNL     1      28.289  44.181  53.486  1.00  0.00     0.014 A 
HETATM   14  C   UNL     1      28.701  44.554  54.773  1.00  0.00     0.015 A 
HETATM   15  C   UNL     1      29.878  44.036  55.321  1.00  0.00     0.001 A 
HETATM   16  C   UNL     1      30.657  43.140  54.589  1.00  0.00     0.000 A 
HETATM   17  C   UNL     1      30.258  42.760  53.309  1.00  0.00     0.001 A 
HETATM   18  C   UNL     1      29.081  43.277  52.762  1.00  0.00     0.015 A 
ENDBRANCH  11  13
ENDBRANCH   7   8
ENDBRANCH   3   7
BRANCH   1  19
HETATM   19  C   UNL     1      21.592  49.153  49.099  1.00  0.00     0.042 A 
HETATM   20  C   UNL     1      21.678  50.354  48.373  1.00  0.00    -0.035 A 
HETATM   21  C   UNL     1      22.904  51.224  48.325  1.00  0.00     0.050 C 
HETATM   22  C   UNL     1      20.545  50.795  47.659  1.00  0.00     0.009 A 
HETATM   23  C   UNL     1      19.340  50.097  47.710  1.00  0.00     0.001 A 
HETATM   24  C   UNL     1      19.242  48.948  48.484  1.00  0.00     0.002 A 
HETATM   25  C   UNL     1      20.358  48.487  49.183  1.00  0.00     0.030 A 
ENDBRANCH   1  19
TORSDOF 4
ENDMDL
MODEL 9
REMARK VINA RESULT:      -8.1      4.934      6.842
REMARK  4 active torsions:
REMARK  status: ('A' for Active; 'I' for Inactive)
REMARK    1  A    between atoms: C_3  and  N_4 
REMARK       I    between atoms: N_4  and  C_5 
REMARK       I    between atoms: C_5  and  N_6 
REMARK    2  A    between atoms: N_6  and  C_7 
REMARK    3  A    between atoms: C_7  and  C_8 
REMARK    4  A    between atoms: C_11  and  C_12 
ROOT
HETATM    1  N   UNL     1      26.611  40.051  50.456  1.00  0.00    -0.309 N 
HETATM    2  C   UNL     1      26.383  41.403  50.307  1.00  0.00     0.321 C 
HETATM    3  N   UNL     1      25.500  41.852  51.266  1.00  0.00    -0.335 N 
HETATM    4  O   UNL     1      26.923  42.156  49.509  1.00  0.00    -0.247 OA
HETATM    5  H   UNL     1      26.564  39.767  51.424  1.00  0.00     0.170 HD
HETATM    6  H   UNL     1      24.790  41.197  51.561  1.00  0.00     0.164 HD
ENDROOT
BRANCH   3   7
HETATM    7  C   UNL     1      25.210  43.269  51.386  1.00  0.00     0.213 C 
BRANCH   7   8
HETATM    8  C   UNL     1      26.113  43.979  52.328  1.00  0.00     0.190 A 
HETATM    9  O   UNL     1      25.950  45.321  52.507  1.00  0.00    -0.194 OA
HETATM   10  N   UNL     1      26.917  45.719  53.430  1.00  0.00    -0.106 NA
HETATM   11  C   UNL     1      27.588  44.588  53.703  1.00  0.00     0.189 A 
HETATM   12  N   UNL     1      27.094  43.479  53.047  1.00  0.00    -0.202 NA
BRANCH  11  13
HETATM   13  C   UNL     1      28.739  44.505  54.597  1.00  0.00     0.014 A 
HETATM   14  C   UNL     1      29.078  45.565  55.450  1.00  0.00     0.015 A 
HETATM   15  C   UNL     1      30.191  45.475  56.291  1.00  0.00     0.001 A 
HETATM   16  C   UNL     1      30.978  44.324  56.289  1.00  0.00     0.000 A 
HETATM   17  C   UNL     1      30.653  43.262  55.447  1.00  0.00     0.001 A 
HETATM   18  C   UNL     1      29.540  43.352  54.608  1.00  0.00     0.015 A 
ENDBRANCH  11  13
ENDBRANCH   7   8
ENDBRANCH   3   7
BRANCH   1  19
HETATM   19  C   UNL     1      27.497  39.298  49.650  1.00  0.00     0.042 A 
HETATM   20  C   UNL     1      27.211  38.857  48.346  1.00  0.00    -0.035 A 
HETATM   21  C   UNL     1      25.884  39.046  47.665  1.00  0.00     0.050 C 
HETATM   22  C   UNL     1      28.213  38.171  47.629  1.00  0.00     0.009 A 
HETATM   23  C   UNL     1      29.446  37.879  48.208  1.00  0.00     0.001 A 
HETATM   24  C   UNL     1      29.698  38.258  49.520  1.00  0.00     0.002 A 
HETATM   25  C   UNL     1      28.725  38.953  50.239  1.00  0.00     0.030 A 
ENDBRANCH   1  19
TORSDOF 4
ENDMDL
MODEL 10
REMARK VINA RESULT:      -7.9      3.232      4.983
REMARK  4 active torsions:
REMARK  status: ('A' for Active; 'I' for Inactive)
REMARK    1  A    between atoms: C_3  and  N_4 
REMARK       I    between atoms: N_4  and  C_5 
REMARK       I    between atoms: C_5  and  N_6 
REMARK    2  A    between atoms: N_6  and  C_7 
REMARK    3  A    between atoms: C_7  and  C_8 
REMARK    4  A    between atoms: C_11  and  C_12 
ROOT
HETATM    1  N   UNL     1      21.135  48.735  49.578  1.00  0.00    -0.309 N 
HETATM    2  C   UNL     1      22.331  48.370  48.997  1.00  0.00     0.321 C 
HETATM    3  N   UNL     1      23.276  48.107  49.966  1.00  0.00    -0.335 N 
HETATM    4  O   UNL     1      22.550  48.207  47.806  1.00  0.00    -0.247 OA
HETATM    5  H   UNL     1      20.990  48.271  50.463  1.00  0.00     0.170 HD
HETATM    6  H   UNL     1      23.212  48.654  50.812  1.00  0.00     0.164 HD
ENDROOT
BRANCH   3   7
HETATM    7  C   UNL     1      24.576  47.579  49.594  1.00  0.00     0.213 C 
BRANCH   7   8
HETATM    8  C   UNL     1      25.066  46.517  50.509  1.00  0.00     0.190 A 
HETATM    9  O   UNL     1      24.274  45.431  50.738  1.00  0.00    -0.194 OA
HETATM   10  N   UNL     1      24.972  44.609  51.622  1.00  0.00    -0.106 NA
HETATM   11  C   UNL     1      26.108  45.284  51.862  1.00  0.00     0.189 A 
HETATM   12  N   UNL     1      26.206  46.469  51.163  1.00  0.00    -0.202 NA
BRANCH  11  13
HETATM   13  C   UNL     1      27.157  44.840  52.776  1.00  0.00     0.014 A 
HETATM   14  C   UNL     1      28.049  43.818  52.420  1.00  0.00     0.015 A 
HETATM   15  C   UNL     1      29.039  43.396  53.312  1.00  0.00     0.001 A 
HETATM   16  C   UNL     1      29.150  43.989  54.568  1.00  0.00     0.000 A 
HETATM   17  C   UNL     1      28.271  45.007  54.935  1.00  0.00     0.001 A 
HETATM   18  C   UNL     1      27.282  45.429  54.044  1.00  0.00     0.015 A 
ENDBRANCH  11  13
ENDBRANCH   7   8
ENDBRANCH   3   7
BRANCH   1  19
HETATM   19  C   UNL     1      19.955  49.034  48.854  1.00  0.00     0.042 A 
HETATM   20  C   UNL     1      19.655  50.291  48.299  1.00  0.00    -0.035 A 
HETATM   21  C   UNL     1      20.508  51.516  48.481  1.00  0.00     0.050 C 
HETATM   22  C   UNL     1      18.474  50.432  47.544  1.00  0.00     0.009 A 
HETATM   23  C   UNL     1      17.582  49.371  47.389  1.00  0.00     0.001 A 
HETATM   24  C   UNL     1      17.851  48.152  47.996  1.00  0.00     0.002 A 
HETATM   25  C   UNL     1      19.024  47.989  48.733  1.00  0.00     0.030 A 
ENDBRANCH   1  19
TORSDOF 4
ENDMDL
