MODEL 1
REMARK VINA RESULT:      -9.4      0.000      0.000
REMARK  9 active torsions:
REMARK  status: ('A' for Active; 'I' for Inactive)
REMARK    1  A    between atoms: C_2  and  C_3 
REMARK    2  A    between atoms: C_4  and  O_5 
REMARK    3  A    between atoms: C_6  and  C_7 
REMARK    4  A    between atoms: C_12  and  C_13 
REMARK    5  A    between atoms: C_13  and  C_14 
REMARK    6  A    between atoms: C_14  and  N_15 
REMARK    7  A    between atoms: N_20  and  C_21 
REMARK    8  A    between atoms: C_21  and  C_22 
REMARK    9  A    between atoms: C_22  and  N_23 
ROOT
HETATM    1  N   UNL     1      24.407  47.165  49.726  1.00  0.00    -0.174 N 
HETATM    2  C   UNL     1      23.276  47.693  49.129  1.00  0.00     0.681 A 
HETATM    3  N   UNL     1      22.050  47.179  49.262  1.00  0.00    -0.234 N 
HETATM    4  H   UNL     1      21.196  47.620  48.965  1.00  0.00     0.174 HD
HETATM    5  H   UNL     1      21.972  46.207  49.583  1.00  0.00     0.174 HD
HETATM    6  N   UNL     1      23.537  48.853  48.382  1.00  0.00    -0.180 N 
HETATM    7  C   UNL     1      24.941  49.084  48.578  1.00  0.00     0.079 A 
HETATM    8  C   UNL     1      25.469  48.041  49.355  1.00  0.00     0.079 A 
HETATM    9  C   UNL     1      25.732  50.135  48.165  1.00  0.00     0.032 A 
HETATM   10  C   UNL     1      27.090  50.094  48.500  1.00  0.00     0.002 A 
HETATM   11  C   UNL     1      27.621  49.031  49.253  1.00  0.00     0.002 A 
HETATM   12  C   UNL     1      26.803  47.993  49.702  1.00  0.00     0.032 A 
ENDROOT
BRANCH   1  13
HETATM   13  C   UNL     1      24.517  46.105  50.743  1.00  0.00     0.231 C 
BRANCH  13  14
HETATM   14  C   UNL     1      24.364  44.693  50.234  1.00  0.00     0.178 C 
HETATM   15  O   UNL     1      23.305  44.314  49.730  1.00  0.00    -0.290 OA
BRANCH  14  16
HETATM   16  C   UNL     1      25.519  43.758  50.405  1.00  0.00     0.013 A 
HETATM   17  C   UNL     1      26.374  43.853  51.508  1.00  0.00     0.026 A 
HETATM   18  C   UNL     1      27.459  42.972  51.693  1.00  0.00    -0.016 A 
HETATM   19  C   UNL     1      27.610  41.953  50.725  1.00  0.00     0.079 A 
HETATM   20  C   UNL     1      26.791  41.836  49.574  1.00  0.00    -0.016 A 
HETATM   21  C   UNL     1      25.731  42.758  49.453  1.00  0.00     0.026 A 
BRANCH  18  22
HETATM   22  C   UNL     1      28.337  43.137  52.964  1.00  0.00    -0.021 C 
HETATM   23  C   UNL     1      29.866  43.106  52.740  1.00  0.00     0.019 C 
HETATM   24  C   UNL     1      28.060  44.500  53.656  1.00  0.00     0.019 C 
HETATM   25  C   UNL     1      27.982  42.003  53.948  1.00  0.00     0.019 C 
ENDBRANCH  18  22
BRANCH  19  26
HETATM   26  O   UNL     1      28.529  40.972  50.953  1.00  0.00    -0.360 OA
HETATM   27  H   UNL     1      29.249  41.106  50.311  1.00  0.00     0.217 HD
ENDBRANCH  19  26
BRANCH  20  28
HETATM   28  C   UNL     1      26.966  40.713  48.514  1.00  0.00    -0.021 C 
HETATM   29  C   UNL     1      25.928  40.936  47.397  1.00  0.00     0.019 C 
HETATM   30  C   UNL     1      26.793  39.284  49.086  1.00  0.00     0.019 C 
HETATM   31  C   UNL     1      28.374  40.720  47.863  1.00  0.00     0.019 C 
ENDBRANCH  20  28
ENDBRANCH  14  16
ENDBRANCH  13  14
ENDBRANCH   1  13
BRANCH   6  32
HETATM   32  C   UNL     1      22.565  49.793  47.806  1.00  0.00     0.175 C 
BRANCH  32  33
HETATM   33  C   UNL     1      21.909  50.807  48.774  1.00  0.00     0.256 C 
BRANCH  33  34
HETATM   34  N   UNL     1      20.396  50.725  48.852  1.00  0.00    -0.066 N 
HETATM   35  H   UNL     1      20.042  50.100  48.115  1.00  0.00     0.280 HD
HETATM   36  C   UNL     1      19.983  50.063  50.191  1.00  0.00     0.261 C 
HETATM   37  C   UNL     1      18.460  49.989  50.296  1.00  0.00     0.195 C 
HETATM   38  O   UNL     1      17.886  51.293  50.176  1.00  0.00    -0.388 OA
HETATM   39  C   UNL     1      18.172  51.884  48.907  1.00  0.00     0.195 C 
HETATM   40  C   UNL     1      19.683  52.070  48.721  1.00  0.00     0.261 C 
ENDBRANCH  33  34
ENDBRANCH  32  33
ENDBRANCH   6  32
TORSDOF 9
ENDMDL
MODEL 2
REMARK VINA RESULT:      -9.2      1.807      3.823
REMARK  9 active torsions:
REMARK  status: ('A' for Active; 'I' for Inactive)
REMARK    1  A    between atoms: C_2  and  C_3 
REMARK    2  A    between atoms: C_4  and  O_5 
REMARK    3  A    between atoms: C_6  and  C_7 
REMARK    4  A    between atoms: C_12  and  C_13 
REMARK    5  A    between atoms: C_13  and  C_14 
REMARK    6  A    between atoms: C_14  and  N_15 
REMARK    7  A    between atoms: N_20  and  C_21 
REMARK    8  A    between atoms: C_21  and  C_22 
REMARK    9  A    between atoms: C_22  and  N_23 
ROOT
HETATM    1  N   UNL     1      24.267  47.383  49.700  1.00  0.00    -0.174 N 
HETATM    2  C   UNL     1      23.171  47.950  49.074  1.00  0.00     0.681 A 
HETATM    3  N   UNL     1      21.921  47.496  49.196  1.00  0.00    -0.234 N 
HETATM    4  H   UNL     1      21.094  47.971  48.875  1.00  0.00     0.174 HD
HETATM    5  H   UNL     1      21.792  46.537  49.536  1.00  0.00     0.174 HD
HETATM    6  N   UNL     1      23.500  49.080  48.307  1.00  0.00    -0.180 N 
HETATM    7  C   UNL     1      24.909  49.249  48.522  1.00  0.00     0.079 A 
HETATM    8  C   UNL     1      25.374  48.200  49.330  1.00  0.00     0.079 A 
HETATM    9  C   UNL     1      25.755  50.254  48.100  1.00  0.00     0.032 A 
HETATM   10  C   UNL     1      27.104  50.156  48.459  1.00  0.00     0.002 A 
HETATM   11  C   UNL     1      27.572  49.086  49.244  1.00  0.00     0.002 A 
HETATM   12  C   UNL     1      26.699  48.097  49.700  1.00  0.00     0.032 A 
ENDROOT
BRANCH   1  13
HETATM   13  C   UNL     1      24.310  46.342  50.742  1.00  0.00     0.231 C 
BRANCH  13  14
HETATM   14  C   UNL     1      25.377  45.289  50.569  1.00  0.00     0.178 C 
HETATM   15  O   UNL     1      25.459  44.638  49.525  1.00  0.00    -0.290 OA
BRANCH  14  16
HETATM   16  C   UNL     1      26.298  45.027  51.718  1.00  0.00     0.013 A 
HETATM   17  C   UNL     1      27.047  43.848  51.796  1.00  0.00     0.026 A 
HETATM   18  C   UNL     1      27.930  43.591  52.864  1.00  0.00    -0.016 A 
HETATM   19  C   UNL     1      28.053  44.611  53.834  1.00  0.00     0.079 A 
HETATM   20  C   UNL     1      27.291  45.807  53.817  1.00  0.00    -0.016 A 
HETATM   21  C   UNL     1      26.423  45.991  52.721  1.00  0.00     0.026 A 
BRANCH  18  22
HETATM   22  C   UNL     1      28.742  42.266  52.849  1.00  0.00    -0.021 C 
HETATM   23  C   UNL     1      30.267  42.404  53.065  1.00  0.00     0.019 C 
HETATM   24  C   UNL     1      28.262  41.309  53.975  1.00  0.00     0.019 C 
HETATM   25  C   UNL     1      28.519  41.577  51.487  1.00  0.00     0.019 C 
ENDBRANCH  18  22
BRANCH  19  26
HETATM   26  O   UNL     1      29.021  44.489  54.786  1.00  0.00    -0.360 OA
HETATM   27  H   UNL     1      28.927  45.251  55.384  1.00  0.00     0.217 HD
ENDBRANCH  19  26
BRANCH  20  28
HETATM   28  C   UNL     1      27.432  46.923  54.890  1.00  0.00    -0.021 C 
HETATM   29  C   UNL     1      28.631  47.813  54.507  1.00  0.00     0.019 C 
HETATM   30  C   UNL     1      27.643  46.383  56.326  1.00  0.00     0.019 C 
HETATM   31  C   UNL     1      26.177  47.829  54.978  1.00  0.00     0.019 C 
ENDBRANCH  20  28
ENDBRANCH  14  16
ENDBRANCH  13  14
ENDBRANCH   1  13
BRANCH   6  32
HETATM   32  C   UNL     1      22.582  50.052  47.694  1.00  0.00     0.175 C 
BRANCH  32  33
HETATM   33  C   UNL     1      21.891  51.061  48.643  1.00  0.00     0.256 C 
BRANCH  33  34
HETATM   34  N   UNL     1      20.393  50.872  48.791  1.00  0.00    -0.066 N 
HETATM   35  H   UNL     1      20.069  50.137  48.148  1.00  0.00     0.280 HD
HETATM   36  C   UNL     1      20.078  50.347  50.215  1.00  0.00     0.261 C 
HETATM   37  C   UNL     1      18.570  50.168  50.390  1.00  0.00     0.195 C 
HETATM   38  O   UNL     1      17.888  51.400  50.140  1.00  0.00    -0.388 OA
HETATM   39  C   UNL     1      18.085  51.854  48.801  1.00  0.00     0.195 C 
HETATM   40  C   UNL     1      19.569  52.132  48.533  1.00  0.00     0.261 C 
ENDBRANCH  33  34
ENDBRANCH  32  33
ENDBRANCH   6  32
TORSDOF 9
ENDMDL
MODEL 3
REMARK VINA RESULT:      -9.2      0.188      3.083
REMARK  9 active torsions:
REMARK  status: ('A' for Active; 'I' for Inactive)
REMARK    1  A    between atoms: C_2  and  C_3 
REMARK    2  A    between atoms: C_4  and  O_5 
REMARK    3  A    between atoms: C_6  and  C_7 
REMARK    4  A    between atoms: C_12  and  C_13 
REMARK    5  A    between atoms: C_13  and  C_14 
REMARK    6  A    between atoms: C_14  and  N_15 
REMARK    7  A    between atoms: N_20  and  C_21 
REMARK    8  A    between atoms: C_21  and  C_22 
REMARK    9  A    between atoms: C_22  and  N_23 
ROOT
HETATM    1  N   UNL     1      24.382  47.046  49.691  1.00  0.00    -0.174 N 
HETATM    2  C   UNL     1      23.243  47.571  49.107  1.00  0.00     0.681 A 
HETATM    3  N   UNL     1      22.024  47.041  49.234  1.00  0.00    -0.234 N 
HETATM    4  H   UNL     1      21.164  47.478  48.947  1.00  0.00     0.174 HD
HETATM    5  H   UNL     1      21.957  46.063  49.538  1.00  0.00     0.174 HD
HETATM    6  N   UNL     1      23.490  48.747  48.379  1.00  0.00    -0.180 N 
HETATM    7  C   UNL     1      24.891  48.990  48.576  1.00  0.00     0.079 A 
HETATM    8  C   UNL     1      25.432  47.939  49.333  1.00  0.00     0.079 A 
HETATM    9  C   UNL     1      25.670  50.057  48.179  1.00  0.00     0.032 A 
HETATM   10  C   UNL     1      27.029  50.024  48.510  1.00  0.00     0.002 A 
HETATM   11  C   UNL     1      27.574  48.954  49.243  1.00  0.00     0.002 A 
HETATM   12  C   UNL     1      26.768  47.899  49.676  1.00  0.00     0.032 A 
ENDROOT
BRANCH   1  13
HETATM   13  C   UNL     1      24.506  45.969  50.690  1.00  0.00     0.231 C 
BRANCH  13  14
HETATM   14  C   UNL     1      24.315  44.567  50.166  1.00  0.00     0.178 C 
HETATM   15  O   UNL     1      23.256  44.230  49.634  1.00  0.00    -0.290 OA
BRANCH  14  16
HETATM   16  C   UNL     1      25.431  43.590  50.356  1.00  0.00     0.013 A 
HETATM   17  C   UNL     1      25.705  42.604  49.402  1.00  0.00     0.026 A 
HETATM   18  C   UNL     1      26.762  41.684  49.557  1.00  0.00    -0.016 A 
HETATM   19  C   UNL     1      27.562  41.839  50.712  1.00  0.00     0.079 A 
HETATM   20  C   UNL     1      27.305  42.799  51.723  1.00  0.00    -0.016 A 
HETATM   21  C   UNL     1      26.226  43.680  51.501  1.00  0.00     0.026 A 
BRANCH  18  22
HETATM   22  C   UNL     1      27.007  40.643  48.430  1.00  0.00    -0.021 C 
HETATM   23  C   UNL     1      28.409  40.669  47.778  1.00  0.00     0.019 C 
HETATM   24  C   UNL     1      26.841  39.194  48.967  1.00  0.00     0.019 C 
HETATM   25  C   UNL     1      25.965  40.879  47.318  1.00  0.00     0.019 C 
ENDBRANCH  18  22
BRANCH  19  26
HETATM   26  O   UNL     1      28.698  41.093  50.819  1.00  0.00    -0.360 OA
HETATM   27  H   UNL     1      29.376  41.532  50.277  1.00  0.00     0.217 HD
ENDBRANCH  19  26
BRANCH  20  28
HETATM   28  C   UNL     1      28.190  42.961  52.990  1.00  0.00    -0.021 C 
HETATM   29  C   UNL     1      27.708  44.205  53.761  1.00  0.00     0.019 C 
HETATM   30  C   UNL     1      29.700  43.113  52.679  1.00  0.00     0.019 C 
HETATM   31  C   UNL     1      28.095  41.742  53.945  1.00  0.00     0.019 C 
ENDBRANCH  20  28
ENDBRANCH  14  16
ENDBRANCH  13  14
ENDBRANCH   1  13
BRANCH   6  32
HETATM   32  C   UNL     1      22.505  49.686  47.822  1.00  0.00     0.175 C 
BRANCH  32  33
HETATM   33  C   UNL     1      21.855  50.688  48.806  1.00  0.00     0.256 C 
BRANCH  33  34
HETATM   34  N   UNL     1      20.340  50.635  48.860  1.00  0.00    -0.066 N 
HETATM   35  H   UNL     1      19.979  50.137  48.035  1.00  0.00     0.280 HD
HETATM   36  C   UNL     1      19.897  49.791  50.082  1.00  0.00     0.261 C 
HETATM   37  C   UNL     1      18.371  49.741  50.164  1.00  0.00     0.195 C 
HETATM   38  O   UNL     1      17.831  51.063  50.237  1.00  0.00    -0.388 OA
HETATM   39  C   UNL     1      18.145  51.829  49.074  1.00  0.00     0.195 C 
HETATM   40  C   UNL     1      19.662  52.002  48.928  1.00  0.00     0.261 C 
ENDBRANCH  33  34
ENDBRANCH  32  33
ENDBRANCH   6  32
TORSDOF 9
ENDMDL
MODEL 4
REMARK VINA RESULT:      -9.1      1.864      3.040
REMARK  9 active torsions:
REMARK  status: ('A' for Active; 'I' for Inactive)
REMARK    1  A    between atoms: C_2  and  C_3 
REMARK    2  A    between atoms: C_4  and  O_5 
REMARK    3  A    between atoms: C_6  and  C_7 
REMARK    4  A    between atoms: C_12  and  C_13 
REMARK    5  A    between atoms: C_13  and  C_14 
REMARK    6  A    between atoms: C_14  and  N_15 
REMARK    7  A    between atoms: N_20  and  C_21 
REMARK    8  A    between atoms: C_21  and  C_22 
REMARK    9  A    between atoms: C_22  and  N_23 
ROOT
HETATM    1  N   UNL     1      24.303  47.395  49.790  1.00  0.00    -0.174 N 
HETATM    2  C   UNL     1      23.222  47.986  49.160  1.00  0.00     0.681 A 
HETATM    3  N   UNL     1      21.960  47.571  49.291  1.00  0.00    -0.234 N 
HETATM    4  H   UNL     1      21.145  48.066  48.968  1.00  0.00     0.174 HD
HETATM    5  H   UNL     1      21.803  46.619  49.642  1.00  0.00     0.174 HD
HETATM    6  N   UNL     1      23.580  49.098  48.379  1.00  0.00    -0.180 N 
HETATM    7  C   UNL     1      24.995  49.228  48.589  1.00  0.00     0.079 A 
HETATM    8  C   UNL     1      25.432  48.175  49.407  1.00  0.00     0.079 A 
HETATM    9  C   UNL     1      25.869  50.203  48.153  1.00  0.00     0.032 A 
HETATM   10  C   UNL     1      27.216  50.069  48.509  1.00  0.00     0.002 A 
HETATM   11  C   UNL     1      27.655  48.995  49.304  1.00  0.00     0.002 A 
HETATM   12  C   UNL     1      26.754  48.037  49.774  1.00  0.00     0.032 A 
ENDROOT
BRANCH   1  13
HETATM   13  C   UNL     1      24.319  46.365  50.843  1.00  0.00     0.231 C 
BRANCH  13  14
HETATM   14  C   UNL     1      25.321  45.252  50.653  1.00  0.00     0.178 C 
HETATM   15  O   UNL     1      25.294  44.543  49.645  1.00  0.00    -0.290 OA
BRANCH  14  16
HETATM   16  C   UNL     1      26.312  45.008  51.745  1.00  0.00     0.013 A 
HETATM   17  C   UNL     1      26.526  45.950  52.757  1.00  0.00     0.026 A 
HETATM   18  C   UNL     1      27.446  45.731  53.803  1.00  0.00    -0.016 A 
HETATM   19  C   UNL     1      28.110  44.484  53.801  1.00  0.00     0.079 A 
HETATM   20  C   UNL     1      27.953  43.511  52.781  1.00  0.00    -0.016 A 
HETATM   21  C   UNL     1      27.021  43.804  51.763  1.00  0.00     0.026 A 
BRANCH  18  22
HETATM   22  C   UNL     1      27.594  46.823  54.898  1.00  0.00    -0.021 C 
HETATM   23  C   UNL     1      27.905  46.314  56.324  1.00  0.00     0.019 C 
HETATM   24  C   UNL     1      28.756  47.797  54.557  1.00  0.00     0.019 C 
HETATM   25  C   UNL     1      26.279  47.627  54.961  1.00  0.00     0.019 C 
ENDBRANCH  18  22
BRANCH  19  26
HETATM   26  O   UNL     1      28.872  44.152  54.882  1.00  0.00    -0.360 OA
HETATM   27  H   UNL     1      29.709  44.640  54.797  1.00  0.00     0.217 HD
ENDBRANCH  19  26
BRANCH  20  28
HETATM   28  C   UNL     1      28.689  42.143  52.786  1.00  0.00    -0.021 C 
HETATM   29  C   UNL     1      30.191  42.403  53.018  1.00  0.00     0.019 C 
HETATM   30  C   UNL     1      28.513  41.335  51.476  1.00  0.00     0.019 C 
HETATM   31  C   UNL     1      28.191  41.200  53.913  1.00  0.00     0.019 C 
ENDBRANCH  20  28
ENDBRANCH  14  16
ENDBRANCH  13  14
ENDBRANCH   1  13
BRANCH   6  32
HETATM   32  C   UNL     1      22.689  50.089  47.759  1.00  0.00     0.175 C 
BRANCH  32  33
HETATM   33  C   UNL     1      22.088  51.172  48.686  1.00  0.00     0.256 C 
BRANCH  33  34
HETATM   34  N   UNL     1      20.572  51.225  48.704  1.00  0.00    -0.066 N 
HETATM   35  H   UNL     1      20.253  52.159  48.413  1.00  0.00     0.280 HD
HETATM   36  C   UNL     1      20.009  50.244  47.644  1.00  0.00     0.261 C 
HETATM   37  C   UNL     1      18.480  50.270  47.660  1.00  0.00     0.195 C 
HETATM   38  O   UNL     1      17.988  49.948  48.963  1.00  0.00    -0.388 OA
HETATM   39  C   UNL     1      18.415  50.896  49.941  1.00  0.00     0.195 C 
HETATM   40  C   UNL     1      19.945  50.906  50.060  1.00  0.00     0.261 C 
ENDBRANCH  33  34
ENDBRANCH  32  33
ENDBRANCH   6  32
TORSDOF 9
ENDMDL
MODEL 5
REMARK VINA RESULT:      -8.6      2.349      4.557
REMARK  9 active torsions:
REMARK  status: ('A' for Active; 'I' for Inactive)
REMARK    1  A    between atoms: C_2  and  C_3 
REMARK    2  A    between atoms: C_4  and  O_5 
REMARK    3  A    between atoms: C_6  and  C_7 
REMARK    4  A    between atoms: C_12  and  C_13 
REMARK    5  A    between atoms: C_13  and  C_14 
REMARK    6  A    between atoms: C_14  and  N_15 
REMARK    7  A    between atoms: N_20  and  C_21 
REMARK    8  A    between atoms: C_21  and  C_22 
REMARK    9  A    between atoms: C_22  and  N_23 
ROOT
HETATM    1  N   UNL     1      21.999  48.731  48.949  1.00  0.00    -0.174 N 
HETATM    2  C   UNL     1      21.677  50.001  49.392  1.00  0.00     0.681 A 
HETATM    3  N   UNL     1      22.568  50.979  49.575  1.00  0.00    -0.234 N 
HETATM    4  H   UNL     1      22.347  51.945  49.752  1.00  0.00     0.174 HD
HETATM    5  H   UNL     1      23.556  50.716  49.662  1.00  0.00     0.174 HD
HETATM    6  N   UNL     1      20.300  50.176  49.608  1.00  0.00    -0.180 N 
HETATM    7  C   UNL     1      19.725  48.920  49.217  1.00  0.00     0.079 A 
HETATM    8  C   UNL     1      20.757  48.039  48.859  1.00  0.00     0.079 A 
HETATM    9  C   UNL     1      18.401  48.543  49.122  1.00  0.00     0.032 A 
HETATM   10  C   UNL     1      18.130  47.233  48.712  1.00  0.00     0.002 A 
HETATM   11  C   UNL     1      19.169  46.343  48.384  1.00  0.00     0.002 A 
HETATM   12  C   UNL     1      20.504  46.749  48.443  1.00  0.00     0.032 A 
ENDROOT
BRANCH   1  13
HETATM   13  C   UNL     1      23.276  48.227  48.413  1.00  0.00     0.231 C 
BRANCH  13  14
HETATM   14  C   UNL     1      24.405  48.119  49.409  1.00  0.00     0.178 C 
HETATM   15  O   UNL     1      25.148  49.078  49.627  1.00  0.00    -0.290 OA
BRANCH  14  16
HETATM   16  C   UNL     1      24.622  46.802  50.083  1.00  0.00     0.013 A 
HETATM   17  C   UNL     1      25.137  46.727  51.382  1.00  0.00     0.026 A 
HETATM   18  C   UNL     1      25.335  45.495  52.039  1.00  0.00    -0.016 A 
HETATM   19  C   UNL     1      24.942  44.337  51.330  1.00  0.00     0.079 A 
HETATM   20  C   UNL     1      24.448  44.360  50.001  1.00  0.00    -0.016 A 
HETATM   21  C   UNL     1      24.284  45.628  49.406  1.00  0.00     0.026 A 
BRANCH  18  22
HETATM   22  C   UNL     1      25.884  45.512  53.492  1.00  0.00    -0.021 C 
HETATM   23  C   UNL     1      25.086  44.686  54.527  1.00  0.00     0.019 C 
HETATM   24  C   UNL     1      27.327  44.938  53.547  1.00  0.00     0.019 C 
HETATM   25  C   UNL     1      25.916  46.975  53.980  1.00  0.00     0.019 C 
ENDBRANCH  18  22
BRANCH  19  26
HETATM   26  O   UNL     1      24.946  43.142  51.985  1.00  0.00    -0.360 OA
HETATM   27  H   UNL     1      24.244  43.187  52.658  1.00  0.00     0.217 HD
ENDBRANCH  19  26
BRANCH  20  28
HETATM   28  C   UNL     1      24.020  43.081  49.229  1.00  0.00    -0.021 C 
HETATM   29  C   UNL     1      22.771  42.495  49.918  1.00  0.00     0.019 C 
HETATM   30  C   UNL     1      25.120  41.993  49.168  1.00  0.00     0.019 C 
HETATM   31  C   UNL     1      23.655  43.370  47.749  1.00  0.00     0.019 C 
ENDBRANCH  20  28
ENDBRANCH  14  16
ENDBRANCH  13  14
ENDBRANCH   1  13
BRANCH   6  32
HETATM   32  C   UNL     1      19.578  51.432  49.860  1.00  0.00     0.175 C 
BRANCH  32  33
HETATM   33  C   UNL     1      19.267  52.322  48.632  1.00  0.00     0.256 C 
BRANCH  33  34
HETATM   34  N   UNL     1      17.832  52.804  48.543  1.00  0.00    -0.066 N 
HETATM   35  H   UNL     1      17.805  53.740  48.116  1.00  0.00     0.280 HD
HETATM   36  C   UNL     1      17.038  51.885  47.581  1.00  0.00     0.261 C 
HETATM   37  C   UNL     1      15.582  52.345  47.492  1.00  0.00     0.195 C 
HETATM   38  O   UNL     1      14.983  52.361  48.790  1.00  0.00    -0.388 OA
HETATM   39  C   UNL     1      15.640  53.276  49.667  1.00  0.00     0.195 C 
HETATM   40  C   UNL     1      17.103  52.869  49.884  1.00  0.00     0.261 C 
ENDBRANCH  33  34
ENDBRANCH  32  33
ENDBRANCH   6  32
TORSDOF 9
ENDMDL
MODEL 6
REMARK VINA RESULT:      -8.6      1.349      1.563
REMARK  9 active torsions:
REMARK  status: ('A' for Active; 'I' for Inactive)
REMARK    1  A    between atoms: C_2  and  C_3 
REMARK    2  A    between atoms: C_4  and  O_5 
REMARK    3  A    between atoms: C_6  and  C_7 
REMARK    4  A    between atoms: C_12  and  C_13 
REMARK    5  A    between atoms: C_13  and  C_14 
REMARK    6  A    between atoms: C_14  and  N_15 
REMARK    7  A    between atoms: N_20  and  C_21 
REMARK    8  A    between atoms: C_21  and  C_22 
REMARK    9  A    between atoms: C_22  and  N_23 
ROOT
HETATM    1  N   UNL     1      24.652  46.702  49.561  1.00  0.00    -0.174 N 
HETATM    2  C   UNL     1      23.439  47.190  49.108  1.00  0.00     0.681 A 
HETATM    3  N   UNL     1      22.281  46.533  49.213  1.00  0.00    -0.234 N 
HETATM    4  H   UNL     1      21.371  46.920  49.029  1.00  0.00     0.174 HD
HETATM    5  H   UNL     1      22.319  45.520  49.377  1.00  0.00     0.174 HD
HETATM    6  N   UNL     1      23.538  48.473  48.544  1.00  0.00    -0.180 N 
HETATM    7  C   UNL     1      24.921  48.820  48.711  1.00  0.00     0.079 A 
HETATM    8  C   UNL     1      25.596  47.733  49.287  1.00  0.00     0.079 A 
HETATM    9  C   UNL     1      25.577  50.002  48.435  1.00  0.00     0.032 A 
HETATM   10  C   UNL     1      26.951  50.055  48.697  1.00  0.00     0.002 A 
HETATM   11  C   UNL     1      27.630  48.952  49.246  1.00  0.00     0.002 A 
HETATM   12  C   UNL     1      26.947  47.775  49.560  1.00  0.00     0.032 A 
ENDROOT
BRANCH   1  13
HETATM   13  C   UNL     1      24.928  45.516  50.390  1.00  0.00     0.231 C 
BRANCH  13  14
HETATM   14  C   UNL     1      25.088  44.216  49.639  1.00  0.00     0.178 C 
HETATM   15  O   UNL     1      24.340  43.933  48.701  1.00  0.00    -0.290 OA
BRANCH  14  16
HETATM   16  C   UNL     1      26.147  43.265  50.100  1.00  0.00     0.013 A 
HETATM   17  C   UNL     1      26.881  43.505  51.266  1.00  0.00     0.026 A 
HETATM   18  C   UNL     1      27.872  42.614  51.724  1.00  0.00    -0.016 A 
HETATM   19  C   UNL     1      28.055  41.436  50.963  1.00  0.00     0.079 A 
HETATM   20  C   UNL     1      27.360  41.165  49.757  1.00  0.00    -0.016 A 
HETATM   21  C   UNL     1      26.389  42.107  49.359  1.00  0.00     0.026 A 
BRANCH  18  22
HETATM   22  C   UNL     1      28.616  42.950  53.046  1.00  0.00    -0.021 C 
HETATM   23  C   UNL     1      30.150  42.759  53.028  1.00  0.00     0.019 C 
HETATM   24  C   UNL     1      28.400  44.437  53.441  1.00  0.00     0.019 C 
HETATM   25  C   UNL     1      28.043  42.055  54.164  1.00  0.00     0.019 C 
ENDBRANCH  18  22
BRANCH  19  26
HETATM   26  O   UNL     1      28.870  40.463  51.459  1.00  0.00    -0.360 OA
HETATM   27  H   UNL     1      28.355  39.976  52.126  1.00  0.00     0.217 HD
ENDBRANCH  19  26
BRANCH  20  28
HETATM   28  C   UNL     1      27.568  39.868  48.927  1.00  0.00    -0.021 C 
HETATM   29  C   UNL     1      26.906  40.064  47.549  1.00  0.00     0.019 C 
HETATM   30  C   UNL     1      26.980  38.600  49.594  1.00  0.00     0.019 C 
HETATM   31  C   UNL     1      29.067  39.543  48.692  1.00  0.00     0.019 C 
ENDBRANCH  20  28
ENDBRANCH  14  16
ENDBRANCH  13  14
ENDBRANCH   1  13
BRANCH   6  32
HETATM   32  C   UNL     1      22.443  49.380  48.170  1.00  0.00     0.175 C 
BRANCH  32  33
HETATM   33  C   UNL     1      21.415  49.733  49.272  1.00  0.00     0.256 C 
BRANCH  33  34
HETATM   34  N   UNL     1      19.977  49.389  48.933  1.00  0.00    -0.066 N 
HETATM   35  H   UNL     1      19.447  50.252  48.749  1.00  0.00     0.280 HD
HETATM   36  C   UNL     1      19.936  48.586  47.609  1.00  0.00     0.261 C 
HETATM   37  C   UNL     1      18.494  48.214  47.260  1.00  0.00     0.195 C 
HETATM   38  O   UNL     1      17.899  47.469  48.326  1.00  0.00    -0.388 OA
HETATM   39  C   UNL     1      17.837  48.227  49.534  1.00  0.00     0.195 C 
HETATM   40  C   UNL     1      19.244  48.600  50.017  1.00  0.00     0.261 C 
ENDBRANCH  33  34
ENDBRANCH  32  33
ENDBRANCH   6  32
TORSDOF 9
ENDMDL
MODEL 7
REMARK VINA RESULT:      -8.6      1.735      3.859
REMARK  9 active torsions:
REMARK  status: ('A' for Active; 'I' for Inactive)
REMARK    1  A    between atoms: C_2  and  C_3 
REMARK    2  A    between atoms: C_4  and  O_5 
REMARK    3  A    between atoms: C_6  and  C_7 
REMARK    4  A    between atoms: C_12  and  C_13 
REMARK    5  A    between atoms: C_13  and  C_14 
REMARK    6  A    between atoms: C_14  and  N_15 
REMARK    7  A    between atoms: N_20  and  C_21 
REMARK    8  A    between atoms: C_21  and  C_22 
REMARK    9  A    between atoms: C_22  and  N_23 
ROOT
HETATM    1  N   UNL     1      24.015  46.905  49.479  1.00  0.00    -0.174 N 
HETATM    2  C   UNL     1      22.939  46.140  49.065  1.00  0.00     0.681 A 
HETATM    3  N   UNL     1      22.747  44.865  49.413  1.00  0.00    -0.234 N 
HETATM    4  H   UNL     1      21.908  44.335  49.251  1.00  0.00     0.174 HD
HETATM    5  H   UNL     1      23.554  44.341  49.769  1.00  0.00     0.174 HD
HETATM    6  N   UNL     1      22.038  46.851  48.253  1.00  0.00    -0.180 N 
HETATM    7  C   UNL     1      22.585  48.178  48.207  1.00  0.00     0.079 A 
HETATM    8  C   UNL     1      23.798  48.194  48.913  1.00  0.00     0.079 A 
HETATM    9  C   UNL     1      22.075  49.326  47.639  1.00  0.00     0.032 A 
HETATM   10  C   UNL     1      22.839  50.494  47.744  1.00  0.00     0.002 A 
HETATM   11  C   UNL     1      24.068  50.500  48.428  1.00  0.00     0.002 A 
HETATM   12  C   UNL     1      24.555  49.340  49.034  1.00  0.00     0.032 A 
ENDROOT
BRANCH   1  13
HETATM   13  C   UNL     1      25.040  46.600  50.493  1.00  0.00     0.231 C 
BRANCH  13  14
HETATM   14  C   UNL     1      26.357  46.094  49.957  1.00  0.00     0.178 C 
HETATM   15  O   UNL     1      27.034  46.783  49.192  1.00  0.00    -0.290 OA
BRANCH  14  16
HETATM   16  C   UNL     1      26.788  44.715  50.345  1.00  0.00     0.013 A 
HETATM   17  C   UNL     1      26.540  43.616  49.516  1.00  0.00     0.026 A 
HETATM   18  C   UNL     1      26.951  42.311  49.858  1.00  0.00    -0.016 A 
HETATM   19  C   UNL     1      27.671  42.179  51.066  1.00  0.00     0.079 A 
HETATM   20  C   UNL     1      27.919  43.256  51.956  1.00  0.00    -0.016 A 
HETATM   21  C   UNL     1      27.470  44.529  51.550  1.00  0.00     0.026 A 
BRANCH  18  22
HETATM   22  C   UNL     1      26.656  41.158  48.860  1.00  0.00    -0.021 C 
HETATM   23  C   UNL     1      26.327  39.785  49.490  1.00  0.00     0.019 C 
HETATM   24  C   UNL     1      25.428  41.495  47.969  1.00  0.00     0.019 C 
HETATM   25  C   UNL     1      27.889  40.977  47.951  1.00  0.00     0.019 C 
ENDBRANCH  18  22
BRANCH  19  26
HETATM   26  O   UNL     1      28.243  40.975  51.353  1.00  0.00    -0.360 OA
HETATM   27  H   UNL     1      29.129  40.981  50.949  1.00  0.00     0.217 HD
ENDBRANCH  19  26
BRANCH  20  28
HETATM   28  C   UNL     1      28.710  43.100  53.283  1.00  0.00    -0.021 C 
HETATM   29  C   UNL     1      28.543  44.395  54.102  1.00  0.00     0.019 C 
HETATM   30  C   UNL     1      30.221  42.823  53.079  1.00  0.00     0.019 C 
HETATM   31  C   UNL     1      28.197  41.920  54.150  1.00  0.00     0.019 C 
ENDBRANCH  20  28
ENDBRANCH  14  16
ENDBRANCH  13  14
ENDBRANCH   1  13
BRANCH   6  32
HETATM   32  C   UNL     1      20.695  46.438  47.821  1.00  0.00     0.175 C 
BRANCH  32  33
HETATM   33  C   UNL     1      19.583  46.427  48.898  1.00  0.00     0.256 C 
BRANCH  33  34
HETATM   34  N   UNL     1      18.728  47.679  48.943  1.00  0.00    -0.066 N 
HETATM   35  H   UNL     1      17.782  47.443  49.271  1.00  0.00     0.280 HD
HETATM   36  C   UNL     1      19.302  48.658  50.000  1.00  0.00     0.261 C 
HETATM   37  C   UNL     1      18.463  49.935  50.047  1.00  0.00     0.195 C 
HETATM   38  O   UNL     1      18.416  50.550  48.757  1.00  0.00    -0.388 OA
HETATM   39  C   UNL     1      17.801  49.702  47.787  1.00  0.00     0.195 C 
HETATM   40  C   UNL     1      18.604  48.408  47.606  1.00  0.00     0.261 C 
ENDBRANCH  33  34
ENDBRANCH  32  33
ENDBRANCH   6  32
TORSDOF 9
ENDMDL
MODEL 8
REMARK VINA RESULT:      -8.5      2.018      4.439
REMARK  9 active torsions:
REMARK  status: ('A' for Active; 'I' for Inactive)
REMARK    1  A    between atoms: C_2  and  C_3 
REMARK    2  A    between atoms: C_4  and  O_5 
REMARK    3  A    between atoms: C_6  and  C_7 
REMARK    4  A    between atoms: C_12  and  C_13 
REMARK    5  A    between atoms: C_13  and  C_14 
REMARK    6  A    between atoms: C_14  and  N_15 
REMARK    7  A    between atoms: N_20  and  C_21 
REMARK    8  A    between atoms: C_21  and  C_22 
REMARK    9  A    between atoms: C_22  and  N_23 
ROOT
HETATM    1  N   UNL     1      23.575  45.730  49.711  1.00  0.00    -0.174 N 
HETATM    2  C   UNL     1      22.975  46.862  49.189  1.00  0.00     0.681 A 
HETATM    3  N   UNL     1      23.195  48.101  49.638  1.00  0.00    -0.234 N 
HETATM    4  H   UNL     1      22.890  48.948  49.187  1.00  0.00     0.174 HD
HETATM    5  H   UNL     1      23.600  48.205  50.575  1.00  0.00     0.174 HD
HETATM    6  N   UNL     1      22.122  46.584  48.108  1.00  0.00    -0.180 N 
HETATM    7  C   UNL     1      22.249  45.166  47.920  1.00  0.00     0.079 A 
HETATM    8  C   UNL     1      23.094  44.651  48.915  1.00  0.00     0.079 A 
HETATM    9  C   UNL     1      21.719  44.351  46.942  1.00  0.00     0.032 A 
HETATM   10  C   UNL     1      22.009  42.984  47.012  1.00  0.00     0.002 A 
HETATM   11  C   UNL     1      22.832  42.467  48.029  1.00  0.00     0.002 A 
HETATM   12  C   UNL     1      23.397  43.307  48.990  1.00  0.00     0.032 A 
ENDROOT
BRANCH   1  13
HETATM   13  C   UNL     1      24.676  45.623  50.684  1.00  0.00     0.231 C 
BRANCH  13  14
HETATM   14  C   UNL     1      26.044  45.369  50.098  1.00  0.00     0.178 C 
HETATM   15  O   UNL     1      26.554  46.172  49.315  1.00  0.00    -0.290 OA
BRANCH  14  16
HETATM   16  C   UNL     1      26.734  44.092  50.457  1.00  0.00     0.013 A 
HETATM   17  C   UNL     1      26.730  42.994  49.590  1.00  0.00     0.026 A 
HETATM   18  C   UNL     1      27.387  41.788  49.906  1.00  0.00    -0.016 A 
HETATM   19  C   UNL     1      28.093  41.761  51.130  1.00  0.00     0.079 A 
HETATM   20  C   UNL     1      28.099  42.834  52.057  1.00  0.00    -0.016 A 
HETATM   21  C   UNL     1      27.413  44.006  51.675  1.00  0.00     0.026 A 
BRANCH  18  22
HETATM   22  C   UNL     1      27.352  40.633  48.867  1.00  0.00    -0.021 C 
HETATM   23  C   UNL     1      28.722  40.181  48.310  1.00  0.00     0.019 C 
HETATM   24  C   UNL     1      26.726  39.351  49.483  1.00  0.00     0.019 C 
HETATM   25  C   UNL     1      26.483  41.081  47.674  1.00  0.00     0.019 C 
ENDBRANCH  18  22
BRANCH  19  26
HETATM   26  O   UNL     1      28.888  40.687  51.397  1.00  0.00    -0.360 OA
HETATM   27  H   UNL     1      29.335  40.870  52.243  1.00  0.00     0.217 HD
ENDBRANCH  19  26
BRANCH  20  28
HETATM   28  C   UNL     1      28.877  42.795  53.401  1.00  0.00    -0.021 C 
HETATM   29  C   UNL     1      28.487  41.504  54.148  1.00  0.00     0.019 C 
HETATM   30  C   UNL     1      28.598  44.012  54.318  1.00  0.00     0.019 C 
HETATM   31  C   UNL     1      30.415  42.782  53.202  1.00  0.00     0.019 C 
ENDBRANCH  20  28
ENDBRANCH  14  16
ENDBRANCH  13  14
ENDBRANCH   1  13
BRANCH   6  32
HETATM   32  C   UNL     1      21.501  47.541  47.180  1.00  0.00     0.175 C 
BRANCH  32  33
HETATM   33  C   UNL     1      20.055  47.990  47.497  1.00  0.00     0.256 C 
BRANCH  33  34
HETATM   34  N   UNL     1      19.887  48.710  48.821  1.00  0.00    -0.066 N 
HETATM   35  H   UNL     1      20.793  48.755  49.310  1.00  0.00     0.280 HD
HETATM   36  C   UNL     1      19.482  50.183  48.560  1.00  0.00     0.261 C 
HETATM   37  C   UNL     1      19.291  50.921  49.886  1.00  0.00     0.195 C 
HETATM   38  O   UNL     1      18.311  50.259  50.690  1.00  0.00    -0.388 OA
HETATM   39  C   UNL     1      18.710  48.930  51.025  1.00  0.00     0.195 C 
HETATM   40  C   UNL     1      18.867  48.072  49.763  1.00  0.00     0.261 C 
ENDBRANCH  33  34
ENDBRANCH  32  33
ENDBRANCH   6  32
TORSDOF 9
ENDMDL
MODEL 9
REMARK VINA RESULT:      -8.5      3.514      9.933
REMARK  9 active torsions:
REMARK  status: ('A' for Active; 'I' for Inactive)
REMARK    1  A    between atoms: C_2  and  C_3 
REMARK    2  A    between atoms: C_4  and  O_5 
REMARK    3  A    between atoms: C_6  and  C_7 
REMARK    4  A    between atoms: C_12  and  C_13 
REMARK    5  A    between atoms: C_13  and  C_14 
REMARK    6  A    between atoms: C_14  and  N_15 
REMARK    7  A    between atoms: N_20  and  C_21 
REMARK    8  A    between atoms: C_21  and  C_22 
REMARK    9  A    between atoms: C_22  and  N_23 
ROOT
HETATM    1  N   UNL     1      25.942  45.010  52.087  1.00  0.00    -0.174 N 
HETATM    2  C   UNL     1      26.368  45.690  53.214  1.00  0.00     0.681 A 
HETATM    3  N   UNL     1      25.899  46.882  53.591  1.00  0.00    -0.234 N 
HETATM    4  H   UNL     1      26.080  47.328  54.474  1.00  0.00     0.174 HD
HETATM    5  H   UNL     1      25.412  47.449  52.887  1.00  0.00     0.174 HD
HETATM    6  N   UNL     1      27.335  44.985  53.949  1.00  0.00    -0.180 N 
HETATM    7  C   UNL     1      27.477  43.746  53.239  1.00  0.00     0.079 A 
HETATM    8  C   UNL     1      26.666  43.782  52.094  1.00  0.00     0.079 A 
HETATM    9  C   UNL     1      28.215  42.624  53.554  1.00  0.00     0.032 A 
HETATM   10  C   UNL     1      28.169  41.547  52.660  1.00  0.00     0.002 A 
HETATM   11  C   UNL     1      27.378  41.600  51.499  1.00  0.00     0.002 A 
HETATM   12  C   UNL     1      26.602  42.725  51.211  1.00  0.00     0.032 A 
ENDROOT
BRANCH   1  13
HETATM   13  C   UNL     1      24.808  45.304  51.193  1.00  0.00     0.231 C 
BRANCH  13  14
HETATM   14  C   UNL     1      24.945  46.552  50.354  1.00  0.00     0.178 C 
HETATM   15  O   UNL     1      25.978  47.224  50.386  1.00  0.00    -0.290 OA
BRANCH  14  16
HETATM   16  C   UNL     1      23.773  46.971  49.525  1.00  0.00     0.013 A 
HETATM   17  C   UNL     1      23.022  46.038  48.803  1.00  0.00     0.026 A 
HETATM   18  C   UNL     1      21.906  46.412  48.028  1.00  0.00    -0.016 A 
HETATM   19  C   UNL     1      21.556  47.782  48.055  1.00  0.00     0.079 A 
HETATM   20  C   UNL     1      22.305  48.770  48.743  1.00  0.00    -0.016 A 
HETATM   21  C   UNL     1      23.413  48.320  49.491  1.00  0.00     0.026 A 
BRANCH  18  22
HETATM   22  C   UNL     1      21.116  45.301  47.284  1.00  0.00    -0.021 C 
HETATM   23  C   UNL     1      19.652  45.092  47.736  1.00  0.00     0.019 C 
HETATM   24  C   UNL     1      21.026  45.607  45.763  1.00  0.00     0.019 C 
HETATM   25  C   UNL     1      21.864  43.965  47.474  1.00  0.00     0.019 C 
ENDBRANCH  18  22
BRANCH  19  26
HETATM   26  O   UNL     1      20.387  48.165  47.470  1.00  0.00    -0.360 OA
HETATM   27  H   UNL     1      20.558  48.232  46.514  1.00  0.00     0.217 HD
ENDBRANCH  19  26
BRANCH  20  28
HETATM   28  C   UNL     1      21.913  50.274  48.766  1.00  0.00    -0.021 C 
HETATM   29  C   UNL     1      23.204  51.111  48.679  1.00  0.00     0.019 C 
HETATM   30  C   UNL     1      21.124  50.693  50.031  1.00  0.00     0.019 C 
HETATM   31  C   UNL     1      21.006  50.673  47.572  1.00  0.00     0.019 C 
ENDBRANCH  20  28
ENDBRANCH  14  16
ENDBRANCH  13  14
ENDBRANCH   1  13
BRANCH   6  32
HETATM   32  C   UNL     1      27.843  45.289  55.295  1.00  0.00     0.175 C 
BRANCH  32  33
HETATM   33  C   UNL     1      29.077  46.219  55.387  1.00  0.00     0.256 C 
BRANCH  33  34
HETATM   34  N   UNL     1      30.254  45.641  56.149  1.00  0.00    -0.066 N 
HETATM   35  H   UNL     1      31.098  46.201  55.964  1.00  0.00     0.280 HD
HETATM   36  C   UNL     1      29.997  45.768  57.672  1.00  0.00     0.261 C 
HETATM   37  C   UNL     1      31.166  45.174  58.457  1.00  0.00     0.195 C 
HETATM   38  O   UNL     1      31.372  43.807  58.088  1.00  0.00    -0.388 OA
HETATM   39  C   UNL     1      31.708  43.675  56.707  1.00  0.00     0.195 C 
HETATM   40  C   UNL     1      30.567  44.183  55.817  1.00  0.00     0.261 C 
ENDBRANCH  33  34
ENDBRANCH  32  33
ENDBRANCH   6  32
TORSDOF 9
ENDMDL
MODEL 10
REMARK VINA RESULT:      -8.5      3.178      9.669
REMARK  9 active torsions:
REMARK  status: ('A' for Active; 'I' for Inactive)
REMARK    1  A    between atoms: C_2  and  C_3 
REMARK    2  A    between atoms: C_4  and  O_5 
REMARK    3  A    between atoms: C_6  and  C_7 
REMARK    4  A    between atoms: C_12  and  C_13 
REMARK    5  A    between atoms: C_13  and  C_14 
REMARK    6  A    between atoms: C_14  and  N_15 
REMARK    7  A    between atoms: N_20  and  C_21 
REMARK    8  A    between atoms: C_21  and  C_22 
REMARK    9  A    between atoms: C_22  and  N_23 
ROOT
HETATM    1  N   UNL     1      25.873  44.470  52.169  1.00  0.00    -0.174 N 
HETATM    2  C   UNL     1      26.102  43.411  51.309  1.00  0.00     0.681 A 
HETATM    3  N   UNL     1      25.330  43.118  50.259  1.00  0.00    -0.234 N 
HETATM    4  H   UNL     1      25.553  42.452  49.538  1.00  0.00     0.174 HD
HETATM    5  H   UNL     1      24.382  43.509  50.239  1.00  0.00     0.174 HD
HETATM    6  N   UNL     1      27.257  42.679  51.633  1.00  0.00    -0.180 N 
HETATM    7  C   UNL     1      27.808  43.379  52.759  1.00  0.00     0.079 A 
HETATM    8  C   UNL     1      26.948  44.434  53.103  1.00  0.00     0.079 A 
HETATM    9  C   UNL     1      28.991  43.174  53.437  1.00  0.00     0.032 A 
HETATM   10  C   UNL     1      29.273  44.019  54.516  1.00  0.00     0.002 A 
HETATM   11  C   UNL     1      28.394  45.056  54.877  1.00  0.00     0.002 A 
HETATM   12  C   UNL     1      27.219  45.281  54.157  1.00  0.00     0.032 A 
ENDROOT
BRANCH   1  13
HETATM   13  C   UNL     1      24.912  45.581  52.045  1.00  0.00     0.231 C 
BRANCH  13  14
HETATM   14  C   UNL     1      25.231  46.603  50.981  1.00  0.00     0.178 C 
HETATM   15  O   UNL     1      26.313  47.193  50.977  1.00  0.00    -0.290 OA
BRANCH  14  16
HETATM   16  C   UNL     1      24.176  46.911  49.966  1.00  0.00     0.013 A 
HETATM   17  C   UNL     1      23.785  48.228  49.701  1.00  0.00     0.026 A 
HETATM   18  C   UNL     1      22.804  48.538  48.738  1.00  0.00    -0.016 A 
HETATM   19  C   UNL     1      22.265  47.448  48.019  1.00  0.00     0.079 A 
HETATM   20  C   UNL     1      22.604  46.094  48.274  1.00  0.00    -0.016 A 
HETATM   21  C   UNL     1      23.588  45.861  49.257  1.00  0.00     0.026 A 
BRANCH  18  22
HETATM   22  C   UNL     1      22.456  50.033  48.492  1.00  0.00    -0.021 C 
HETATM   23  C   UNL     1      21.167  50.304  47.683  1.00  0.00     0.019 C 
HETATM   24  C   UNL     1      22.250  50.783  49.837  1.00  0.00     0.019 C 
HETATM   25  C   UNL     1      23.633  50.685  47.738  1.00  0.00     0.019 C 
ENDBRANCH  18  22
BRANCH  19  26
HETATM   26  O   UNL     1      21.449  47.708  46.959  1.00  0.00    -0.360 OA
HETATM   27  H   UNL     1      22.012  48.065  46.250  1.00  0.00     0.217 HD
ENDBRANCH  19  26
BRANCH  20  28
HETATM   28  C   UNL     1      22.006  44.901  47.479  1.00  0.00    -0.021 C 
HETATM   29  C   UNL     1      22.492  43.592  48.131  1.00  0.00     0.019 C 
HETATM   30  C   UNL     1      22.395  44.894  45.980  1.00  0.00     0.019 C 
HETATM   31  C   UNL     1      20.454  44.891  47.494  1.00  0.00     0.019 C 
ENDBRANCH  20  28
ENDBRANCH  14  16
ENDBRANCH  13  14
ENDBRANCH   1  13
BRANCH   6  32
HETATM   32  C   UNL     1      27.925  41.646  50.828  1.00  0.00     0.175 C 
BRANCH  32  33
HETATM   33  C   UNL     1      27.195  40.290  50.679  1.00  0.00     0.256 C 
BRANCH  33  34
HETATM   34  N   UNL     1      28.099  39.109  50.380  1.00  0.00    -0.066 N 
HETATM   35  H   UNL     1      27.547  38.240  50.375  1.00  0.00     0.280 HD
HETATM   36  C   UNL     1      28.669  39.246  48.945  1.00  0.00     0.261 C 
HETATM   37  C   UNL     1      29.599  38.074  48.631  1.00  0.00     0.195 C 
HETATM   38  O   UNL     1      30.654  38.002  49.594  1.00  0.00    -0.388 OA
HETATM   39  C   UNL     1      30.156  37.777  50.913  1.00  0.00     0.195 C 
HETATM   40  C   UNL     1      29.257  38.936  51.361  1.00  0.00     0.261 C 
ENDBRANCH  33  34
ENDBRANCH  32  33
ENDBRANCH   6  32
TORSDOF 9
ENDMDL
