MODEL 1
REMARK VINA RESULT:      -9.5      0.000      0.000
REMARK  7 active torsions:
REMARK  status: ('A' for Active; 'I' for Inactive)
REMARK    1  A    between atoms: C_4  and  N_5 
REMARK    2  A    between atoms: N_5  and  C_6 
REMARK    3  A    between atoms: C_6  and  C_7 
REMARK    4  A    between atoms: C_7  and  N_8 
REMARK       I    between atoms: N_8  and  C_9 
REMARK    5  A    between atoms: C_9  and  C_10 
REMARK       I    between atoms: C_10  and  N_11 
REMARK    6  A    between atoms: N_11  and  C_12 
REMARK    7  A    between atoms: N_15  and  C_16 
ROOT
HETATM    1  C   UNL     1      24.556  44.610  50.850  1.00  0.00     0.314 C 
HETATM    2  N   UNL     1      24.497  45.503  49.810  1.00  0.00    -0.313 N 
HETATM    3  O   UNL     1      23.646  44.136  51.516  1.00  0.00    -0.262 OA
HETATM    4  H   UNL     1      25.404  45.750  49.403  1.00  0.00     0.169 HD
ENDROOT
BRANCH   1   5
HETATM    5  C   UNL     1      26.003  44.159  51.154  1.00  0.00     0.309 C 
HETATM    6  N   UNL     1      26.089  42.898  51.697  1.00  0.00    -0.351 N 
HETATM    7  H   UNL     1      25.209  42.419  51.877  1.00  0.00     0.162 HD
HETATM    8  O   UNL     1      26.941  44.896  50.889  1.00  0.00    -0.262 OA
BRANCH   6   9
HETATM    9  C   UNL     1      27.352  42.250  51.979  1.00  0.00     0.142 C 
BRANCH   9  10
HETATM   10  C   UNL     1      27.898  42.559  53.383  1.00  0.00     0.139 C 
BRANCH  10  11
HETATM   11  N   UNL     1      28.814  43.698  53.325  1.00  0.00    -0.388 N 
HETATM   12  H   UNL     1      29.483  43.652  52.560  1.00  0.00     0.159 HD
BRANCH  11  13
HETATM   13  C   UNL     1      29.417  44.180  54.491  1.00  0.00     0.028 A 
HETATM   14  C   UNL     1      30.401  43.489  55.208  1.00  0.00     0.035 A 
HETATM   15  C   UNL     1      30.925  43.992  56.411  1.00  0.00    -0.060 A 
HETATM   16  C   UNL     1      32.008  43.260  57.147  1.00  0.00     0.048 C 
HETATM   17  C   UNL     1      30.436  45.200  56.919  1.00  0.00     0.007 A 
HETATM   18  C   UNL     1      29.426  45.879  56.246  1.00  0.00     0.003 A 
HETATM   19  C   UNL     1      28.916  45.365  55.053  1.00  0.00     0.029 A 
ENDBRANCH  11  13
ENDBRANCH  10  11
ENDBRANCH   9  10
ENDBRANCH   6   9
ENDBRANCH   1   5
BRANCH   2  20
HETATM   20  C   UNL     1      23.425  46.114  49.225  1.00  0.00     0.124 A 
HETATM   21  C   UNL     1      23.313  47.608  49.301  1.00  0.00     0.291 A 
HETATM   22  O   UNL     1      24.134  48.290  49.898  1.00  0.00    -0.264 OA
HETATM   23  N   UNL     1      22.126  47.955  48.655  1.00  0.00    -0.234 N 
HETATM   24  N   UNL     1      21.522  46.778  48.130  1.00  0.00    -0.193 NA
HETATM   25  C   UNL     1      21.187  46.881  46.698  1.00  0.00     0.143 C 
HETATM   26  C   UNL     1      22.341  45.704  48.543  1.00  0.00     0.037 A 
HETATM   27  C   UNL     1      21.955  44.304  48.189  1.00  0.00     0.066 C 
BRANCH  23  28
HETATM   28  C   UNL     1      21.381  49.142  48.883  1.00  0.00     0.055 A 
HETATM   29  C   UNL     1      20.240  49.128  49.696  1.00  0.00     0.031 A 
HETATM   30  C   UNL     1      19.504  50.295  49.926  1.00  0.00     0.002 A 
HETATM   31  C   UNL     1      19.894  51.494  49.338  1.00  0.00     0.000 A 
HETATM   32  C   UNL     1      21.020  51.528  48.521  1.00  0.00     0.002 A 
HETATM   33  C   UNL     1      21.757  50.360  48.296  1.00  0.00     0.031 A 
ENDBRANCH  23  28
ENDBRANCH   2  20
TORSDOF 7
ENDMDL
MODEL 2
REMARK VINA RESULT:      -9.0      2.175     10.598
REMARK  7 active torsions:
REMARK  status: ('A' for Active; 'I' for Inactive)
REMARK    1  A    between atoms: C_4  and  N_5 
REMARK    2  A    between atoms: N_5  and  C_6 
REMARK    3  A    between atoms: C_6  and  C_7 
REMARK    4  A    between atoms: C_7  and  N_8 
REMARK       I    between atoms: N_8  and  C_9 
REMARK    5  A    between atoms: C_9  and  C_10 
REMARK       I    between atoms: C_10  and  N_11 
REMARK    6  A    between atoms: N_11  and  C_12 
REMARK    7  A    between atoms: N_15  and  C_16 
ROOT
HETATM    1  C   UNL     1      25.766  47.040  50.246  1.00  0.00     0.314 C 
HETATM    2  N   UNL     1      25.463  46.907  51.577  1.00  0.00    -0.313 N 
HETATM    3  O   UNL     1      26.529  46.380  49.555  1.00  0.00    -0.262 OA
HETATM    4  H   UNL     1      24.782  47.584  51.934  1.00  0.00     0.169 HD
ENDROOT
BRANCH   1   5
HETATM    5  C   UNL     1      24.975  48.189  49.578  1.00  0.00     0.309 C 
HETATM    6  N   UNL     1      23.620  48.139  49.812  1.00  0.00    -0.351 N 
HETATM    7  H   UNL     1      23.280  47.347  50.352  1.00  0.00     0.162 HD
HETATM    8  O   UNL     1      25.566  49.045  48.936  1.00  0.00    -0.262 OA
BRANCH   6   9
HETATM    9  C   UNL     1      22.707  49.163  49.351  1.00  0.00     0.142 C 
BRANCH   9  10
HETATM   10  C   UNL     1      21.333  48.614  48.932  1.00  0.00     0.139 C 
BRANCH  10  11
HETATM   11  N   UNL     1      20.340  48.905  49.965  1.00  0.00    -0.388 N 
HETATM   12  H   UNL     1      20.000  48.081  50.455  1.00  0.00     0.159 HD
BRANCH  11  13
HETATM   13  C   UNL     1      19.300  49.805  49.712  1.00  0.00     0.028 A 
HETATM   14  C   UNL     1      18.107  49.461  49.065  1.00  0.00     0.035 A 
HETATM   15  C   UNL     1      17.122  50.422  48.777  1.00  0.00    -0.060 A 
HETATM   16  C   UNL     1      15.831  50.031  48.120  1.00  0.00     0.048 C 
HETATM   17  C   UNL     1      17.348  51.757  49.123  1.00  0.00     0.007 A 
HETATM   18  C   UNL     1      18.546  52.128  49.724  1.00  0.00     0.003 A 
HETATM   19  C   UNL     1      19.514  51.161  50.002  1.00  0.00     0.029 A 
ENDBRANCH  11  13
ENDBRANCH  10  11
ENDBRANCH   9  10
ENDBRANCH   6   9
ENDBRANCH   1   5
BRANCH   2  20
HETATM   20  C   UNL     1      25.918  46.013  52.506  1.00  0.00     0.124 A 
HETATM   21  C   UNL     1      26.793  46.510  53.618  1.00  0.00     0.291 A 
HETATM   22  O   UNL     1      27.136  47.680  53.701  1.00  0.00    -0.264 OA
HETATM   23  N   UNL     1      27.130  45.397  54.390  1.00  0.00    -0.234 N 
HETATM   24  N   UNL     1      26.472  44.250  53.863  1.00  0.00    -0.193 NA
HETATM   25  C   UNL     1      25.706  43.498  54.874  1.00  0.00     0.143 C 
HETATM   26  C   UNL     1      25.790  44.690  52.708  1.00  0.00     0.037 A 
HETATM   27  C   UNL     1      25.026  43.706  51.882  1.00  0.00     0.066 C 
BRANCH  23  28
HETATM   28  C   UNL     1      28.275  45.288  55.222  1.00  0.00     0.055 A 
HETATM   29  C   UNL     1      28.392  46.058  56.387  1.00  0.00     0.031 A 
HETATM   30  C   UNL     1      29.517  45.952  57.211  1.00  0.00     0.002 A 
HETATM   31  C   UNL     1      30.549  45.080  56.877  1.00  0.00     0.000 A 
HETATM   32  C   UNL     1      30.456  44.314  55.720  1.00  0.00     0.002 A 
HETATM   33  C   UNL     1      29.327  44.418  54.900  1.00  0.00     0.031 A 
ENDBRANCH  23  28
ENDBRANCH   2  20
TORSDOF 7
ENDMDL
MODEL 3
REMARK VINA RESULT:      -8.9      2.069     10.491
REMARK  7 active torsions:
REMARK  status: ('A' for Active; 'I' for Inactive)
REMARK    1  A    between atoms: C_4  and  N_5 
REMARK    2  A    between atoms: N_5  and  C_6 
REMARK    3  A    between atoms: C_6  and  C_7 
REMARK    4  A    between atoms: C_7  and  N_8 
REMARK       I    between atoms: N_8  and  C_9 
REMARK    5  A    between atoms: C_9  and  C_10 
REMARK       I    between atoms: C_10  and  N_11 
REMARK    6  A    between atoms: N_11  and  C_12 
REMARK    7  A    between atoms: N_15  and  C_16 
ROOT
HETATM    1  C   UNL     1      25.894  47.078  49.839  1.00  0.00     0.314 C 
HETATM    2  N   UNL     1      25.603  46.093  50.749  1.00  0.00    -0.313 N 
HETATM    3  O   UNL     1      26.968  47.375  49.336  1.00  0.00    -0.262 OA
HETATM    4  H   UNL     1      24.617  46.035  51.020  1.00  0.00     0.169 HD
ENDROOT
BRANCH   1   5
HETATM    5  C   UNL     1      24.636  47.868  49.409  1.00  0.00     0.309 C 
HETATM    6  N   UNL     1      24.917  49.068  48.799  1.00  0.00    -0.351 N 
HETATM    7  H   UNL     1      25.899  49.326  48.731  1.00  0.00     0.162 HD
HETATM    8  O   UNL     1      23.525  47.399  49.603  1.00  0.00    -0.262 OA
BRANCH   6   9
HETATM    9  C   UNL     1      23.890  49.924  48.245  1.00  0.00     0.142 C 
BRANCH   9  10
HETATM   10  C   UNL     1      23.162  50.770  49.303  1.00  0.00     0.139 C 
BRANCH  10  11
HETATM   11  N   UNL     1      21.897  50.134  49.670  1.00  0.00    -0.388 N 
HETATM   12  H   UNL     1      21.926  49.117  49.648  1.00  0.00     0.159 HD
BRANCH  11  13
HETATM   13  C   UNL     1      20.689  50.614  49.157  1.00  0.00     0.028 A 
HETATM   14  C   UNL     1      20.265  50.418  47.837  1.00  0.00     0.035 A 
HETATM   15  C   UNL     1      19.070  50.981  47.356  1.00  0.00    -0.060 A 
HETATM   16  C   UNL     1      18.608  50.728  45.952  1.00  0.00     0.048 C 
HETATM   17  C   UNL     1      18.297  51.777  48.208  1.00  0.00     0.007 A 
HETATM   18  C   UNL     1      18.724  52.023  49.508  1.00  0.00     0.003 A 
HETATM   19  C   UNL     1      19.914  51.456  49.970  1.00  0.00     0.029 A 
ENDBRANCH  11  13
ENDBRANCH  10  11
ENDBRANCH   9  10
ENDBRANCH   6   9
ENDBRANCH   1   5
BRANCH   2  20
HETATM   20  C   UNL     1      26.415  45.174  51.352  1.00  0.00     0.124 A 
HETATM   21  C   UNL     1      26.859  45.416  52.764  1.00  0.00     0.291 A 
HETATM   22  O   UNL     1      26.543  46.424  53.379  1.00  0.00    -0.264 OA
HETATM   23  N   UNL     1      27.690  44.350  53.112  1.00  0.00    -0.234 N 
HETATM   24  N   UNL     1      27.743  43.430  52.026  1.00  0.00    -0.193 NA
HETATM   25  C   UNL     1      27.434  42.043  52.419  1.00  0.00     0.143 C 
HETATM   26  C   UNL     1      26.981  44.010  50.988  1.00  0.00     0.037 A 
HETATM   27  C   UNL     1      26.872  43.308  49.673  1.00  0.00     0.066 C 
BRANCH  23  28
HETATM   28  C   UNL     1      28.689  44.379  54.119  1.00  0.00     0.055 A 
HETATM   29  C   UNL     1      29.675  43.386  54.181  1.00  0.00     0.031 A 
HETATM   30  C   UNL     1      30.664  43.412  55.170  1.00  0.00     0.002 A 
HETATM   31  C   UNL     1      30.676  44.430  56.119  1.00  0.00     0.000 A 
HETATM   32  C   UNL     1      29.701  45.421  56.080  1.00  0.00     0.002 A 
HETATM   33  C   UNL     1      28.716  45.395  55.087  1.00  0.00     0.031 A 
ENDBRANCH  23  28
ENDBRANCH   2  20
TORSDOF 7
ENDMDL
MODEL 4
REMARK VINA RESULT:      -8.8      1.833      2.712
REMARK  7 active torsions:
REMARK  status: ('A' for Active; 'I' for Inactive)
REMARK    1  A    between atoms: C_4  and  N_5 
REMARK    2  A    between atoms: N_5  and  C_6 
REMARK    3  A    between atoms: C_6  and  C_7 
REMARK    4  A    between atoms: C_7  and  N_8 
REMARK       I    between atoms: N_8  and  C_9 
REMARK    5  A    between atoms: C_9  and  C_10 
REMARK       I    between atoms: C_10  and  N_11 
REMARK    6  A    between atoms: N_11  and  C_12 
REMARK    7  A    between atoms: N_15  and  C_16 
ROOT
HETATM    1  C   UNL     1      24.757  47.907  49.581  1.00  0.00     0.314 C 
HETATM    2  N   UNL     1      23.462  47.517  49.813  1.00  0.00    -0.313 N 
HETATM    3  O   UNL     1      25.190  48.710  48.767  1.00  0.00    -0.262 OA
HETATM    4  H   UNL     1      23.348  46.826  50.560  1.00  0.00     0.169 HD
ENDROOT
BRANCH   1   5
HETATM    5  C   UNL     1      25.757  47.214  50.535  1.00  0.00     0.309 C 
HETATM    6  N   UNL     1      25.753  45.842  50.441  1.00  0.00    -0.351 N 
HETATM    7  H   UNL     1      25.079  45.431  49.798  1.00  0.00     0.162 HD
HETATM    8  O   UNL     1      26.473  47.886  51.262  1.00  0.00    -0.262 OA
BRANCH   6   9
HETATM    9  C   UNL     1      26.669  45.003  51.184  1.00  0.00     0.142 C 
BRANCH   9  10
HETATM   10  C   UNL     1      25.965  43.965  52.073  1.00  0.00     0.139 C 
BRANCH  10  11
HETATM   11  N   UNL     1      26.217  44.259  53.483  1.00  0.00    -0.388 N 
HETATM   12  H   UNL     1      25.846  45.156  53.790  1.00  0.00     0.159 HD
BRANCH  11  13
HETATM   13  C   UNL     1      27.475  44.018  54.042  1.00  0.00     0.028 A 
HETATM   14  C   UNL     1      28.173  44.942  54.830  1.00  0.00     0.035 A 
HETATM   15  C   UNL     1      29.466  44.670  55.311  1.00  0.00    -0.060 A 
HETATM   16  C   UNL     1      30.185  45.652  56.188  1.00  0.00     0.048 C 
HETATM   17  C   UNL     1      30.081  43.460  54.975  1.00  0.00     0.007 A 
HETATM   18  C   UNL     1      29.424  42.549  54.155  1.00  0.00     0.003 A 
HETATM   19  C   UNL     1      28.140  42.835  53.686  1.00  0.00     0.029 A 
ENDBRANCH  11  13
ENDBRANCH  10  11
ENDBRANCH   9  10
ENDBRANCH   6   9
ENDBRANCH   1   5
BRANCH   2  20
HETATM   20  C   UNL     1      22.297  47.905  49.213  1.00  0.00     0.124 A 
HETATM   21  C   UNL     1      21.889  49.346  49.291  1.00  0.00     0.291 A 
HETATM   22  O   UNL     1      22.548  50.176  49.901  1.00  0.00    -0.264 OA
HETATM   23  N   UNL     1      20.665  49.453  48.628  1.00  0.00    -0.234 N 
HETATM   24  N   UNL     1      20.316  48.181  48.091  1.00  0.00    -0.193 NA
HETATM   25  C   UNL     1      19.987  48.222  46.655  1.00  0.00     0.143 C 
HETATM   26  C   UNL     1      21.327  47.291  48.514  1.00  0.00     0.037 A 
HETATM   27  C   UNL     1      21.233  45.843  48.152  1.00  0.00     0.066 C 
BRANCH  23  28
HETATM   28  C   UNL     1      19.696  50.465  48.847  1.00  0.00     0.055 A 
HETATM   29  C   UNL     1      18.580  50.227  49.661  1.00  0.00     0.031 A 
HETATM   30  C   UNL     1      17.623  51.223  49.883  1.00  0.00     0.002 A 
HETATM   31  C   UNL     1      17.763  52.472  49.285  1.00  0.00     0.000 A 
HETATM   32  C   UNL     1      18.858  52.726  48.466  1.00  0.00     0.002 A 
HETATM   33  C   UNL     1      19.816  51.730  48.250  1.00  0.00     0.031 A 
ENDBRANCH  23  28
ENDBRANCH   2  20
TORSDOF 7
ENDMDL
MODEL 5
REMARK VINA RESULT:      -8.6      1.833     10.258
REMARK  7 active torsions:
REMARK  status: ('A' for Active; 'I' for Inactive)
REMARK    1  A    between atoms: C_4  and  N_5 
REMARK    2  A    between atoms: N_5  and  C_6 
REMARK    3  A    between atoms: C_6  and  C_7 
REMARK    4  A    between atoms: C_7  and  N_8 
REMARK       I    between atoms: N_8  and  C_9 
REMARK    5  A    between atoms: C_9  and  C_10 
REMARK       I    between atoms: C_10  and  N_11 
REMARK    6  A    between atoms: N_11  and  C_12 
REMARK    7  A    between atoms: N_15  and  C_16 
ROOT
HETATM    1  C   UNL     1      24.596  47.252  49.699  1.00  0.00     0.314 C 
HETATM    2  N   UNL     1      24.268  46.011  50.184  1.00  0.00    -0.313 N 
HETATM    3  O   UNL     1      25.699  47.730  49.478  1.00  0.00    -0.262 OA
HETATM    4  H   UNL     1      23.263  45.838  50.280  1.00  0.00     0.169 HD
ENDROOT
BRANCH   1   5
HETATM    5  C   UNL     1      23.346  48.106  49.385  1.00  0.00     0.309 C 
HETATM    6  N   UNL     1      22.455  47.493  48.535  1.00  0.00    -0.351 N 
HETATM    7  H   UNL     1      22.723  46.579  48.176  1.00  0.00     0.162 HD
HETATM    8  O   UNL     1      23.213  49.207  49.899  1.00  0.00    -0.262 OA
BRANCH   6   9
HETATM    9  C   UNL     1      21.182  48.081  48.178  1.00  0.00     0.142 C 
BRANCH   9  10
HETATM   10  C   UNL     1      20.073  47.816  49.210  1.00  0.00     0.139 C 
BRANCH  10  11
HETATM   11  N   UNL     1      20.003  48.922  50.165  1.00  0.00    -0.388 N 
HETATM   12  H   UNL     1      19.672  48.649  51.088  1.00  0.00     0.159 HD
BRANCH  11  13
HETATM   13  C   UNL     1      19.463  50.154  49.781  1.00  0.00     0.028 A 
HETATM   14  C   UNL     1      18.137  50.536  50.016  1.00  0.00     0.035 A 
HETATM   15  C   UNL     1      17.630  51.761  49.548  1.00  0.00    -0.060 A 
HETATM   16  C   UNL     1      16.219  52.175  49.843  1.00  0.00     0.048 C 
HETATM   17  C   UNL     1      18.462  52.608  48.810  1.00  0.00     0.007 A 
HETATM   18  C   UNL     1      19.769  52.227  48.526  1.00  0.00     0.003 A 
HETATM   19  C   UNL     1      20.256  51.006  48.997  1.00  0.00     0.029 A 
ENDBRANCH  11  13
ENDBRANCH  10  11
ENDBRANCH   9  10
ENDBRANCH   6   9
ENDBRANCH   1   5
BRANCH   2  20
HETATM   20  C   UNL     1      25.065  44.964  50.555  1.00  0.00     0.124 A 
HETATM   21  C   UNL     1      25.794  45.039  51.864  1.00  0.00     0.291 A 
HETATM   22  O   UNL     1      25.722  46.019  52.592  1.00  0.00    -0.264 OA
HETATM   23  N   UNL     1      26.543  43.867  51.973  1.00  0.00    -0.234 N 
HETATM   24  N   UNL     1      26.280  43.041  50.843  1.00  0.00    -0.193 NA
HETATM   25  C   UNL     1      25.889  41.666  51.201  1.00  0.00     0.143 C 
HETATM   26  C   UNL     1      25.410  43.783  50.015  1.00  0.00     0.037 A 
HETATM   27  C   UNL     1      24.971  43.210  48.706  1.00  0.00     0.066 C 
BRANCH  23  28
HETATM   28  C   UNL     1      27.711  43.707  52.762  1.00  0.00     0.055 A 
HETATM   29  C   UNL     1      28.890  43.194  52.204  1.00  0.00     0.031 A 
HETATM   30  C   UNL     1      30.046  43.038  52.978  1.00  0.00     0.002 A 
HETATM   31  C   UNL     1      30.037  43.384  54.325  1.00  0.00     0.000 A 
HETATM   32  C   UNL     1      28.873  43.886  54.901  1.00  0.00     0.002 A 
HETATM   33  C   UNL     1      27.721  44.046  54.124  1.00  0.00     0.031 A 
ENDBRANCH  23  28
ENDBRANCH   2  20
TORSDOF 7
ENDMDL
MODEL 6
REMARK VINA RESULT:      -8.6      2.562      9.424
REMARK  7 active torsions:
REMARK  status: ('A' for Active; 'I' for Inactive)
REMARK    1  A    between atoms: C_4  and  N_5 
REMARK    2  A    between atoms: N_5  and  C_6 
REMARK    3  A    between atoms: C_6  and  C_7 
REMARK    4  A    between atoms: C_7  and  N_8 
REMARK       I    between atoms: N_8  and  C_9 
REMARK    5  A    between atoms: C_9  and  C_10 
REMARK       I    between atoms: C_10  and  N_11 
REMARK    6  A    between atoms: N_11  and  C_12 
REMARK    7  A    between atoms: N_15  and  C_16 
ROOT
HETATM    1  C   UNL     1      22.324  45.215  48.124  1.00  0.00     0.314 C 
HETATM    2  N   UNL     1      22.494  46.085  49.172  1.00  0.00    -0.313 N 
HETATM    3  O   UNL     1      23.168  44.654  47.440  1.00  0.00    -0.262 OA
HETATM    4  H   UNL     1      21.625  46.423  49.596  1.00  0.00     0.169 HD
ENDROOT
BRANCH   1   5
HETATM    5  C   UNL     1      20.832  44.927  47.838  1.00  0.00     0.309 C 
HETATM    6  N   UNL     1      19.984  45.924  48.261  1.00  0.00    -0.351 N 
HETATM    7  H   UNL     1      20.412  46.711  48.745  1.00  0.00     0.162 HD
HETATM    8  O   UNL     1      20.508  43.899  47.263  1.00  0.00    -0.262 OA
BRANCH   6   9
HETATM    9  C   UNL     1      18.558  45.895  48.018  1.00  0.00     0.142 C 
BRANCH   9  10
HETATM   10  C   UNL     1      17.809  47.092  48.628  1.00  0.00     0.139 C 
BRANCH  10  11
HETATM   11  N   UNL     1      18.594  47.673  49.717  1.00  0.00    -0.388 N 
HETATM   12  H   UNL     1      18.271  47.408  50.645  1.00  0.00     0.159 HD
BRANCH  11  13
HETATM   13  C   UNL     1      18.966  49.020  49.680  1.00  0.00     0.028 A 
HETATM   14  C   UNL     1      18.060  50.086  49.754  1.00  0.00     0.035 A 
HETATM   15  C   UNL     1      18.485  51.421  49.645  1.00  0.00    -0.060 A 
HETATM   16  C   UNL     1      17.509  52.553  49.768  1.00  0.00     0.048 C 
HETATM   17  C   UNL     1      19.839  51.693  49.432  1.00  0.00     0.007 A 
HETATM   18  C   UNL     1      20.748  50.648  49.308  1.00  0.00     0.003 A 
HETATM   19  C   UNL     1      20.310  49.327  49.418  1.00  0.00     0.029 A 
ENDBRANCH  11  13
ENDBRANCH  10  11
ENDBRANCH   9  10
ENDBRANCH   6   9
ENDBRANCH   1   5
BRANCH   2  20
HETATM   20  C   UNL     1      23.635  46.570  49.747  1.00  0.00     0.124 A 
HETATM   21  C   UNL     1      24.361  45.718  50.745  1.00  0.00     0.291 A 
HETATM   22  O   UNL     1      23.946  44.618  51.083  1.00  0.00    -0.264 OA
HETATM   23  N   UNL     1      25.457  46.461  51.185  1.00  0.00    -0.234 N 
HETATM   24  N   UNL     1      25.492  47.698  50.481  1.00  0.00    -0.193 NA
HETATM   25  C   UNL     1      26.796  47.975  49.852  1.00  0.00     0.143 C 
HETATM   26  C   UNL     1      24.344  47.709  49.659  1.00  0.00     0.037 A 
HETATM   27  C   UNL     1      24.056  48.905  48.810  1.00  0.00     0.066 C 
BRANCH  23  28
HETATM   28  C   UNL     1      26.126  46.285  52.424  1.00  0.00     0.055 A 
HETATM   29  C   UNL     1      26.006  47.235  53.447  1.00  0.00     0.031 A 
HETATM   30  C   UNL     1      26.662  47.064  54.671  1.00  0.00     0.002 A 
HETATM   31  C   UNL     1      27.457  45.943  54.887  1.00  0.00     0.000 A 
HETATM   32  C   UNL     1      27.598  44.993  53.881  1.00  0.00     0.002 A 
HETATM   33  C   UNL     1      26.936  45.163  52.660  1.00  0.00     0.031 A 
ENDBRANCH  23  28
ENDBRANCH   2  20
TORSDOF 7
ENDMDL
MODEL 7
REMARK VINA RESULT:      -8.6      1.679      2.497
REMARK  7 active torsions:
REMARK  status: ('A' for Active; 'I' for Inactive)
REMARK    1  A    between atoms: C_4  and  N_5 
REMARK    2  A    between atoms: N_5  and  C_6 
REMARK    3  A    between atoms: C_6  and  C_7 
REMARK    4  A    between atoms: C_7  and  N_8 
REMARK       I    between atoms: N_8  and  C_9 
REMARK    5  A    between atoms: C_9  and  C_10 
REMARK       I    between atoms: C_10  and  N_11 
REMARK    6  A    between atoms: N_11  and  C_12 
REMARK    7  A    between atoms: N_15  and  C_16 
ROOT
HETATM    1  C   UNL     1      23.725  45.380  48.765  1.00  0.00     0.314 C 
HETATM    2  N   UNL     1      22.964  46.380  49.316  1.00  0.00    -0.313 N 
HETATM    3  O   UNL     1      23.559  44.768  47.720  1.00  0.00    -0.262 OA
HETATM    4  H   UNL     1      23.313  46.745  50.208  1.00  0.00     0.169 HD
ENDROOT
BRANCH   1   5
HETATM    5  C   UNL     1      24.967  45.048  49.624  1.00  0.00     0.309 C 
HETATM    6  N   UNL     1      25.637  43.918  49.217  1.00  0.00    -0.351 N 
HETATM    7  H   UNL     1      25.232  43.405  48.436  1.00  0.00     0.162 HD
HETATM    8  O   UNL     1      25.282  45.779  50.551  1.00  0.00    -0.262 OA
BRANCH   6   9
HETATM    9  C   UNL     1      26.871  43.475  49.829  1.00  0.00     0.142 C 
BRANCH   9  10
HETATM   10  C   UNL     1      26.668  42.394  50.903  1.00  0.00     0.139 C 
BRANCH  10  11
HETATM   11  N   UNL     1      26.200  43.004  52.147  1.00  0.00    -0.388 N 
HETATM   12  H   UNL     1      25.333  43.528  52.050  1.00  0.00     0.159 HD
BRANCH  11  13
HETATM   13  C   UNL     1      27.097  43.669  52.989  1.00  0.00     0.028 A 
HETATM   14  C   UNL     1      28.295  43.113  53.454  1.00  0.00     0.035 A 
HETATM   15  C   UNL     1      29.127  43.803  54.353  1.00  0.00    -0.060 A 
HETATM   16  C   UNL     1      30.427  43.212  54.810  1.00  0.00     0.048 C 
HETATM   17  C   UNL     1      28.738  45.064  54.815  1.00  0.00     0.007 A 
HETATM   18  C   UNL     1      27.529  45.614  54.403  1.00  0.00     0.003 A 
HETATM   19  C   UNL     1      26.714  44.915  53.509  1.00  0.00     0.029 A 
ENDBRANCH  11  13
ENDBRANCH  10  11
ENDBRANCH   9  10
ENDBRANCH   6   9
ENDBRANCH   1   5
BRANCH   2  20
HETATM   20  C   UNL     1      21.817  46.973  48.867  1.00  0.00     0.124 A 
HETATM   21  C   UNL     1      21.709  48.468  48.920  1.00  0.00     0.291 A 
HETATM   22  O   UNL     1      22.599  49.168  49.381  1.00  0.00    -0.264 OA
HETATM   23  N   UNL     1      20.442  48.796  48.433  1.00  0.00    -0.234 N 
HETATM   24  N   UNL     1      19.779  47.603  48.026  1.00  0.00    -0.193 NA
HETATM   25  C   UNL     1      19.251  47.668  46.651  1.00  0.00     0.143 C 
HETATM   26  C   UNL     1      20.653  46.543  48.351  1.00  0.00     0.037 A 
HETATM   27  C   UNL     1      20.231  45.133  48.090  1.00  0.00     0.066 C 
BRANCH  23  28
HETATM   28  C   UNL     1      19.729  49.986  48.730  1.00  0.00     0.055 A 
HETATM   29  C   UNL     1      20.072  51.200  48.120  1.00  0.00     0.031 A 
HETATM   30  C   UNL     1      19.370  52.375  48.408  1.00  0.00     0.002 A 
HETATM   31  C   UNL     1      18.318  52.356  49.318  1.00  0.00     0.000 A 
HETATM   32  C   UNL     1      17.967  51.162  49.942  1.00  0.00     0.002 A 
HETATM   33  C   UNL     1      18.668  49.988  49.649  1.00  0.00     0.031 A 
ENDBRANCH  23  28
ENDBRANCH   2  20
TORSDOF 7
ENDMDL
MODEL 8
REMARK VINA RESULT:      -8.6      2.349     10.459
REMARK  7 active torsions:
REMARK  status: ('A' for Active; 'I' for Inactive)
REMARK    1  A    between atoms: C_4  and  N_5 
REMARK    2  A    between atoms: N_5  and  C_6 
REMARK    3  A    between atoms: C_6  and  C_7 
REMARK    4  A    between atoms: C_7  and  N_8 
REMARK       I    between atoms: N_8  and  C_9 
REMARK    5  A    between atoms: C_9  and  C_10 
REMARK       I    between atoms: C_10  and  N_11 
REMARK    6  A    between atoms: N_11  and  C_12 
REMARK    7  A    between atoms: N_15  and  C_16 
ROOT
HETATM    1  C   UNL     1      24.942  48.590  49.113  1.00  0.00     0.314 C 
HETATM    2  N   UNL     1      24.307  47.555  49.752  1.00  0.00    -0.313 N 
HETATM    3  O   UNL     1      26.131  48.733  48.865  1.00  0.00    -0.262 OA
HETATM    4  H   UNL     1      23.292  47.660  49.838  1.00  0.00     0.169 HD
ENDROOT
BRANCH   1   5
HETATM    5  C   UNL     1      23.954  49.682  48.644  1.00  0.00     0.309 C 
HETATM    6  N   UNL     1      22.734  49.636  49.279  1.00  0.00    -0.351 N 
HETATM    7  H   UNL     1      22.596  48.880  49.946  1.00  0.00     0.162 HD
HETATM    8  O   UNL     1      24.298  50.496  47.801  1.00  0.00    -0.262 OA
BRANCH   6   9
HETATM    9  C   UNL     1      21.694  50.616  49.051  1.00  0.00     0.142 C 
BRANCH   9  10
HETATM   10  C   UNL     1      20.955  51.035  50.333  1.00  0.00     0.139 C 
BRANCH  10  11
HETATM   11  N   UNL     1      19.729  50.252  50.483  1.00  0.00    -0.388 N 
HETATM   12  H   UNL     1      19.858  49.252  50.342  1.00  0.00     0.159 HD
BRANCH  11  13
HETATM   13  C   UNL     1      18.535  50.691  49.904  1.00  0.00     0.028 A 
HETATM   14  C   UNL     1      17.674  49.870  49.165  1.00  0.00     0.035 A 
HETATM   15  C   UNL     1      16.518  50.382  48.549  1.00  0.00    -0.060 A 
HETATM   16  C   UNL     1      15.584  49.482  47.795  1.00  0.00     0.048 C 
HETATM   17  C   UNL     1      16.233  51.746  48.655  1.00  0.00     0.007 A 
HETATM   18  C   UNL     1      17.100  52.587  49.345  1.00  0.00     0.003 A 
HETATM   19  C   UNL     1      18.244  52.063  49.950  1.00  0.00     0.029 A 
ENDBRANCH  11  13
ENDBRANCH  10  11
ENDBRANCH   9  10
ENDBRANCH   6   9
ENDBRANCH   1   5
BRANCH   2  20
HETATM   20  C   UNL     1      24.808  46.402  50.289  1.00  0.00     0.124 A 
HETATM   21  C   UNL     1      25.471  46.459  51.633  1.00  0.00     0.291 A 
HETATM   22  O   UNL     1      25.605  47.508  52.247  1.00  0.00    -0.264 OA
HETATM   23  N   UNL     1      25.908  45.165  51.920  1.00  0.00    -0.234 N 
HETATM   24  N   UNL     1      25.507  44.295  50.866  1.00  0.00    -0.193 NA
HETATM   25  C   UNL     1      24.778  43.104  51.337  1.00  0.00     0.143 C 
HETATM   26  C   UNL     1      24.881  45.116  49.903  1.00  0.00     0.037 A 
HETATM   27  C   UNL     1      24.378  44.510  48.632  1.00  0.00     0.066 C 
BRANCH  23  28
HETATM   28  C   UNL     1      26.965  44.831  52.806  1.00  0.00     0.055 A 
HETATM   29  C   UNL     1      26.968  45.295  54.128  1.00  0.00     0.031 A 
HETATM   30  C   UNL     1      28.007  44.966  55.006  1.00  0.00     0.002 A 
HETATM   31  C   UNL     1      29.064  44.173  54.571  1.00  0.00     0.000 A 
HETATM   32  C   UNL     1      29.085  43.709  53.260  1.00  0.00     0.002 A 
HETATM   33  C   UNL     1      28.043  44.035  52.385  1.00  0.00     0.031 A 
ENDBRANCH  23  28
ENDBRANCH   2  20
TORSDOF 7
ENDMDL
MODEL 9
REMARK VINA RESULT:      -8.5      1.567     10.172
REMARK  7 active torsions:
REMARK  status: ('A' for Active; 'I' for Inactive)
REMARK    1  A    between atoms: C_4  and  N_5 
REMARK    2  A    between atoms: N_5  and  C_6 
REMARK    3  A    between atoms: C_6  and  C_7 
REMARK    4  A    between atoms: C_7  and  N_8 
REMARK       I    between atoms: N_8  and  C_9 
REMARK    5  A    between atoms: C_9  and  C_10 
REMARK       I    between atoms: C_10  and  N_11 
REMARK    6  A    between atoms: N_11  and  C_12 
REMARK    7  A    between atoms: N_15  and  C_16 
ROOT
HETATM    1  C   UNL     1      25.346  47.107  50.258  1.00  0.00     0.314 C 
HETATM    2  N   UNL     1      25.206  45.889  50.876  1.00  0.00    -0.313 N 
HETATM    3  O   UNL     1      26.363  47.747  50.031  1.00  0.00    -0.262 OA
HETATM    4  H   UNL     1      24.242  45.551  50.946  1.00  0.00     0.169 HD
ENDROOT
BRANCH   1   5
HETATM    5  C   UNL     1      23.992  47.681  49.783  1.00  0.00     0.309 C 
HETATM    6  N   UNL     1      23.121  46.728  49.308  1.00  0.00    -0.351 N 
HETATM    7  H   UNL     1      23.465  45.770  49.280  1.00  0.00     0.162 HD
HETATM    8  O   UNL     1      23.771  48.880  49.872  1.00  0.00    -0.262 OA
BRANCH   6   9
HETATM    9  C   UNL     1      21.770  47.038  48.891  1.00  0.00     0.142 C 
BRANCH   9  10
HETATM   10  C   UNL     1      21.620  47.192  47.369  1.00  0.00     0.139 C 
BRANCH  10  11
HETATM   11  N   UNL     1      20.472  48.045  47.062  1.00  0.00    -0.388 N 
HETATM   12  H   UNL     1      20.323  48.193  46.066  1.00  0.00     0.159 HD
BRANCH  11  13
HETATM   13  C   UNL     1      20.254  49.223  47.783  1.00  0.00     0.028 A 
HETATM   14  C   UNL     1      19.050  49.537  48.425  1.00  0.00     0.035 A 
HETATM   15  C   UNL     1      18.864  50.767  49.080  1.00  0.00    -0.060 A 
HETATM   16  C   UNL     1      17.584  51.072  49.799  1.00  0.00     0.048 C 
HETATM   17  C   UNL     1      19.896  51.710  49.070  1.00  0.00     0.007 A 
HETATM   18  C   UNL     1      21.083  51.437  48.398  1.00  0.00     0.003 A 
HETATM   19  C   UNL     1      21.250  50.211  47.752  1.00  0.00     0.029 A 
ENDBRANCH  11  13
ENDBRANCH  10  11
ENDBRANCH   9  10
ENDBRANCH   6   9
ENDBRANCH   1   5
BRANCH   2  20
HETATM   20  C   UNL     1      26.144  45.052  51.411  1.00  0.00     0.124 A 
HETATM   21  C   UNL     1      26.594  45.277  52.824  1.00  0.00     0.291 A 
HETATM   22  O   UNL     1      26.171  46.204  53.499  1.00  0.00    -0.264 OA
HETATM   23  N   UNL     1      27.562  44.309  53.095  1.00  0.00    -0.234 N 
HETATM   24  N   UNL     1      27.700  43.460  51.961  1.00  0.00    -0.193 NA
HETATM   25  C   UNL     1      27.580  42.026  52.286  1.00  0.00     0.143 C 
HETATM   26  C   UNL     1      26.842  43.989  50.973  1.00  0.00     0.037 A 
HETATM   27  C   UNL     1      26.784  43.346  49.625  1.00  0.00     0.066 C 
BRANCH  23  28
HETATM   28  C   UNL     1      28.578  44.415  54.080  1.00  0.00     0.055 A 
HETATM   29  C   UNL     1      28.623  45.513  54.950  1.00  0.00     0.031 A 
HETATM   30  C   UNL     1      29.621  45.621  55.925  1.00  0.00     0.002 A 
HETATM   31  C   UNL     1      30.596  44.635  56.038  1.00  0.00     0.000 A 
HETATM   32  C   UNL     1      30.575  43.541  55.178  1.00  0.00     0.002 A 
HETATM   33  C   UNL     1      29.573  43.434  54.208  1.00  0.00     0.031 A 
ENDBRANCH  23  28
ENDBRANCH   2  20
TORSDOF 7
ENDMDL
MODEL 10
REMARK VINA RESULT:      -8.4      1.661     10.008
REMARK  7 active torsions:
REMARK  status: ('A' for Active; 'I' for Inactive)
REMARK    1  A    between atoms: C_4  and  N_5 
REMARK    2  A    between atoms: N_5  and  C_6 
REMARK    3  A    between atoms: C_6  and  C_7 
REMARK    4  A    between atoms: C_7  and  N_8 
REMARK       I    between atoms: N_8  and  C_9 
REMARK    5  A    between atoms: C_9  and  C_10 
REMARK       I    between atoms: C_10  and  N_11 
REMARK    6  A    between atoms: N_11  and  C_12 
REMARK    7  A    between atoms: N_15  and  C_16 
ROOT
HETATM    1  C   UNL     1      23.977  43.711  50.618  1.00  0.00     0.314 C 
HETATM    2  N   UNL     1      25.230  44.202  50.884  1.00  0.00    -0.313 N 
HETATM    3  O   UNL     1      23.456  42.672  50.996  1.00  0.00    -0.262 OA
HETATM    4  H   UNL     1      25.439  45.107  50.453  1.00  0.00     0.169 HD
ENDROOT
BRANCH   1   5
HETATM    5  C   UNL     1      23.149  44.670  49.731  1.00  0.00     0.309 C 
HETATM    6  N   UNL     1      23.595  45.972  49.756  1.00  0.00    -0.351 N 
HETATM    7  H   UNL     1      24.379  46.173  50.373  1.00  0.00     0.162 HD
HETATM    8  O   UNL     1      22.213  44.241  49.074  1.00  0.00    -0.262 OA
BRANCH   6   9
HETATM    9  C   UNL     1      23.017  47.014  48.935  1.00  0.00     0.142 C 
BRANCH   9  10
HETATM   10  C   UNL     1      23.621  48.404  49.196  1.00  0.00     0.139 C 
BRANCH  10  11
HETATM   11  N   UNL     1      22.677  49.227  49.951  1.00  0.00    -0.388 N 
HETATM   12  H   UNL     1      22.322  48.780  50.793  1.00  0.00     0.159 HD
BRANCH  11  13
HETATM   13  C   UNL     1      21.665  49.929  49.290  1.00  0.00     0.028 A 
HETATM   14  C   UNL     1      20.655  50.647  49.942  1.00  0.00     0.035 A 
HETATM   15  C   UNL     1      19.623  51.280  49.228  1.00  0.00    -0.060 A 
HETATM   16  C   UNL     1      18.571  52.079  49.937  1.00  0.00     0.048 C 
HETATM   17  C   UNL     1      19.588  51.170  47.834  1.00  0.00     0.007 A 
HETATM   18  C   UNL     1      20.555  50.423  47.171  1.00  0.00     0.003 A 
HETATM   19  C   UNL     1      21.573  49.800  47.896  1.00  0.00     0.029 A 
ENDBRANCH  11  13
ENDBRANCH  10  11
ENDBRANCH   9  10
ENDBRANCH   6   9
ENDBRANCH   1   5
BRANCH   2  20
HETATM   20  C   UNL     1      26.246  43.681  51.636  1.00  0.00     0.124 A 
HETATM   21  C   UNL     1      26.575  44.322  52.951  1.00  0.00     0.291 A 
HETATM   22  O   UNL     1      25.984  45.314  53.355  1.00  0.00    -0.264 OA
HETATM   23  N   UNL     1      27.654  43.615  53.483  1.00  0.00    -0.234 N 
HETATM   24  N   UNL     1      27.979  42.538  52.611  1.00  0.00    -0.193 NA
HETATM   25  C   UNL     1      28.047  41.233  53.292  1.00  0.00     0.143 C 
HETATM   26  C   UNL     1      27.114  42.662  51.502  1.00  0.00     0.037 A 
HETATM   27  C   UNL     1      27.229  41.699  50.365  1.00  0.00     0.066 C 
BRANCH  23  28
HETATM   28  C   UNL     1      28.584  44.122  54.427  1.00  0.00     0.055 A 
HETATM   29  C   UNL     1      29.818  43.489  54.631  1.00  0.00     0.031 A 
HETATM   30  C   UNL     1      30.739  43.986  55.559  1.00  0.00     0.002 A 
HETATM   31  C   UNL     1      30.437  45.121  56.305  1.00  0.00     0.000 A 
HETATM   32  C   UNL     1      29.213  45.759  56.125  1.00  0.00     0.002 A 
HETATM   33  C   UNL     1      28.296  45.262  55.193  1.00  0.00     0.031 A 
ENDBRANCH  23  28
ENDBRANCH   2  20
TORSDOF 7
ENDMDL
