MODEL 1
REMARK VINA RESULT:      -9.7      0.000      0.000
REMARK  6 active torsions:
REMARK  status: ('A' for Active; 'I' for Inactive)
REMARK    1  A    between atoms: C_7  and  C_8 
REMARK    2  A    between atoms: C_8  and  O_9 
REMARK    3  A    between atoms: N_12  and  C_13 
REMARK    4  A    between atoms: C_13  and  C_14 
REMARK    5  A    between atoms: C_14  and  C_15 
REMARK    6  A    between atoms: C_15  and  C_16 
ROOT
HETATM    1  C   UNL     1      24.964  44.383  51.902  1.00  0.00     0.199 A 
HETATM    2  C   UNL     1      25.225  44.759  53.391  1.00  0.00     0.269 A 
HETATM    3  O   UNL     1      24.834  44.137  54.371  1.00  0.00    -0.269 OA
HETATM    4  N   UNL     1      25.880  46.004  53.401  1.00  0.00    -0.314 N 
HETATM    5  C   UNL     1      26.105  46.460  52.092  1.00  0.00     0.047 A 
HETATM    6  C   UNL     1      25.600  45.535  51.168  1.00  0.00     0.017 A 
HETATM    7  C   UNL     1      26.704  47.636  51.678  1.00  0.00     0.030 A 
HETATM    8  C   UNL     1      26.791  47.885  50.305  1.00  0.00     0.002 A 
HETATM    9  C   UNL     1      26.277  46.967  49.375  1.00  0.00     0.001 A 
HETATM   10  C   UNL     1      25.672  45.786  49.804  1.00  0.00     0.013 A 
ENDROOT
BRANCH   1  11
HETATM   11  C   UNL     1      25.624  43.109  51.427  1.00  0.00     0.025 A 
HETATM   12  C   UNL     1      25.172  42.275  50.402  1.00  0.00     0.016 A 
HETATM   13  C   UNL     1      23.984  42.368  49.508  1.00  0.00     0.069 C 
HETATM   14  N   UNL     1      26.049  41.230  50.280  1.00  0.00    -0.359 N 
HETATM   15  H   UNL     1      25.965  40.474  49.615  1.00  0.00     0.166 HD
HETATM   16  C   UNL     1      27.084  41.357  51.169  1.00  0.00     0.043 A 
HETATM   17  C   UNL     1      26.852  42.518  51.908  1.00  0.00     0.003 A 
HETATM   18  C   UNL     1      28.199  40.532  51.364  1.00  0.00     0.030 A 
HETATM   19  C   UNL     1      27.804  42.864  52.894  1.00  0.00     0.014 A 
HETATM   20  C   UNL     1      28.926  42.052  53.102  1.00  0.00     0.001 A 
HETATM   21  C   UNL     1      29.119  40.902  52.345  1.00  0.00     0.002 A 
ENDBRANCH   1  11
BRANCH   1  22
HETATM   22  O   UNL     1      23.553  44.398  51.682  1.00  0.00    -0.371 OA
HETATM   23  H   UNL     1      23.175  44.451  52.578  1.00  0.00     0.212 HD
ENDBRANCH   1  22
BRANCH   4  24
HETATM   24  C   UNL     1      26.045  46.795  54.599  1.00  0.00     0.133 C 
BRANCH  24  25
HETATM   25  C   UNL     1      27.491  46.926  55.074  1.00  0.00     0.025 C 
BRANCH  25  26
HETATM   26  C   UNL     1      28.349  45.708  54.726  1.00  0.00     0.040 C 
BRANCH  26  27
HETATM   27  C   UNL     1      29.284  45.338  55.855  1.00  0.00    -0.058 A 
HETATM   28  C   UNL     1      29.223  46.003  57.088  1.00  0.00     0.007 A 
HETATM   29  C   UNL     1      30.113  45.678  58.114  1.00  0.00     0.001 A 
HETATM   30  C   UNL     1      31.067  44.679  57.923  1.00  0.00     0.000 A 
HETATM   31  C   UNL     1      31.129  44.002  56.706  1.00  0.00     0.001 A 
HETATM   32  C   UNL     1      30.242  44.329  55.678  1.00  0.00     0.007 A 
ENDBRANCH  26  27
ENDBRANCH  25  26
ENDBRANCH  24  25
ENDBRANCH   4  24
TORSDOF 6
ENDMDL
MODEL 2
REMARK VINA RESULT:      -9.1      2.002      4.800
REMARK  6 active torsions:
REMARK  status: ('A' for Active; 'I' for Inactive)
REMARK    1  A    between atoms: C_7  and  C_8 
REMARK    2  A    between atoms: C_8  and  O_9 
REMARK    3  A    between atoms: N_12  and  C_13 
REMARK    4  A    between atoms: C_13  and  C_14 
REMARK    5  A    between atoms: C_14  and  C_15 
REMARK    6  A    between atoms: C_15  and  C_16 
ROOT
HETATM    1  C   UNL     1      26.840  44.627  50.794  1.00  0.00     0.199 A 
HETATM    2  C   UNL     1      27.056  44.510  52.332  1.00  0.00     0.269 A 
HETATM    3  O   UNL     1      27.257  45.438  53.106  1.00  0.00    -0.269 OA
HETATM    4  N   UNL     1      27.102  43.139  52.646  1.00  0.00    -0.314 N 
HETATM    5  C   UNL     1      26.906  42.358  51.496  1.00  0.00     0.047 A 
HETATM    6  C   UNL     1      26.729  43.184  50.378  1.00  0.00     0.017 A 
HETATM    7  C   UNL     1      26.893  40.978  51.380  1.00  0.00     0.030 A 
HETATM    8  C   UNL     1      26.703  40.425  50.112  1.00  0.00     0.002 A 
HETATM    9  C   UNL     1      26.537  41.247  48.986  1.00  0.00     0.001 A 
HETATM   10  C   UNL     1      26.555  42.636  49.113  1.00  0.00     0.013 A 
ENDROOT
BRANCH   1  11
HETATM   11  C   UNL     1      25.573  45.332  50.366  1.00  0.00     0.025 A 
HETATM   12  C   UNL     1      24.278  44.813  50.422  1.00  0.00     0.016 A 
HETATM   13  C   UNL     1      23.764  43.495  50.892  1.00  0.00     0.069 C 
HETATM   14  N   UNL     1      23.414  45.763  49.947  1.00  0.00    -0.359 N 
HETATM   15  H   UNL     1      22.411  45.653  49.873  1.00  0.00     0.166 HD
HETATM   16  C   UNL     1      24.087  46.906  49.604  1.00  0.00     0.043 A 
HETATM   17  C   UNL     1      25.441  46.675  49.848  1.00  0.00     0.003 A 
HETATM   18  C   UNL     1      23.592  48.116  49.104  1.00  0.00     0.030 A 
HETATM   19  C   UNL     1      26.341  47.729  49.574  1.00  0.00     0.014 A 
HETATM   20  C   UNL     1      25.865  48.948  49.075  1.00  0.00     0.001 A 
HETATM   21  C   UNL     1      24.507  49.136  48.844  1.00  0.00     0.002 A 
ENDBRANCH   1  11
BRANCH   1  22
HETATM   22  O   UNL     1      28.018  45.199  50.224  1.00  0.00    -0.371 OA
HETATM   23  H   UNL     1      28.222  44.617  49.469  1.00  0.00     0.212 HD
ENDBRANCH   1  22
BRANCH   4  24
HETATM   24  C   UNL     1      27.551  42.641  53.926  1.00  0.00     0.133 C 
BRANCH  24  25
HETATM   25  C   UNL     1      29.012  42.198  53.954  1.00  0.00     0.025 C 
BRANCH  25  26
HETATM   26  C   UNL     1      29.995  43.371  53.923  1.00  0.00     0.040 C 
BRANCH  26  27
HETATM   27  C   UNL     1      30.256  43.923  55.305  1.00  0.00    -0.058 A 
HETATM   28  C   UNL     1      29.653  45.115  55.731  1.00  0.00     0.007 A 
HETATM   29  C   UNL     1      29.925  45.635  56.997  1.00  0.00     0.001 A 
HETATM   30  C   UNL     1      30.797  44.967  57.856  1.00  0.00     0.000 A 
HETATM   31  C   UNL     1      31.393  43.774  57.449  1.00  0.00     0.001 A 
HETATM   32  C   UNL     1      31.124  43.255  56.182  1.00  0.00     0.007 A 
ENDBRANCH  26  27
ENDBRANCH  25  26
ENDBRANCH  24  25
ENDBRANCH   4  24
TORSDOF 6
ENDMDL
MODEL 3
REMARK VINA RESULT:      -9.1      2.491      5.050
REMARK  6 active torsions:
REMARK  status: ('A' for Active; 'I' for Inactive)
REMARK    1  A    between atoms: C_7  and  C_8 
REMARK    2  A    between atoms: C_8  and  O_9 
REMARK    3  A    between atoms: N_12  and  C_13 
REMARK    4  A    between atoms: C_13  and  C_14 
REMARK    5  A    between atoms: C_14  and  C_15 
REMARK    6  A    between atoms: C_15  and  C_16 
ROOT
HETATM    1  C   UNL     1      25.753  46.467  50.769  1.00  0.00     0.199 A 
HETATM    2  C   UNL     1      25.619  46.617  52.314  1.00  0.00     0.269 A 
HETATM    3  O   UNL     1      25.342  47.647  52.917  1.00  0.00    -0.269 OA
HETATM    4  N   UNL     1      25.995  45.390  52.890  1.00  0.00    -0.314 N 
HETATM    5  C   UNL     1      26.322  44.453  51.897  1.00  0.00     0.047 A 
HETATM    6  C   UNL     1      26.180  45.029  50.627  1.00  0.00     0.017 A 
HETATM    7  C   UNL     1      26.749  43.145  52.049  1.00  0.00     0.030 A 
HETATM    8  C   UNL     1      27.042  42.408  50.899  1.00  0.00     0.002 A 
HETATM    9  C   UNL     1      26.914  42.984  49.624  1.00  0.00     0.001 A 
HETATM   10  C   UNL     1      26.487  44.304  49.482  1.00  0.00     0.013 A 
ENDROOT
BRANCH   1  11
HETATM   11  C   UNL     1      24.475  46.651  49.984  1.00  0.00     0.025 A 
HETATM   12  C   UNL     1      23.455  45.709  49.830  1.00  0.00     0.016 A 
HETATM   13  C   UNL     1      23.306  44.324  50.357  1.00  0.00     0.069 C 
HETATM   14  N   UNL     1      22.475  46.263  49.050  1.00  0.00    -0.359 N 
HETATM   15  H   UNL     1      21.618  45.801  48.777  1.00  0.00     0.166 HD
HETATM   16  C   UNL     1      22.795  47.550  48.705  1.00  0.00     0.043 A 
HETATM   17  C   UNL     1      24.041  47.828  49.267  1.00  0.00     0.003 A 
HETATM   18  C   UNL     1      22.070  48.475  47.945  1.00  0.00     0.030 A 
HETATM   19  C   UNL     1      24.581  49.116  49.049  1.00  0.00     0.014 A 
HETATM   20  C   UNL     1      23.870  50.057  48.293  1.00  0.00     0.001 A 
HETATM   21  C   UNL     1      22.631  49.738  47.750  1.00  0.00     0.002 A 
ENDBRANCH   1  11
BRANCH   1  22
HETATM   22  O   UNL     1      26.808  47.324  50.331  1.00  0.00    -0.371 OA
HETATM   23  H   UNL     1      26.967  47.050  49.409  1.00  0.00     0.212 HD
ENDBRANCH   1  22
BRANCH   4  24
HETATM   24  C   UNL     1      26.250  45.231  54.303  1.00  0.00     0.133 C 
BRANCH  24  25
HETATM   25  C   UNL     1      27.597  45.782  54.767  1.00  0.00     0.025 C 
BRANCH  25  26
HETATM   26  C   UNL     1      28.771  44.862  54.425  1.00  0.00     0.040 C 
BRANCH  26  27
HETATM   27  C   UNL     1      29.700  44.675  55.602  1.00  0.00    -0.058 A 
HETATM   28  C   UNL     1      30.587  43.590  55.655  1.00  0.00     0.007 A 
HETATM   29  C   UNL     1      31.418  43.406  56.762  1.00  0.00     0.001 A 
HETATM   30  C   UNL     1      31.379  44.308  57.823  1.00  0.00     0.000 A 
HETATM   31  C   UNL     1      30.512  45.398  57.777  1.00  0.00     0.001 A 
HETATM   32  C   UNL     1      29.678  45.581  56.673  1.00  0.00     0.007 A 
ENDBRANCH  26  27
ENDBRANCH  25  26
ENDBRANCH  24  25
ENDBRANCH   4  24
TORSDOF 6
ENDMDL
MODEL 4
REMARK VINA RESULT:      -8.9     12.737     15.707
REMARK  6 active torsions:
REMARK  status: ('A' for Active; 'I' for Inactive)
REMARK    1  A    between atoms: C_7  and  C_8 
REMARK    2  A    between atoms: C_8  and  O_9 
REMARK    3  A    between atoms: N_12  and  C_13 
REMARK    4  A    between atoms: C_13  and  C_14 
REMARK    5  A    between atoms: C_14  and  C_15 
REMARK    6  A    between atoms: C_15  and  C_16 
ROOT
HETATM    1  C   UNL     1      31.849  51.361  41.739  1.00  0.00     0.199 A 
HETATM    2  C   UNL     1      31.481  52.355  40.597  1.00  0.00     0.269 A 
HETATM    3  O   UNL     1      31.416  53.574  40.695  1.00  0.00    -0.269 OA
HETATM    4  N   UNL     1      31.120  51.588  39.474  1.00  0.00    -0.314 N 
HETATM    5  C   UNL     1      31.245  50.216  39.746  1.00  0.00     0.047 A 
HETATM    6  C   UNL     1      31.688  50.025  41.061  1.00  0.00     0.017 A 
HETATM    7  C   UNL     1      30.976  49.142  38.915  1.00  0.00     0.030 A 
HETATM    8  C   UNL     1      31.153  47.853  39.424  1.00  0.00     0.002 A 
HETATM    9  C   UNL     1      31.586  47.655  40.745  1.00  0.00     0.001 A 
HETATM   10  C   UNL     1      31.851  48.744  41.575  1.00  0.00     0.013 A 
ENDROOT
BRANCH   1  11
HETATM   11  C   UNL     1      33.268  51.453  42.251  1.00  0.00     0.025 A 
HETATM   12  C   UNL     1      33.659  51.686  43.572  1.00  0.00     0.016 A 
HETATM   13  C   UNL     1      32.861  51.896  44.812  1.00  0.00     0.069 C 
HETATM   14  N   UNL     1      35.027  51.695  43.619  1.00  0.00    -0.359 N 
HETATM   15  H   UNL     1      35.580  51.843  44.453  1.00  0.00     0.166 HD
HETATM   16  C   UNL     1      35.559  51.447  42.381  1.00  0.00     0.043 A 
HETATM   17  C   UNL     1      34.491  51.295  41.497  1.00  0.00     0.003 A 
HETATM   18  C   UNL     1      36.900  51.346  41.991  1.00  0.00     0.030 A 
HETATM   19  C   UNL     1      34.798  51.021  40.145  1.00  0.00     0.014 A 
HETATM   20  C   UNL     1      36.134  50.914  39.736  1.00  0.00     0.001 A 
HETATM   21  C   UNL     1      37.169  51.074  40.649  1.00  0.00     0.002 A 
ENDBRANCH   1  11
BRANCH   1  22
HETATM   22  O   UNL     1      30.872  51.493  42.773  1.00  0.00    -0.371 OA
HETATM   23  H   UNL     1      30.756  50.584  43.105  1.00  0.00     0.212 HD
ENDBRANCH   1  22
BRANCH   4  24
HETATM   24  C   UNL     1      30.467  52.152  38.315  1.00  0.00     0.133 C 
BRANCH  24  25
HETATM   25  C   UNL     1      29.101  52.774  38.599  1.00  0.00     0.025 C 
BRANCH  25  26
HETATM   26  C   UNL     1      27.936  51.846  38.247  1.00  0.00     0.040 C 
BRANCH  26  27
HETATM   27  C   UNL     1      27.783  50.727  39.253  1.00  0.00    -0.058 A 
HETATM   28  C   UNL     1      27.895  50.975  40.628  1.00  0.00     0.007 A 
HETATM   29  C   UNL     1      27.787  49.930  41.548  1.00  0.00     0.001 A 
HETATM   30  C   UNL     1      27.555  48.629  41.105  1.00  0.00     0.000 A 
HETATM   31  C   UNL     1      27.429  48.372  39.740  1.00  0.00     0.001 A 
HETATM   32  C   UNL     1      27.541  49.415  38.820  1.00  0.00     0.007 A 
ENDBRANCH  26  27
ENDBRANCH  25  26
ENDBRANCH  24  25
ENDBRANCH   4  24
TORSDOF 6
ENDMDL
MODEL 5
REMARK VINA RESULT:      -8.8      4.312      7.900
REMARK  6 active torsions:
REMARK  status: ('A' for Active; 'I' for Inactive)
REMARK    1  A    between atoms: C_7  and  C_8 
REMARK    2  A    between atoms: C_8  and  O_9 
REMARK    3  A    between atoms: N_12  and  C_13 
REMARK    4  A    between atoms: C_13  and  C_14 
REMARK    5  A    between atoms: C_14  and  C_15 
REMARK    6  A    between atoms: C_15  and  C_16 
ROOT
HETATM    1  C   UNL     1      25.686  45.691  49.840  1.00  0.00     0.199 A 
HETATM    2  C   UNL     1      24.158  45.996  49.825  1.00  0.00     0.269 A 
HETATM    3  O   UNL     1      23.258  45.181  49.985  1.00  0.00    -0.269 OA
HETATM    4  N   UNL     1      24.004  47.348  49.470  1.00  0.00    -0.314 N 
HETATM    5  C   UNL     1      25.254  47.963  49.290  1.00  0.00     0.047 A 
HETATM    6  C   UNL     1      26.281  47.036  49.513  1.00  0.00     0.017 A 
HETATM    7  C   UNL     1      25.530  49.270  48.928  1.00  0.00     0.030 A 
HETATM    8  C   UNL     1      26.868  49.645  48.784  1.00  0.00     0.002 A 
HETATM    9  C   UNL     1      27.902  48.718  48.994  1.00  0.00     0.001 A 
HETATM   10  C   UNL     1      27.612  47.402  49.355  1.00  0.00     0.013 A 
ENDROOT
BRANCH   1  11
HETATM   11  C   UNL     1      26.248  45.247  51.172  1.00  0.00     0.025 A 
HETATM   12  C   UNL     1      26.907  44.044  51.432  1.00  0.00     0.016 A 
HETATM   13  C   UNL     1      27.250  42.897  50.546  1.00  0.00     0.069 C 
HETATM   14  N   UNL     1      27.260  44.026  52.755  1.00  0.00    -0.359 N 
HETATM   15  H   UNL     1      27.749  43.271  53.217  1.00  0.00     0.166 HD
HETATM   16  C   UNL     1      26.883  45.188  53.376  1.00  0.00     0.043 A 
HETATM   17  C   UNL     1      26.243  45.976  52.419  1.00  0.00     0.003 A 
HETATM   18  C   UNL     1      27.068  45.589  54.704  1.00  0.00     0.030 A 
HETATM   19  C   UNL     1      25.769  47.242  52.831  1.00  0.00     0.014 A 
HETATM   20  C   UNL     1      25.946  47.663  54.155  1.00  0.00     0.001 A 
HETATM   21  C   UNL     1      26.588  46.845  55.078  1.00  0.00     0.002 A 
ENDBRANCH   1  11
BRANCH   1  22
HETATM   22  O   UNL     1      25.966  44.774  48.782  1.00  0.00    -0.371 OA
HETATM   23  H   UNL     1      26.938  44.718  48.769  1.00  0.00     0.212 HD
ENDBRANCH   1  22
BRANCH   4  24
HETATM   24  C   UNL     1      22.731  47.922  49.097  1.00  0.00     0.133 C 
BRANCH  24  25
HETATM   25  C   UNL     1      22.530  49.365  49.555  1.00  0.00     0.025 C 
BRANCH  25  26
HETATM   26  C   UNL     1      21.904  50.254  48.477  1.00  0.00     0.040 C 
BRANCH  26  27
HETATM   27  C   UNL     1      20.545  50.769  48.892  1.00  0.00    -0.058 A 
HETATM   28  C   UNL     1      20.033  51.961  48.362  1.00  0.00     0.007 A 
HETATM   29  C   UNL     1      18.791  52.446  48.775  1.00  0.00     0.001 A 
HETATM   30  C   UNL     1      18.043  51.741  49.717  1.00  0.00     0.000 A 
HETATM   31  C   UNL     1      18.535  50.547  50.242  1.00  0.00     0.001 A 
HETATM   32  C   UNL     1      19.778  50.064  49.832  1.00  0.00     0.007 A 
ENDBRANCH  26  27
ENDBRANCH  25  26
ENDBRANCH  24  25
ENDBRANCH   4  24
TORSDOF 6
ENDMDL
MODEL 6
REMARK VINA RESULT:      -8.7     12.416     15.581
REMARK  6 active torsions:
REMARK  status: ('A' for Active; 'I' for Inactive)
REMARK    1  A    between atoms: C_7  and  C_8 
REMARK    2  A    between atoms: C_8  and  O_9 
REMARK    3  A    between atoms: N_12  and  C_13 
REMARK    4  A    between atoms: C_13  and  C_14 
REMARK    5  A    between atoms: C_14  and  C_15 
REMARK    6  A    between atoms: C_15  and  C_16 
ROOT
HETATM    1  C   UNL     1      32.740  50.665  41.363  1.00  0.00     0.199 A 
HETATM    2  C   UNL     1      31.963  49.421  41.889  1.00  0.00     0.269 A 
HETATM    3  O   UNL     1      32.424  48.297  42.047  1.00  0.00    -0.269 OA
HETATM    4  N   UNL     1      30.615  49.796  42.028  1.00  0.00    -0.314 N 
HETATM    5  C   UNL     1      30.435  51.147  41.688  1.00  0.00     0.047 A 
HETATM    6  C   UNL     1      31.658  51.713  41.305  1.00  0.00     0.017 A 
HETATM    7  C   UNL     1      29.266  51.888  41.681  1.00  0.00     0.030 A 
HETATM    8  C   UNL     1      29.334  53.223  41.274  1.00  0.00     0.002 A 
HETATM    9  C   UNL     1      30.555  53.792  40.878  1.00  0.00     0.001 A 
HETATM   10  C   UNL     1      31.726  53.035  40.886  1.00  0.00     0.013 A 
ENDROOT
BRANCH   1  11
HETATM   11  C   UNL     1      33.835  51.179  42.269  1.00  0.00     0.025 A 
HETATM   12  C   UNL     1      33.677  51.654  43.573  1.00  0.00     0.016 A 
HETATM   13  C   UNL     1      32.467  51.791  44.431  1.00  0.00     0.069 C 
HETATM   14  N   UNL     1      34.907  52.022  44.048  1.00  0.00    -0.359 N 
HETATM   15  H   UNL     1      35.087  52.402  44.967  1.00  0.00     0.166 HD
HETATM   16  C   UNL     1      35.882  51.781  43.115  1.00  0.00     0.043 A 
HETATM   17  C   UNL     1      35.250  51.257  41.986  1.00  0.00     0.003 A 
HETATM   18  C   UNL     1      37.264  51.986  43.197  1.00  0.00     0.030 A 
HETATM   19  C   UNL     1      36.065  50.920  40.882  1.00  0.00     0.014 A 
HETATM   20  C   UNL     1      37.451  51.116  40.945  1.00  0.00     0.001 A 
HETATM   21  C   UNL     1      38.040  51.642  42.089  1.00  0.00     0.002 A 
ENDBRANCH   1  11
BRANCH   1  22
HETATM   22  O   UNL     1      33.196  50.376  40.041  1.00  0.00    -0.371 OA
HETATM   23  H   UNL     1      33.073  51.215  39.560  1.00  0.00     0.212 HD
ENDBRANCH   1  22
BRANCH   4  24
HETATM   24  C   UNL     1      29.551  48.840  42.238  1.00  0.00     0.133 C 
BRANCH  24  25
HETATM   25  C   UNL     1      29.310  47.896  41.062  1.00  0.00     0.025 C 
BRANCH  25  26
HETATM   26  C   UNL     1      28.149  48.337  40.167  1.00  0.00     0.040 C 
BRANCH  26  27
HETATM   27  C   UNL     1      28.516  49.534  39.319  1.00  0.00    -0.058 A 
HETATM   28  C   UNL     1      29.796  49.657  38.761  1.00  0.00     0.007 A 
HETATM   29  C   UNL     1      30.136  50.781  38.007  1.00  0.00     0.001 A 
HETATM   30  C   UNL     1      29.199  51.790  37.794  1.00  0.00     0.000 A 
HETATM   31  C   UNL     1      27.918  51.673  38.332  1.00  0.00     0.001 A 
HETATM   32  C   UNL     1      27.579  50.552  39.090  1.00  0.00     0.007 A 
ENDBRANCH  26  27
ENDBRANCH  25  26
ENDBRANCH  24  25
ENDBRANCH   4  24
TORSDOF 6
ENDMDL
MODEL 7
REMARK VINA RESULT:      -8.5      4.276      7.765
REMARK  6 active torsions:
REMARK  status: ('A' for Active; 'I' for Inactive)
REMARK    1  A    between atoms: C_7  and  C_8 
REMARK    2  A    between atoms: C_8  and  O_9 
REMARK    3  A    between atoms: N_12  and  C_13 
REMARK    4  A    between atoms: C_13  and  C_14 
REMARK    5  A    between atoms: C_14  and  C_15 
REMARK    6  A    between atoms: C_15  and  C_16 
ROOT
HETATM    1  C   UNL     1      26.004  45.797  49.997  1.00  0.00     0.199 A 
HETATM    2  C   UNL     1      24.463  45.806  49.762  1.00  0.00     0.269 A 
HETATM    3  O   UNL     1      23.709  44.850  49.889  1.00  0.00    -0.269 OA
HETATM    4  N   UNL     1      24.124  47.075  49.259  1.00  0.00    -0.314 N 
HETATM    5  C   UNL     1      25.258  47.899  49.175  1.00  0.00     0.047 A 
HETATM    6  C   UNL     1      26.391  47.202  49.614  1.00  0.00     0.017 A 
HETATM    7  C   UNL     1      25.346  49.204  48.722  1.00  0.00     0.030 A 
HETATM    8  C   UNL     1      26.604  49.813  48.708  1.00  0.00     0.002 A 
HETATM    9  C   UNL     1      27.745  49.116  49.136  1.00  0.00     0.001 A 
HETATM   10  C   UNL     1      27.645  47.800  49.587  1.00  0.00     0.013 A 
ENDROOT
BRANCH   1  11
HETATM   11  C   UNL     1      26.443  45.568  51.425  1.00  0.00     0.025 A 
HETATM   12  C   UNL     1      26.110  46.356  52.530  1.00  0.00     0.016 A 
HETATM   13  C   UNL     1      25.270  47.581  52.649  1.00  0.00     0.069 C 
HETATM   14  N   UNL     1      26.703  45.812  53.638  1.00  0.00    -0.359 N 
HETATM   15  H   UNL     1      26.630  46.180  54.577  1.00  0.00     0.166 HD
HETATM   16  C   UNL     1      27.394  44.675  53.313  1.00  0.00     0.043 A 
HETATM   17  C   UNL     1      27.259  44.491  51.936  1.00  0.00     0.003 A 
HETATM   18  C   UNL     1      28.119  43.806  54.137  1.00  0.00     0.030 A 
HETATM   19  C   UNL     1      27.890  43.363  51.365  1.00  0.00     0.014 A 
HETATM   20  C   UNL     1      28.617  42.480  52.173  1.00  0.00     0.001 A 
HETATM   21  C   UNL     1      28.729  42.701  53.541  1.00  0.00     0.002 A 
ENDBRANCH   1  11
BRANCH   1  22
HETATM   22  O   UNL     1      26.587  44.873  49.077  1.00  0.00    -0.371 OA
HETATM   23  H   UNL     1      27.546  44.991  49.201  1.00  0.00     0.212 HD
ENDBRANCH   1  22
BRANCH   4  24
HETATM   24  C   UNL     1      22.835  47.369  48.675  1.00  0.00     0.133 C 
BRANCH  24  25
HETATM   25  C   UNL     1      22.125  48.575  49.286  1.00  0.00     0.025 C 
BRANCH  25  26
HETATM   26  C   UNL     1      20.599  48.464  49.231  1.00  0.00     0.040 C 
BRANCH  26  27
HETATM   27  C   UNL     1      19.938  49.822  49.185  1.00  0.00    -0.058 A 
HETATM   28  C   UNL     1      20.453  50.848  48.380  1.00  0.00     0.007 A 
HETATM   29  C   UNL     1      19.856  52.109  48.368  1.00  0.00     0.001 A 
HETATM   30  C   UNL     1      18.731  52.358  49.153  1.00  0.00     0.000 A 
HETATM   31  C   UNL     1      18.201  51.342  49.948  1.00  0.00     0.001 A 
HETATM   32  C   UNL     1      18.800  50.082  49.963  1.00  0.00     0.007 A 
ENDBRANCH  26  27
ENDBRANCH  25  26
ENDBRANCH  24  25
ENDBRANCH   4  24
TORSDOF 6
ENDMDL
MODEL 8
REMARK VINA RESULT:      -8.4      9.707     12.596
REMARK  6 active torsions:
REMARK  status: ('A' for Active; 'I' for Inactive)
REMARK    1  A    between atoms: C_7  and  C_8 
REMARK    2  A    between atoms: C_8  and  O_9 
REMARK    3  A    between atoms: N_12  and  C_13 
REMARK    4  A    between atoms: C_13  and  C_14 
REMARK    5  A    between atoms: C_14  and  C_15 
REMARK    6  A    between atoms: C_15  and  C_16 
ROOT
HETATM    1  C   UNL     1      18.697  49.070  48.635  1.00  0.00     0.199 A 
HETATM    2  C   UNL     1      18.340  50.140  49.710  1.00  0.00     0.269 A 
HETATM    3  O   UNL     1      18.313  49.964  50.922  1.00  0.00    -0.269 OA
HETATM    4  N   UNL     1      17.935  51.301  49.028  1.00  0.00    -0.314 N 
HETATM    5  C   UNL     1      18.023  51.120  47.638  1.00  0.00     0.047 A 
HETATM    6  C   UNL     1      18.484  49.828  47.351  1.00  0.00     0.017 A 
HETATM    7  C   UNL     1      17.707  52.012  46.628  1.00  0.00     0.030 A 
HETATM    8  C   UNL     1      17.854  51.589  45.305  1.00  0.00     0.002 A 
HETATM    9  C   UNL     1      18.304  50.291  45.010  1.00  0.00     0.001 A 
HETATM   10  C   UNL     1      18.616  49.399  46.036  1.00  0.00     0.013 A 
ENDROOT
BRANCH   1  11
HETATM   11  C   UNL     1      20.127  48.581  48.653  1.00  0.00     0.025 A 
HETATM   12  C   UNL     1      20.546  47.249  48.680  1.00  0.00     0.016 A 
HETATM   13  C   UNL     1      19.776  45.974  48.691  1.00  0.00     0.069 C 
HETATM   14  N   UNL     1      21.916  47.230  48.687  1.00  0.00    -0.359 N 
HETATM   15  H   UNL     1      22.486  46.396  48.706  1.00  0.00     0.166 HD
HETATM   16  C   UNL     1      22.420  48.503  48.637  1.00  0.00     0.043 A 
HETATM   17  C   UNL     1      21.333  49.377  48.619  1.00  0.00     0.003 A 
HETATM   18  C   UNL     1      23.753  48.933  48.604  1.00  0.00     0.030 A 
HETATM   19  C   UNL     1      21.611  50.761  48.560  1.00  0.00     0.014 A 
HETATM   20  C   UNL     1      22.937  51.211  48.524  1.00  0.00     0.001 A 
HETATM   21  C   UNL     1      23.992  50.306  48.545  1.00  0.00     0.002 A 
ENDBRANCH   1  11
BRANCH   1  22
HETATM   22  O   UNL     1      17.743  48.012  48.730  1.00  0.00    -0.371 OA
HETATM   23  H   UNL     1      18.248  47.272  49.113  1.00  0.00     0.212 HD
ENDBRANCH   1  22
BRANCH   4  24
HETATM   24  C   UNL     1      17.280  52.410  49.684  1.00  0.00     0.133 C 
BRANCH  24  25
HETATM   25  C   UNL     1      15.762  52.277  49.783  1.00  0.00     0.025 C 
BRANCH  25  26
HETATM   26  C   UNL     1      15.018  53.517  49.281  1.00  0.00     0.040 C 
BRANCH  26  27
HETATM   27  C   UNL     1      14.973  54.608  50.326  1.00  0.00    -0.058 A 
HETATM   28  C   UNL     1      14.606  54.324  51.648  1.00  0.00     0.007 A 
HETATM   29  C   UNL     1      14.535  55.343  52.600  1.00  0.00     0.001 A 
HETATM   30  C   UNL     1      14.839  56.656  52.242  1.00  0.00     0.000 A 
HETATM   31  C   UNL     1      15.218  56.949  50.933  1.00  0.00     0.001 A 
HETATM   32  C   UNL     1      15.286  55.931  49.981  1.00  0.00     0.007 A 
ENDBRANCH  26  27
ENDBRANCH  25  26
ENDBRANCH  24  25
ENDBRANCH   4  24
TORSDOF 6
ENDMDL
MODEL 9
REMARK VINA RESULT:      -8.3      3.467      5.064
REMARK  6 active torsions:
REMARK  status: ('A' for Active; 'I' for Inactive)
REMARK    1  A    between atoms: C_7  and  C_8 
REMARK    2  A    between atoms: C_8  and  O_9 
REMARK    3  A    between atoms: N_12  and  C_13 
REMARK    4  A    between atoms: C_13  and  C_14 
REMARK    5  A    between atoms: C_14  and  C_15 
REMARK    6  A    between atoms: C_15  and  C_16 
ROOT
HETATM    1  C   UNL     1      26.686  39.926  49.887  1.00  0.00     0.199 A 
HETATM    2  C   UNL     1      27.836  40.675  50.625  1.00  0.00     0.269 A 
HETATM    3  O   UNL     1      28.767  40.154  51.226  1.00  0.00    -0.269 OA
HETATM    4  N   UNL     1      27.539  42.049  50.579  1.00  0.00    -0.314 N 
HETATM    5  C   UNL     1      26.351  42.279  49.867  1.00  0.00     0.047 A 
HETATM    6  C   UNL     1      25.815  41.064  49.421  1.00  0.00     0.017 A 
HETATM    7  C   UNL     1      25.716  43.482  49.610  1.00  0.00     0.030 A 
HETATM    8  C   UNL     1      24.516  43.455  48.895  1.00  0.00     0.002 A 
HETATM    9  C   UNL     1      23.968  42.239  48.456  1.00  0.00     0.001 A 
HETATM   10  C   UNL     1      24.614  41.033  48.723  1.00  0.00     0.013 A 
ENDROOT
BRANCH   1  11
HETATM   11  C   UNL     1      27.102  39.133  48.669  1.00  0.00     0.025 A 
HETATM   12  C   UNL     1      27.108  37.741  48.551  1.00  0.00     0.016 A 
HETATM   13  C   UNL     1      26.727  36.669  49.514  1.00  0.00     0.069 C 
HETATM   14  N   UNL     1      27.548  37.419  47.295  1.00  0.00    -0.359 N 
HETATM   15  H   UNL     1      27.653  36.479  46.938  1.00  0.00     0.166 HD
HETATM   16  C   UNL     1      27.808  38.549  46.565  1.00  0.00     0.043 A 
HETATM   17  C   UNL     1      27.545  39.642  47.392  1.00  0.00     0.003 A 
HETATM   18  C   UNL     1      28.249  38.674  45.242  1.00  0.00     0.030 A 
HETATM   19  C   UNL     1      27.736  40.932  46.846  1.00  0.00     0.014 A 
HETATM   20  C   UNL     1      28.175  41.077  45.524  1.00  0.00     0.001 A 
HETATM   21  C   UNL     1      28.428  39.962  44.735  1.00  0.00     0.002 A 
ENDBRANCH   1  11
BRANCH   1  22
HETATM   22  O   UNL     1      25.978  39.144  50.849  1.00  0.00    -0.371 OA
HETATM   23  H   UNL     1      26.557  39.153  51.633  1.00  0.00     0.212 HD
ENDBRANCH   1  22
BRANCH   4  24
HETATM   24  C   UNL     1      28.233  43.030  51.382  1.00  0.00     0.133 C 
BRANCH  24  25
HETATM   25  C   UNL     1      27.893  42.982  52.870  1.00  0.00     0.025 C 
BRANCH  25  26
HETATM   26  C   UNL     1      29.053  42.480  53.734  1.00  0.00     0.040 C 
BRANCH  26  27
HETATM   27  C   UNL     1      29.517  43.530  54.717  1.00  0.00    -0.058 A 
HETATM   28  C   UNL     1      28.855  44.761  54.824  1.00  0.00     0.007 A 
HETATM   29  C   UNL     1      29.311  45.737  55.711  1.00  0.00     0.001 A 
HETATM   30  C   UNL     1      30.428  45.492  56.508  1.00  0.00     0.000 A 
HETATM   31  C   UNL     1      31.087  44.267  56.420  1.00  0.00     0.001 A 
HETATM   32  C   UNL     1      30.635  43.291  55.531  1.00  0.00     0.007 A 
ENDBRANCH  26  27
ENDBRANCH  25  26
ENDBRANCH  24  25
ENDBRANCH   4  24
TORSDOF 6
ENDMDL
MODEL 10
REMARK VINA RESULT:      -8.2      6.685      9.402
REMARK  6 active torsions:
REMARK  status: ('A' for Active; 'I' for Inactive)
REMARK    1  A    between atoms: C_7  and  C_8 
REMARK    2  A    between atoms: C_8  and  O_9 
REMARK    3  A    between atoms: N_12  and  C_13 
REMARK    4  A    between atoms: C_13  and  C_14 
REMARK    5  A    between atoms: C_14  and  C_15 
REMARK    6  A    between atoms: C_15  and  C_16 
ROOT
HETATM    1  C   UNL     1      20.010  48.790  49.118  1.00  0.00     0.199 A 
HETATM    2  C   UNL     1      20.426  47.325  48.788  1.00  0.00     0.269 A 
HETATM    3  O   UNL     1      19.742  46.324  48.962  1.00  0.00    -0.269 OA
HETATM    4  N   UNL     1      21.770  47.354  48.374  1.00  0.00    -0.314 N 
HETATM    5  C   UNL     1      22.261  48.670  48.363  1.00  0.00     0.047 A 
HETATM    6  C   UNL     1      21.260  49.559  48.776  1.00  0.00     0.017 A 
HETATM    7  C   UNL     1      23.528  49.117  48.030  1.00  0.00     0.030 A 
HETATM    8  C   UNL     1      23.789  50.487  48.123  1.00  0.00     0.002 A 
HETATM    9  C   UNL     1      22.793  51.381  48.548  1.00  0.00     0.001 A 
HETATM   10  C   UNL     1      21.521  50.919  48.884  1.00  0.00     0.013 A 
ENDROOT
BRANCH   1  11
HETATM   11  C   UNL     1      18.879  49.348  48.285  1.00  0.00     0.025 A 
HETATM   12  C   UNL     1      18.541  48.965  46.985  1.00  0.00     0.016 A 
HETATM   13  C   UNL     1      19.138  47.953  46.070  1.00  0.00     0.069 C 
HETATM   14  N   UNL     1      17.459  49.705  46.588  1.00  0.00    -0.359 N 
HETATM   15  H   UNL     1      17.005  49.635  45.688  1.00  0.00     0.166 HD
HETATM   16  C   UNL     1      17.049  50.545  47.590  1.00  0.00     0.043 A 
HETATM   17  C   UNL     1      17.915  50.355  48.667  1.00  0.00     0.003 A 
HETATM   18  C   UNL     1      15.980  51.448  47.614  1.00  0.00     0.030 A 
HETATM   19  C   UNL     1      17.682  51.118  49.833  1.00  0.00     0.014 A 
HETATM   20  C   UNL     1      16.615  52.025  49.877  1.00  0.00     0.001 A 
HETATM   21  C   UNL     1      15.776  52.186  48.781  1.00  0.00     0.002 A 
ENDBRANCH   1  11
BRANCH   1  22
HETATM   22  O   UNL     1      19.766  48.875  50.523  1.00  0.00    -0.371 OA
HETATM   23  H   UNL     1      19.249  48.073  50.722  1.00  0.00     0.212 HD
ENDBRANCH   1  22
BRANCH   4  24
HETATM   24  C   UNL     1      22.577  46.162  48.240  1.00  0.00     0.133 C 
BRANCH  24  25
HETATM   25  C   UNL     1      23.199  45.672  49.545  1.00  0.00     0.025 C 
BRANCH  25  26
HETATM   26  C   UNL     1      24.643  46.144  49.736  1.00  0.00     0.040 C 
BRANCH  26  27
HETATM   27  C   UNL     1      25.085  46.032  51.177  1.00  0.00    -0.058 A 
HETATM   28  C   UNL     1      25.789  47.074  51.798  1.00  0.00     0.007 A 
HETATM   29  C   UNL     1      26.223  46.949  53.119  1.00  0.00     0.001 A 
HETATM   30  C   UNL     1      25.951  45.786  53.837  1.00  0.00     0.000 A 
HETATM   31  C   UNL     1      25.240  44.749  53.236  1.00  0.00     0.001 A 
HETATM   32  C   UNL     1      24.809  44.871  51.914  1.00  0.00     0.007 A 
ENDBRANCH  26  27
ENDBRANCH  25  26
ENDBRANCH  24  25
ENDBRANCH   4  24
TORSDOF 6
ENDMDL
