MODEL 1
REMARK VINA RESULT:      -7.7      0.000      0.000
REMARK  2 active torsions:
REMARK  status: ('A' for Active; 'I' for Inactive)
REMARK    1  A    between atoms: C_8  and  S_9 
REMARK    2  A    between atoms: S_9  and  C_10 
ROOT
HETATM    1  C   UNL     1      29.607  45.406  55.770  1.00  0.00     0.002 A 
HETATM    2  C   UNL     1      28.663  45.411  54.742  1.00  0.00     0.034 A 
HETATM    3  C   UNL     1      28.536  44.334  53.874  1.00  0.00     0.087 A 
HETATM    4  C   UNL     1      29.392  43.212  54.038  1.00  0.00     0.087 A 
HETATM    5  N   UNL     1      29.317  42.146  53.217  1.00  0.00    -0.232 NA
HETATM    6  C   UNL     1      28.429  42.224  52.205  1.00  0.00     0.164 A 
HETATM    7 CL   UNL     1      28.381  40.831  51.207  1.00  0.00    -0.059 Cl
HETATM    8  C   UNL     1      27.590  43.314  52.048  1.00  0.00     0.165 A 
HETATM    9  N   UNL     1      27.603  44.370  52.899  1.00  0.00    -0.234 NA
HETATM   10  C   UNL     1      30.321  43.217  55.070  1.00  0.00     0.034 A 
HETATM   11  C   UNL     1      30.435  44.304  55.936  1.00  0.00     0.002 A 
ENDROOT
BRANCH   8  12
HETATM   12  S   UNL     1      26.388  43.465  50.735  1.00  0.00     0.078 S 
HETATM   13  O   UNL     1      27.120  43.223  49.448  1.00  0.00    -0.251 OA
BRANCH  12  14
HETATM   14  C   UNL     1      26.051  45.254  50.772  1.00  0.00     0.112 C 
HETATM   15  C   UNL     1      24.552  45.563  50.781  1.00  0.00     0.250 C 
HETATM   16  N   UNL     1      24.354  47.053  50.916  1.00  0.00    -0.074 N 
HETATM   17  H   UNL     1      24.673  47.363  51.846  1.00  0.00     0.277 HD
HETATM   18  H   UNL     1      23.342  47.245  50.902  1.00  0.00     0.277 HD
HETATM   19  C   UNL     1      25.020  47.853  49.845  1.00  0.00     0.232 C 
HETATM   20  C   UNL     1      26.512  47.543  49.836  1.00  0.00     0.029 C 
HETATM   21  C   UNL     1      26.789  46.042  49.692  1.00  0.00     0.021 C 
ENDBRANCH  12  14
ENDBRANCH   8  12
TORSDOF 2
ENDMDL
MODEL 2
REMARK VINA RESULT:      -7.6      2.927      3.849
REMARK  2 active torsions:
REMARK  status: ('A' for Active; 'I' for Inactive)
REMARK    1  A    between atoms: C_8  and  S_9 
REMARK    2  A    between atoms: S_9  and  C_10 
ROOT
HETATM    1  C   UNL     1      30.863  43.222  55.600  1.00  0.00     0.002 A 
HETATM    2  C   UNL     1      29.697  43.213  54.835  1.00  0.00     0.034 A 
HETATM    3  C   UNL     1      28.857  44.319  54.786  1.00  0.00     0.087 A 
HETATM    4  C   UNL     1      29.197  45.476  55.538  1.00  0.00     0.087 A 
HETATM    5  N   UNL     1      28.412  46.571  55.533  1.00  0.00    -0.232 NA
HETATM    6  C   UNL     1      27.267  46.491  54.824  1.00  0.00     0.164 A 
HETATM    7 CL   UNL     1      26.324  47.922  54.855  1.00  0.00    -0.059 Cl
HETATM    8  C   UNL     1      26.938  45.367  54.086  1.00  0.00     0.165 A 
HETATM    9  N   UNL     1      27.743  44.277  54.025  1.00  0.00    -0.234 NA
HETATM   10  C   UNL     1      30.365  45.474  56.289  1.00  0.00     0.034 A 
HETATM   11  C   UNL     1      31.200  44.357  56.326  1.00  0.00     0.002 A 
ENDROOT
BRANCH   8  12
HETATM   12  S   UNL     1      25.443  45.211  53.120  1.00  0.00     0.078 S 
HETATM   13  O   UNL     1      24.577  44.208  53.823  1.00  0.00    -0.251 OA
BRANCH  12  14
HETATM   14  C   UNL     1      26.070  44.357  51.640  1.00  0.00     0.112 C 
HETATM   15  C   UNL     1      25.626  45.039  50.344  1.00  0.00     0.250 C 
HETATM   16  N   UNL     1      26.266  44.338  49.171  1.00  0.00    -0.074 N 
HETATM   17  H   UNL     1      27.285  44.490  49.189  1.00  0.00     0.277 HD
HETATM   18  H   UNL     1      25.942  44.797  48.307  1.00  0.00     0.277 HD
HETATM   19  C   UNL     1      25.959  42.878  49.095  1.00  0.00     0.232 C 
HETATM   20  C   UNL     1      26.401  42.201  50.387  1.00  0.00     0.029 C 
HETATM   21  C   UNL     1      25.779  42.858  51.624  1.00  0.00     0.021 C 
ENDBRANCH  12  14
ENDBRANCH   8  12
TORSDOF 2
ENDMDL
MODEL 3
REMARK VINA RESULT:      -7.4      3.616      4.822
REMARK  2 active torsions:
REMARK  status: ('A' for Active; 'I' for Inactive)
REMARK    1  A    between atoms: C_8  and  S_9 
REMARK    2  A    between atoms: S_9  and  C_10 
ROOT
HETATM    1  C   UNL     1      31.653  43.744  57.259  1.00  0.00     0.002 A 
HETATM    2  C   UNL     1      30.900  43.556  56.099  1.00  0.00     0.034 A 
HETATM    3  C   UNL     1      29.866  44.422  55.762  1.00  0.00     0.087 A 
HETATM    4  C   UNL     1      29.573  45.513  56.623  1.00  0.00     0.087 A 
HETATM    5  N   UNL     1      28.575  46.376  56.347  1.00  0.00    -0.232 NA
HETATM    6  C   UNL     1      27.840  46.117  55.246  1.00  0.00     0.164 A 
HETATM    7 CL   UNL     1      26.595  47.259  54.952  1.00  0.00    -0.059 Cl
HETATM    8  C   UNL     1      28.129  45.058  54.403  1.00  0.00     0.165 A 
HETATM    9  N   UNL     1      29.167  44.214  54.625  1.00  0.00    -0.234 NA
HETATM   10  C   UNL     1      30.336  45.693  57.769  1.00  0.00     0.034 A 
HETATM   11  C   UNL     1      31.372  44.818  58.093  1.00  0.00     0.002 A 
ENDROOT
BRANCH   8  12
HETATM   12  S   UNL     1      27.198  44.676  52.926  1.00  0.00     0.078 S 
HETATM   13  O   UNL     1      25.834  44.244  53.375  1.00  0.00    -0.251 OA
BRANCH  12  14
HETATM   14  C   UNL     1      28.030  43.155  52.371  1.00  0.00     0.112 C 
HETATM   15  C   UNL     1      27.630  42.762  50.947  1.00  0.00     0.250 C 
HETATM   16  N   UNL     1      28.434  41.557  50.522  1.00  0.00    -0.074 N 
HETATM   17  H   UNL     1      29.428  41.815  50.434  1.00  0.00     0.277 HD
HETATM   18  H   UNL     1      28.140  41.294  49.570  1.00  0.00     0.277 HD
HETATM   19  C   UNL     1      28.282  40.377  51.425  1.00  0.00     0.232 C 
HETATM   20  C   UNL     1      28.679  40.771  52.843  1.00  0.00     0.029 C 
HETATM   21  C   UNL     1      27.893  41.987  53.345  1.00  0.00     0.021 C 
ENDBRANCH  12  14
ENDBRANCH   8  12
TORSDOF 2
ENDMDL
MODEL 4
REMARK VINA RESULT:      -7.3      2.278      2.883
REMARK  2 active torsions:
REMARK  status: ('A' for Active; 'I' for Inactive)
REMARK    1  A    between atoms: C_8  and  S_9 
REMARK    2  A    between atoms: S_9  and  C_10 
ROOT
HETATM    1  C   UNL     1      30.405  43.058  54.542  1.00  0.00     0.002 A 
HETATM    2  C   UNL     1      29.396  43.152  53.583  1.00  0.00     0.034 A 
HETATM    3  C   UNL     1      28.479  44.196  53.600  1.00  0.00     0.087 A 
HETATM    4  C   UNL     1      28.573  45.180  54.621  1.00  0.00     0.087 A 
HETATM    5  N   UNL     1      27.704  46.206  54.689  1.00  0.00    -0.232 NA
HETATM    6  C   UNL     1      26.713  46.220  53.774  1.00  0.00     0.164 A 
HETATM    7 CL   UNL     1      25.649  47.557  53.914  1.00  0.00    -0.059 Cl
HETATM    8  C   UNL     1      26.623  45.265  52.775  1.00  0.00     0.165 A 
HETATM    9  N   UNL     1      27.523  44.259  52.648  1.00  0.00    -0.234 NA
HETATM   10  C   UNL     1      29.588  45.078  55.564  1.00  0.00     0.034 A 
HETATM   11  C   UNL     1      30.504  44.027  55.532  1.00  0.00     0.002 A 
ENDROOT
BRANCH   8  12
HETATM   12  S   UNL     1      25.340  45.241  51.531  1.00  0.00     0.078 S 
HETATM   13  O   UNL     1      25.793  44.291  50.462  1.00  0.00    -0.251 OA
BRANCH  12  14
HETATM   14  C   UNL     1      25.520  46.903  50.810  1.00  0.00     0.112 C 
HETATM   15  C   UNL     1      24.284  47.328  50.014  1.00  0.00     0.250 C 
HETATM   16  N   UNL     1      24.465  48.748  49.537  1.00  0.00    -0.074 N 
HETATM   17  H   UNL     1      24.467  49.388  50.345  1.00  0.00     0.277 HD
HETATM   18  H   UNL     1      23.634  49.011  48.988  1.00  0.00     0.277 HD
HETATM   19  C   UNL     1      25.688  48.957  48.706  1.00  0.00     0.232 C 
HETATM   20  C   UNL     1      26.918  48.533  49.500  1.00  0.00     0.029 C 
HETATM   21  C   UNL     1      26.807  47.092  50.009  1.00  0.00     0.021 C 
ENDBRANCH  12  14
ENDBRANCH   8  12
TORSDOF 2
ENDMDL
MODEL 5
REMARK VINA RESULT:      -7.1      3.728      7.759
REMARK  2 active torsions:
REMARK  status: ('A' for Active; 'I' for Inactive)
REMARK    1  A    between atoms: C_8  and  S_9 
REMARK    2  A    between atoms: S_9  and  C_10 
ROOT
HETATM    1  C   UNL     1      20.983  49.756  48.641  1.00  0.00     0.002 A 
HETATM    2  C   UNL     1      21.716  48.633  49.028  1.00  0.00     0.034 A 
HETATM    3  C   UNL     1      23.102  48.668  49.105  1.00  0.00     0.087 A 
HETATM    4  C   UNL     1      23.781  49.873  48.775  1.00  0.00     0.087 A 
HETATM    5  N   UNL     1      25.125  49.957  48.823  1.00  0.00    -0.232 NA
HETATM    6  C   UNL     1      25.790  48.829  49.147  1.00  0.00     0.164 A 
HETATM    7 CL   UNL     1      27.494  49.011  49.198  1.00  0.00    -0.059 Cl
HETATM    8  C   UNL     1      25.130  47.657  49.474  1.00  0.00     0.165 A 
HETATM    9  N   UNL     1      23.776  47.565  49.495  1.00  0.00    -0.234 NA
HETATM   10  C   UNL     1      23.038  50.985  48.400  1.00  0.00     0.034 A 
HETATM   11  C   UNL     1      21.647  50.936  48.330  1.00  0.00     0.002 A 
ENDROOT
BRANCH   8  12
HETATM   12  S   UNL     1      25.958  46.138  49.922  1.00  0.00     0.078 S 
HETATM   13  O   UNL     1      25.207  45.023  49.255  1.00  0.00    -0.251 OA
BRANCH  12  14
HETATM   14  C   UNL     1      25.536  46.016  51.689  1.00  0.00     0.112 C 
HETATM   15  C   UNL     1      26.231  47.092  52.527  1.00  0.00     0.250 C 
HETATM   16  N   UNL     1      25.754  46.991  53.955  1.00  0.00    -0.074 N 
HETATM   17  H   UNL     1      24.757  47.247  54.008  1.00  0.00     0.277 HD
HETATM   18  H   UNL     1      26.244  47.709  54.509  1.00  0.00     0.277 HD
HETATM   19  C   UNL     1      25.980  45.652  54.578  1.00  0.00     0.232 C 
HETATM   20  C   UNL     1      25.289  44.582  53.741  1.00  0.00     0.029 C 
HETATM   21  C   UNL     1      25.734  44.620  52.275  1.00  0.00     0.021 C 
ENDBRANCH  12  14
ENDBRANCH   8  12
TORSDOF 2
ENDMDL
MODEL 6
REMARK VINA RESULT:      -7.1      4.109      5.686
REMARK  2 active torsions:
REMARK  status: ('A' for Active; 'I' for Inactive)
REMARK    1  A    between atoms: C_8  and  S_9 
REMARK    2  A    between atoms: S_9  and  C_10 
ROOT
HETATM    1  C   UNL     1      26.478  46.127  53.937  1.00  0.00     0.002 A 
HETATM    2  C   UNL     1      26.059  47.099  53.028  1.00  0.00     0.034 A 
HETATM    3  C   UNL     1      25.320  46.762  51.901  1.00  0.00     0.087 A 
HETATM    4  C   UNL     1      24.993  45.397  51.673  1.00  0.00     0.087 A 
HETATM    5  N   UNL     1      24.287  45.016  50.591  1.00  0.00    -0.232 NA
HETATM    6  C   UNL     1      23.956  45.985  49.713  1.00  0.00     0.164 A 
HETATM    7 CL   UNL     1      23.052  45.430  48.366  1.00  0.00    -0.059 Cl
HETATM    8  C   UNL     1      24.268  47.315  49.937  1.00  0.00     0.165 A 
HETATM    9  N   UNL     1      24.922  47.732  51.050  1.00  0.00    -0.234 NA
HETATM   10  C   UNL     1      25.409  44.442  52.591  1.00  0.00     0.034 A 
HETATM   11  C   UNL     1      26.148  44.795  53.720  1.00  0.00     0.002 A 
ENDROOT
BRANCH   8  12
HETATM   12  S   UNL     1      23.844  48.641  48.816  1.00  0.00     0.078 S 
HETATM   13  O   UNL     1      24.823  49.750  49.068  1.00  0.00    -0.251 OA
BRANCH  12  14
HETATM   14  C   UNL     1      22.270  49.212  49.528  1.00  0.00     0.112 C 
HETATM   15  C   UNL     1      21.095  48.314  49.136  1.00  0.00     0.250 C 
HETATM   16  N   UNL     1      19.850  48.790  49.845  1.00  0.00    -0.074 N 
HETATM   17  H   UNL     1      19.947  48.635  50.859  1.00  0.00     0.277 HD
HETATM   18  H   UNL     1      19.065  48.187  49.556  1.00  0.00     0.277 HD
HETATM   19  C   UNL     1      19.501  50.215  49.567  1.00  0.00     0.232 C 
HETATM   20  C   UNL     1      20.673  51.108  49.957  1.00  0.00     0.029 C 
HETATM   21  C   UNL     1      21.973  50.687  49.264  1.00  0.00     0.021 C 
ENDBRANCH  12  14
ENDBRANCH   8  12
TORSDOF 2
ENDMDL
MODEL 7
REMARK VINA RESULT:      -6.8      3.000      4.688
REMARK  2 active torsions:
REMARK  status: ('A' for Active; 'I' for Inactive)
REMARK    1  A    between atoms: C_8  and  S_9 
REMARK    2  A    between atoms: S_9  and  C_10 
ROOT
HETATM    1  C   UNL     1      30.491  43.060  54.432  1.00  0.00     0.002 A 
HETATM    2  C   UNL     1      29.788  42.672  53.291  1.00  0.00     0.034 A 
HETATM    3  C   UNL     1      28.615  43.314  52.913  1.00  0.00     0.087 A 
HETATM    4  C   UNL     1      28.124  44.381  53.714  1.00  0.00     0.087 A 
HETATM    5  N   UNL     1      26.987  45.030  53.398  1.00  0.00    -0.232 NA
HETATM    6  C   UNL     1      26.314  44.580  52.319  1.00  0.00     0.164 A 
HETATM    7 CL   UNL     1      24.882  45.457  51.971  1.00  0.00    -0.059 Cl
HETATM    8  C   UNL     1      26.794  43.545  51.535  1.00  0.00     0.165 A 
HETATM    9  N   UNL     1      27.969  42.919  51.796  1.00  0.00    -0.234 NA
HETATM   10  C   UNL     1      28.839  44.761  54.843  1.00  0.00     0.034 A 
HETATM   11  C   UNL     1      30.017  44.110  55.207  1.00  0.00     0.002 A 
ENDROOT
BRANCH   8  12
HETATM   12  S   UNL     1      25.953  42.918  50.089  1.00  0.00     0.078 S 
HETATM   13  O   UNL     1      24.634  42.377  50.557  1.00  0.00    -0.251 OA
BRANCH  12  14
HETATM   14  C   UNL     1      26.965  41.456  49.700  1.00  0.00     0.112 C 
HETATM   15  C   UNL     1      27.457  41.457  48.251  1.00  0.00     0.250 C 
HETATM   16  N   UNL     1      28.369  40.275  48.036  1.00  0.00    -0.074 N 
HETATM   17  H   UNL     1      29.232  40.396  48.586  1.00  0.00     0.277 HD
HETATM   18  H   UNL     1      28.676  40.280  47.052  1.00  0.00     0.277 HD
HETATM   19  C   UNL     1      27.737  38.957  48.345  1.00  0.00     0.232 C 
HETATM   20  C   UNL     1      27.247  38.958  49.789  1.00  0.00     0.029 C 
HETATM   21  C   UNL     1      26.305  40.131  50.077  1.00  0.00     0.021 C 
ENDBRANCH  12  14
ENDBRANCH   8  12
TORSDOF 2
ENDMDL
MODEL 8
REMARK VINA RESULT:      -6.7     12.491     13.711
REMARK  2 active torsions:
REMARK  status: ('A' for Active; 'I' for Inactive)
REMARK    1  A    between atoms: C_8  and  S_9 
REMARK    2  A    between atoms: S_9  and  C_10 
ROOT
HETATM    1  C   UNL     1      33.265  51.906  44.294  1.00  0.00     0.002 A 
HETATM    2  C   UNL     1      32.045  51.985  43.623  1.00  0.00     0.034 A 
HETATM    3  C   UNL     1      31.963  51.790  42.249  1.00  0.00     0.087 A 
HETATM    4  C   UNL     1      33.150  51.512  41.520  1.00  0.00     0.087 A 
HETATM    5  N   UNL     1      33.127  51.325  40.187  1.00  0.00    -0.232 NA
HETATM    6  C   UNL     1      31.933  51.469  39.577  1.00  0.00     0.164 A 
HETATM    7 CL   UNL     1      31.976  51.209  37.882  1.00  0.00    -0.059 Cl
HETATM    8  C   UNL     1      30.774  51.734  40.287  1.00  0.00     0.165 A 
HETATM    9  N   UNL     1      30.762  51.863  41.637  1.00  0.00    -0.234 NA
HETATM   10  C   UNL     1      34.357  51.428  42.203  1.00  0.00     0.034 A 
HETATM   11  C   UNL     1      34.424  51.622  43.582  1.00  0.00     0.002 A 
ENDROOT
BRANCH   8  12
HETATM   12  S   UNL     1      29.165  51.922  39.533  1.00  0.00     0.078 S 
HETATM   13  O   UNL     1      28.403  52.899  40.379  1.00  0.00    -0.251 OA
BRANCH  12  14
HETATM   14  C   UNL     1      28.422  50.297  39.882  1.00  0.00     0.112 C 
HETATM   15  C   UNL     1      27.720  50.259  41.241  1.00  0.00     0.250 C 
HETATM   16  N   UNL     1      27.044  48.920  41.412  1.00  0.00    -0.074 N 
HETATM   17  H   UNL     1      26.271  48.832  40.736  1.00  0.00     0.277 HD
HETATM   18  H   UNL     1      26.593  48.904  42.338  1.00  0.00     0.277 HD
HETATM   19  C   UNL     1      27.971  47.754  41.298  1.00  0.00     0.232 C 
HETATM   20  C   UNL     1      28.670  47.795  39.944  1.00  0.00     0.029 C 
HETATM   21  C   UNL     1      29.388  49.127  39.706  1.00  0.00     0.021 C 
ENDBRANCH  12  14
ENDBRANCH   8  12
TORSDOF 2
ENDMDL
MODEL 9
REMARK VINA RESULT:      -6.7      5.636      7.380
REMARK  2 active torsions:
REMARK  status: ('A' for Active; 'I' for Inactive)
REMARK    1  A    between atoms: C_8  and  S_9 
REMARK    2  A    between atoms: S_9  and  C_10 
ROOT
HETATM    1  C   UNL     1      27.133  50.123  48.616  1.00  0.00     0.002 A 
HETATM    2  C   UNL     1      25.764  49.996  48.381  1.00  0.00     0.034 A 
HETATM    3  C   UNL     1      25.072  48.847  48.744  1.00  0.00     0.087 A 
HETATM    4  C   UNL     1      25.782  47.781  49.360  1.00  0.00     0.087 A 
HETATM    5  N   UNL     1      25.161  46.642  49.722  1.00  0.00    -0.232 NA
HETATM    6  C   UNL     1      23.850  46.546  49.421  1.00  0.00     0.164 A 
HETATM    7 CL   UNL     1      23.123  45.074  49.918  1.00  0.00    -0.059 Cl
HETATM    8  C   UNL     1      23.156  47.586  48.826  1.00  0.00     0.165 A 
HETATM    9  N   UNL     1      23.745  48.766  48.511  1.00  0.00    -0.234 NA
HETATM   10  C   UNL     1      27.143  47.924  49.596  1.00  0.00     0.034 A 
HETATM   11  C   UNL     1      27.823  49.085  49.229  1.00  0.00     0.002 A 
ENDROOT
BRANCH   8  12
HETATM   12  S   UNL     1      21.418  47.519  48.417  1.00  0.00     0.078 S 
HETATM   13  O   UNL     1      21.322  47.619  46.923  1.00  0.00    -0.251 OA
BRANCH  12  14
HETATM   14  C   UNL     1      20.847  49.128  49.048  1.00  0.00     0.112 C 
HETATM   15  C   UNL     1      19.578  49.003  49.894  1.00  0.00     0.250 C 
HETATM   16  N   UNL     1      19.227  50.355  50.464  1.00  0.00    -0.074 N 
HETATM   17  H   UNL     1      19.946  50.643  51.145  1.00  0.00     0.277 HD
HETATM   18  H   UNL     1      18.361  50.257  51.015  1.00  0.00     0.277 HD
HETATM   19  C   UNL     1      19.033  51.417  49.432  1.00  0.00     0.232 C 
HETATM   20  C   UNL     1      20.298  51.539  48.589  1.00  0.00     0.029 C 
HETATM   21  C   UNL     1      20.709  50.200  47.969  1.00  0.00     0.021 C 
ENDBRANCH  12  14
ENDBRANCH   8  12
TORSDOF 2
ENDMDL
MODEL 10
REMARK VINA RESULT:      -6.6     12.947     13.713
REMARK  2 active torsions:
REMARK  status: ('A' for Active; 'I' for Inactive)
REMARK    1  A    between atoms: C_8  and  S_9 
REMARK    2  A    between atoms: S_9  and  C_10 
ROOT
HETATM    1  C   UNL     1      33.845  50.841  42.500  1.00  0.00     0.002 A 
HETATM    2  C   UNL     1      33.043  50.654  41.374  1.00  0.00     0.034 A 
HETATM    3  C   UNL     1      31.751  51.163  41.317  1.00  0.00     0.087 A 
HETATM    4  C   UNL     1      31.242  51.880  42.433  1.00  0.00     0.087 A 
HETATM    5  N   UNL     1      29.993  52.385  42.432  1.00  0.00    -0.232 NA
HETATM    6  C   UNL     1      29.238  52.128  41.344  1.00  0.00     0.164 A 
HETATM    7 CL   UNL     1      27.665  52.807  41.407  1.00  0.00    -0.059 Cl
HETATM    8  C   UNL     1      29.735  51.434  40.254  1.00  0.00     0.165 A 
HETATM    9  N   UNL     1      31.009  50.972  40.205  1.00  0.00    -0.234 NA
HETATM   10  C   UNL     1      32.055  52.066  43.543  1.00  0.00     0.034 A 
HETATM   11  C   UNL     1      33.351  51.552  43.586  1.00  0.00     0.002 A 
ENDROOT
BRANCH   8  12
HETATM   12  S   UNL     1      28.785  51.076  38.783  1.00  0.00     0.078 S 
HETATM   13  O   UNL     1      28.312  52.393  38.242  1.00  0.00    -0.251 OA
BRANCH  12  14
HETATM   14  C   UNL     1      27.309  50.290  39.502  1.00  0.00     0.112 C 
HETATM   15  C   UNL     1      27.659  49.079  40.368  1.00  0.00     0.250 C 
HETATM   16  N   UNL     1      26.400  48.547  41.009  1.00  0.00    -0.074 N 
HETATM   17  H   UNL     1      26.037  49.234  41.686  1.00  0.00     0.277 HD
HETATM   18  H   UNL     1      26.651  47.722  41.573  1.00  0.00     0.277 HD
HETATM   19  C   UNL     1      25.336  48.168  40.032  1.00  0.00     0.232 C 
HETATM   20  C   UNL     1      24.989  49.376  39.169  1.00  0.00     0.029 C 
HETATM   21  C   UNL     1      26.224  49.964  38.477  1.00  0.00     0.021 C 
ENDBRANCH  12  14
ENDBRANCH   8  12
TORSDOF 2
ENDMDL
