MODEL 1
REMARK VINA RESULT:     -11.5      0.000      0.000
REMARK  4 active torsions:
REMARK  status: ('A' for Active; 'I' for Inactive)
REMARK    1  A    between atoms: C_2  and  C_3 
REMARK    2  A    between atoms: N_16  and  C_17 
REMARK    3  A    between atoms: C_17  and  C_18 
REMARK       I    between atoms: C_18  and  N_19 
REMARK    4  A    between atoms: N_19  and  C_20 
ROOT
HETATM    1  C   UNL     1      27.747  41.706  52.868  1.00  0.00     0.054 C 
HETATM    2  C   UNL     1      27.677  43.234  52.857  1.00  0.00     0.140 A 
HETATM    3  N   UNL     1      28.136  43.719  51.569  1.00  0.00    -0.321 N 
HETATM    4  C   UNL     1      27.173  44.430  50.894  1.00  0.00     0.326 A 
HETATM    5  O   UNL     1      27.375  45.023  49.851  1.00  0.00    -0.247 OA
HETATM    6  N   UNL     1      26.019  44.383  51.611  1.00  0.00    -0.259 N 
HETATM    7  C   UNL     1      26.191  43.663  52.760  1.00  0.00     0.261 A 
HETATM    8  O   UNL     1      25.293  43.394  53.550  1.00  0.00    -0.270 OA
HETATM    9  H   UNL     1      29.099  43.729  51.260  1.00  0.00     0.165 HD
ENDROOT
BRANCH   6  10
HETATM   10  C   UNL     1      24.787  45.029  51.213  1.00  0.00     0.240 C 
BRANCH  10  11
HETATM   11  C   UNL     1      25.021  46.518  50.971  1.00  0.00     0.240 C 
HETATM   12  N   UNL     1      24.997  46.869  49.627  1.00  0.00    -0.325 N 
HETATM   13  H   UNL     1      24.731  46.133  48.979  1.00  0.00     0.169 HD
HETATM   14  O   UNL     1      25.121  47.293  51.917  1.00  0.00    -0.271 OA
BRANCH  12  15
HETATM   15  C   UNL     1      25.189  48.169  49.083  1.00  0.00     0.047 A 
HETATM   16  C   UNL     1      24.061  48.935  48.648  1.00  0.00     0.019 A 
HETATM   17  C   UNL     1      24.271  50.226  48.103  1.00  0.00     0.069 A 
HETATM   18  C   UNL     1      22.709  48.524  48.741  1.00  0.00     0.017 A 
HETATM   19  N   UNL     1      23.275  51.028  47.686  1.00  0.00    -0.260 NA
HETATM   20  C   UNL     1      25.561  50.714  47.988  1.00  0.00     0.032 A 
HETATM   21  C   UNL     1      22.007  50.589  47.803  1.00  0.00     0.117 A 
HETATM   22  C   UNL     1      21.675  49.356  48.319  1.00  0.00     0.020 A 
HETATM   23  C   UNL     1      26.661  49.970  48.400  1.00  0.00     0.005 A 
HETATM   24  C   UNL     1      26.475  48.705  48.944  1.00  0.00     0.030 A 
ENDBRANCH  12  15
ENDBRANCH  10  11
ENDBRANCH   6  10
BRANCH   2  25
HETATM   25  C   UNL     1      28.410  43.955  53.989  1.00  0.00    -0.020 A 
HETATM   26  C   UNL     1      29.466  43.316  54.677  1.00  0.00     0.022 A 
HETATM   27  C   UNL     1      30.143  43.926  55.750  1.00  0.00    -0.025 A 
HETATM   28  C   UNL     1      29.769  45.224  56.150  1.00  0.00    -0.026 A 
HETATM   29  C   UNL     1      31.177  43.267  56.436  1.00  0.00     0.012 A 
HETATM   30  C   UNL     1      28.735  45.875  55.462  1.00  0.00     0.013 A 
HETATM   31  C   UNL     1      30.437  45.832  57.227  1.00  0.00     0.012 A 
HETATM   32  C   UNL     1      28.068  45.252  54.400  1.00  0.00     0.011 A 
HETATM   33  C   UNL     1      31.461  45.164  57.901  1.00  0.00     0.001 A 
HETATM   34  C   UNL     1      31.830  43.882  57.505  1.00  0.00     0.001 A 
ENDBRANCH   2  25
TORSDOF 4
ENDMDL
MODEL 2
REMARK VINA RESULT:     -11.3      1.909      9.359
REMARK  4 active torsions:
REMARK  status: ('A' for Active; 'I' for Inactive)
REMARK    1  A    between atoms: C_2  and  C_3 
REMARK    2  A    between atoms: N_16  and  C_17 
REMARK    3  A    between atoms: C_17  and  C_18 
REMARK       I    between atoms: C_18  and  N_19 
REMARK    4  A    between atoms: N_19  and  C_20 
ROOT
HETATM    1  C   UNL     1      27.142  46.376  49.560  1.00  0.00     0.054 C 
HETATM    2  C   UNL     1      25.760  46.590  50.181  1.00  0.00     0.140 A 
HETATM    3  N   UNL     1      25.036  45.333  50.165  1.00  0.00    -0.321 N 
HETATM    4  C   UNL     1      24.693  44.901  51.423  1.00  0.00     0.326 A 
HETATM    5  O   UNL     1      23.986  43.934  51.639  1.00  0.00    -0.247 OA
HETATM    6  N   UNL     1      25.233  45.752  52.335  1.00  0.00    -0.259 N 
HETATM    7  C   UNL     1      25.923  46.755  51.713  1.00  0.00     0.261 A 
HETATM    8  O   UNL     1      26.577  47.612  52.296  1.00  0.00    -0.270 OA
HETATM    9  H   UNL     1      24.635  44.902  49.342  1.00  0.00     0.165 HD
ENDROOT
BRANCH   6  10
HETATM   10  C   UNL     1      25.075  45.618  53.766  1.00  0.00     0.240 C 
BRANCH  10  11
HETATM   11  C   UNL     1      26.152  44.698  54.337  1.00  0.00     0.240 C 
HETATM   12  N   UNL     1      27.440  45.196  54.185  1.00  0.00    -0.325 N 
HETATM   13  H   UNL     1      27.512  46.138  53.815  1.00  0.00     0.169 HD
HETATM   14  O   UNL     1      25.840  43.676  54.941  1.00  0.00    -0.271 OA
BRANCH  12  15
HETATM   15  C   UNL     1      28.648  44.571  54.602  1.00  0.00     0.047 A 
HETATM   16  C   UNL     1      29.266  44.961  55.833  1.00  0.00     0.019 A 
HETATM   17  C   UNL     1      30.473  44.333  56.230  1.00  0.00     0.069 A 
HETATM   18  C   UNL     1      28.753  45.925  56.736  1.00  0.00     0.017 A 
HETATM   19  N   UNL     1      31.115  44.617  57.377  1.00  0.00    -0.260 NA
HETATM   20  C   UNL     1      31.037  43.368  55.415  1.00  0.00     0.032 A 
HETATM   21  C   UNL     1      30.580  45.538  58.201  1.00  0.00     0.117 A 
HETATM   22  C   UNL     1      29.412  46.214  57.928  1.00  0.00     0.020 A 
HETATM   23  C   UNL     1      30.447  42.992  54.213  1.00  0.00     0.005 A 
HETATM   24  C   UNL     1      29.259  43.591  53.811  1.00  0.00     0.030 A 
ENDBRANCH  12  15
ENDBRANCH  10  11
ENDBRANCH   6  10
BRANCH   2  25
HETATM   25  C   UNL     1      24.908  47.703  49.570  1.00  0.00    -0.020 A 
HETATM   26  C   UNL     1      23.502  47.574  49.504  1.00  0.00     0.022 A 
HETATM   27  C   UNL     1      22.684  48.556  48.916  1.00  0.00    -0.025 A 
HETATM   28  C   UNL     1      23.276  49.717  48.383  1.00  0.00    -0.026 A 
HETATM   29  C   UNL     1      21.289  48.400  48.841  1.00  0.00     0.012 A 
HETATM   30  C   UNL     1      24.668  49.865  48.459  1.00  0.00     0.013 A 
HETATM   31  C   UNL     1      22.461  50.695  47.786  1.00  0.00     0.012 A 
HETATM   32  C   UNL     1      25.470  48.876  49.043  1.00  0.00     0.011 A 
HETATM   33  C   UNL     1      21.078  50.525  47.718  1.00  0.00     0.001 A 
HETATM   34  C   UNL     1      20.492  49.378  48.245  1.00  0.00     0.001 A 
ENDBRANCH   2  25
TORSDOF 4
ENDMDL
MODEL 3
REMARK VINA RESULT:     -11.0      3.758      7.335
REMARK  4 active torsions:
REMARK  status: ('A' for Active; 'I' for Inactive)
REMARK    1  A    between atoms: C_2  and  C_3 
REMARK    2  A    between atoms: N_16  and  C_17 
REMARK    3  A    between atoms: C_17  and  C_18 
REMARK       I    between atoms: C_18  and  N_19 
REMARK    4  A    between atoms: N_19  and  C_20 
ROOT
HETATM    1  C   UNL     1      26.133  46.613  51.985  1.00  0.00     0.054 C 
HETATM    2  C   UNL     1      26.360  45.101  51.931  1.00  0.00     0.140 A 
HETATM    3  N   UNL     1      25.115  44.425  52.242  1.00  0.00    -0.321 N 
HETATM    4  C   UNL     1      24.672  43.627  51.215  1.00  0.00     0.326 A 
HETATM    5  O   UNL     1      23.713  42.882  51.301  1.00  0.00    -0.247 OA
HETATM    6  N   UNL     1      25.503  43.789  50.152  1.00  0.00    -0.259 N 
HETATM    7  C   UNL     1      26.502  44.673  50.449  1.00  0.00     0.261 A 
HETATM    8  O   UNL     1      27.342  45.065  49.646  1.00  0.00    -0.270 OA
HETATM    9  H   UNL     1      24.701  44.362  53.163  1.00  0.00     0.165 HD
ENDROOT
BRANCH   6  10
HETATM   10  C   UNL     1      25.352  43.100  48.889  1.00  0.00     0.240 C 
BRANCH  10  11
HETATM   11  C   UNL     1      25.816  41.651  49.015  1.00  0.00     0.240 C 
HETATM   12  N   UNL     1      27.199  41.511  49.009  1.00  0.00    -0.325 N 
HETATM   13  H   UNL     1      27.733  42.375  49.025  1.00  0.00     0.169 HD
HETATM   14  O   UNL     1      25.001  40.751  49.195  1.00  0.00    -0.271 OA
BRANCH  12  15
HETATM   15  C   UNL     1      27.932  40.296  49.101  1.00  0.00     0.047 A 
HETATM   16  C   UNL     1      28.089  39.467  47.945  1.00  0.00     0.019 A 
HETATM   17  C   UNL     1      28.817  38.257  48.056  1.00  0.00     0.069 A 
HETATM   18  C   UNL     1      27.595  39.766  46.652  1.00  0.00     0.017 A 
HETATM   19  N   UNL     1      29.035  37.423  47.024  1.00  0.00    -0.260 NA
HETATM   20  C   UNL     1      29.349  37.894  49.282  1.00  0.00     0.032 A 
HETATM   21  C   UNL     1      28.547  37.759  45.815  1.00  0.00     0.117 A 
HETATM   22  C   UNL     1      27.826  38.909  45.579  1.00  0.00     0.020 A 
HETATM   23  C   UNL     1      29.192  38.690  50.410  1.00  0.00     0.005 A 
HETATM   24  C   UNL     1      28.488  39.885  50.319  1.00  0.00     0.030 A 
ENDBRANCH  12  15
ENDBRANCH  10  11
ENDBRANCH   6  10
BRANCH   2  25
HETATM   25  C   UNL     1      27.495  44.554  52.799  1.00  0.00    -0.020 A 
HETATM   26  C   UNL     1      27.876  45.225  53.983  1.00  0.00     0.022 A 
HETATM   27  C   UNL     1      28.939  44.779  54.790  1.00  0.00    -0.025 A 
HETATM   28  C   UNL     1      29.644  43.617  54.419  1.00  0.00    -0.026 A 
HETATM   29  C   UNL     1      29.318  45.471  55.953  1.00  0.00     0.012 A 
HETATM   30  C   UNL     1      29.262  42.933  53.257  1.00  0.00     0.013 A 
HETATM   31  C   UNL     1      30.713  43.175  55.219  1.00  0.00     0.012 A 
HETATM   32  C   UNL     1      28.206  43.393  52.461  1.00  0.00     0.011 A 
HETATM   33  C   UNL     1      31.078  43.874  56.371  1.00  0.00     0.001 A 
HETATM   34  C   UNL     1      30.381  45.021  56.737  1.00  0.00     0.001 A 
ENDBRANCH   2  25
TORSDOF 4
ENDMDL
MODEL 4
REMARK VINA RESULT:     -10.7      1.956      2.956
REMARK  4 active torsions:
REMARK  status: ('A' for Active; 'I' for Inactive)
REMARK    1  A    between atoms: C_2  and  C_3 
REMARK    2  A    between atoms: N_16  and  C_17 
REMARK    3  A    between atoms: C_17  and  C_18 
REMARK       I    between atoms: C_18  and  N_19 
REMARK    4  A    between atoms: N_19  and  C_20 
ROOT
HETATM    1  C   UNL     1      26.492  42.092  51.162  1.00  0.00     0.054 C 
HETATM    2  C   UNL     1      27.032  43.468  51.558  1.00  0.00     0.140 A 
HETATM    3  N   UNL     1      27.568  44.122  50.379  1.00  0.00    -0.321 N 
HETATM    4  C   UNL     1      26.927  45.302  50.087  1.00  0.00     0.326 A 
HETATM    5  O   UNL     1      27.286  46.070  49.213  1.00  0.00    -0.247 OA
HETATM    6  N   UNL     1      25.894  45.459  50.955  1.00  0.00    -0.259 N 
HETATM    7  C   UNL     1      25.835  44.412  51.832  1.00  0.00     0.261 A 
HETATM    8  O   UNL     1      24.952  44.258  52.669  1.00  0.00    -0.270 OA
HETATM    9  H   UNL     1      28.437  43.877  49.922  1.00  0.00     0.165 HD
ENDROOT
BRANCH   6  10
HETATM   10  C   UNL     1      24.997  46.594  50.956  1.00  0.00     0.240 C 
BRANCH  10  11
HETATM   11  C   UNL     1      23.885  46.394  49.929  1.00  0.00     0.240 C 
HETATM   12  N   UNL     1      23.247  47.575  49.569  1.00  0.00    -0.325 N 
HETATM   13  H   UNL     1      23.650  48.429  49.942  1.00  0.00     0.169 HD
HETATM   14  O   UNL     1      23.683  45.286  49.438  1.00  0.00    -0.271 OA
BRANCH  12  15
HETATM   15  C   UNL     1      22.172  47.715  48.649  1.00  0.00     0.047 A 
HETATM   16  C   UNL     1      21.427  48.936  48.601  1.00  0.00     0.019 A 
HETATM   17  C   UNL     1      20.355  49.057  47.682  1.00  0.00     0.069 A 
HETATM   18  C   UNL     1      21.687  50.083  49.391  1.00  0.00     0.017 A 
HETATM   19  N   UNL     1      19.612  50.169  47.550  1.00  0.00    -0.260 NA
HETATM   20  C   UNL     1      20.042  47.989  46.859  1.00  0.00     0.032 A 
HETATM   21  C   UNL     1      19.905  51.232  48.323  1.00  0.00     0.117 A 
HETATM   22  C   UNL     1      20.923  51.239  49.250  1.00  0.00     0.020 A 
HETATM   23  C   UNL     1      20.756  46.797  46.908  1.00  0.00     0.005 A 
HETATM   24  C   UNL     1      21.815  46.662  47.797  1.00  0.00     0.030 A 
ENDBRANCH  12  15
ENDBRANCH  10  11
ENDBRANCH   6  10
BRANCH   2  25
HETATM   25  C   UNL     1      28.057  43.494  52.693  1.00  0.00    -0.020 A 
HETATM   26  C   UNL     1      27.986  44.485  53.698  1.00  0.00     0.022 A 
HETATM   27  C   UNL     1      28.930  44.569  54.738  1.00  0.00    -0.025 A 
HETATM   28  C   UNL     1      29.978  43.630  54.795  1.00  0.00    -0.026 A 
HETATM   29  C   UNL     1      28.855  45.575  55.717  1.00  0.00     0.012 A 
HETATM   30  C   UNL     1      30.047  42.631  53.813  1.00  0.00     0.013 A 
HETATM   31  C   UNL     1      30.927  43.717  55.827  1.00  0.00     0.012 A 
HETATM   32  C   UNL     1      29.103  42.563  52.782  1.00  0.00     0.011 A 
HETATM   33  C   UNL     1      30.841  44.723  56.792  1.00  0.00     0.001 A 
HETATM   34  C   UNL     1      29.806  45.651  56.736  1.00  0.00     0.001 A 
ENDBRANCH   2  25
TORSDOF 4
ENDMDL
MODEL 5
REMARK VINA RESULT:     -10.7      3.431      7.489
REMARK  4 active torsions:
REMARK  status: ('A' for Active; 'I' for Inactive)
REMARK    1  A    between atoms: C_2  and  C_3 
REMARK    2  A    between atoms: N_16  and  C_17 
REMARK    3  A    between atoms: C_17  and  C_18 
REMARK       I    between atoms: C_18  and  N_19 
REMARK    4  A    between atoms: N_19  and  C_20 
ROOT
HETATM    1  C   UNL     1      24.362  42.082  48.390  1.00  0.00     0.054 C 
HETATM    2  C   UNL     1      25.417  42.606  49.367  1.00  0.00     0.140 A 
HETATM    3  N   UNL     1      26.037  43.789  48.802  1.00  0.00    -0.321 N 
HETATM    4  C   UNL     1      25.861  44.907  49.582  1.00  0.00     0.326 A 
HETATM    5  O   UNL     1      26.391  45.980  49.360  1.00  0.00    -0.247 OA
HETATM    6  N   UNL     1      25.055  44.581  50.628  1.00  0.00    -0.259 N 
HETATM    7  C   UNL     1      24.696  43.263  50.571  1.00  0.00     0.261 A 
HETATM    8  O   UNL     1      23.909  42.725  51.342  1.00  0.00    -0.270 OA
HETATM    9  H   UNL     1      26.699  43.791  48.037  1.00  0.00     0.165 HD
ENDROOT
BRANCH   6  10
HETATM   10  C   UNL     1      24.655  45.506  51.666  1.00  0.00     0.240 C 
BRANCH  10  11
HETATM   11  C   UNL     1      25.396  45.201  52.964  1.00  0.00     0.240 C 
HETATM   12  N   UNL     1      26.628  45.839  53.060  1.00  0.00    -0.325 N 
HETATM   13  H   UNL     1      26.844  46.500  52.321  1.00  0.00     0.169 HD
HETATM   14  O   UNL     1      24.864  44.525  53.841  1.00  0.00    -0.271 OA
BRANCH  12  15
HETATM   15  C   UNL     1      27.552  45.748  54.138  1.00  0.00     0.047 A 
HETATM   16  C   UNL     1      28.575  44.748  54.119  1.00  0.00     0.019 A 
HETATM   17  C   UNL     1      29.484  44.669  55.203  1.00  0.00     0.069 A 
HETATM   18  C   UNL     1      28.792  43.820  53.071  1.00  0.00     0.017 A 
HETATM   19  N   UNL     1      30.489  43.778  55.266  1.00  0.00    -0.260 NA
HETATM   20  C   UNL     1      29.355  45.548  56.264  1.00  0.00     0.032 A 
HETATM   21  C   UNL     1      30.653  42.922  54.240  1.00  0.00     0.117 A 
HETATM   22  C   UNL     1      29.838  42.903  53.130  1.00  0.00     0.020 A 
HETATM   23  C   UNL     1      28.356  46.515  56.293  1.00  0.00     0.005 A 
HETATM   24  C   UNL     1      27.461  46.614  55.234  1.00  0.00     0.030 A 
ENDBRANCH  12  15
ENDBRANCH  10  11
ENDBRANCH   6  10
BRANCH   2  25
HETATM   25  C   UNL     1      26.485  41.606  49.813  1.00  0.00    -0.020 A 
HETATM   26  C   UNL     1      27.128  40.778  48.866  1.00  0.00     0.022 A 
HETATM   27  C   UNL     1      28.088  39.817  49.236  1.00  0.00    -0.025 A 
HETATM   28  C   UNL     1      28.434  39.679  50.594  1.00  0.00    -0.026 A 
HETATM   29  C   UNL     1      28.702  38.988  48.282  1.00  0.00     0.012 A 
HETATM   30  C   UNL     1      27.816  40.508  51.540  1.00  0.00     0.013 A 
HETATM   31  C   UNL     1      29.386  38.714  50.968  1.00  0.00     0.012 A 
HETATM   32  C   UNL     1      26.859  41.456  51.157  1.00  0.00     0.011 A 
HETATM   33  C   UNL     1      29.986  37.896  50.010  1.00  0.00     0.001 A 
HETATM   34  C   UNL     1      29.644  38.033  48.668  1.00  0.00     0.001 A 
ENDBRANCH   2  25
TORSDOF 4
ENDMDL
MODEL 6
REMARK VINA RESULT:     -10.4      2.619      3.879
REMARK  4 active torsions:
REMARK  status: ('A' for Active; 'I' for Inactive)
REMARK    1  A    between atoms: C_2  and  C_3 
REMARK    2  A    between atoms: N_16  and  C_17 
REMARK    3  A    between atoms: C_17  and  C_18 
REMARK       I    between atoms: C_18  and  N_19 
REMARK    4  A    between atoms: N_19  and  C_20 
ROOT
HETATM    1  C   UNL     1      26.094  42.555  50.593  1.00  0.00     0.054 C 
HETATM    2  C   UNL     1      26.725  43.827  51.163  1.00  0.00     0.140 A 
HETATM    3  N   UNL     1      27.279  44.609  50.074  1.00  0.00    -0.321 N 
HETATM    4  C   UNL     1      26.707  45.853  49.966  1.00  0.00     0.326 A 
HETATM    5  O   UNL     1      27.096  46.715  49.199  1.00  0.00    -0.247 OA
HETATM    6  N   UNL     1      25.700  45.946  50.875  1.00  0.00    -0.259 N 
HETATM    7  C   UNL     1      25.593  44.791  51.598  1.00  0.00     0.261 A 
HETATM    8  O   UNL     1      24.716  44.572  52.428  1.00  0.00    -0.270 OA
HETATM    9  H   UNL     1      28.123  44.381  49.564  1.00  0.00     0.165 HD
ENDROOT
BRANCH   6  10
HETATM   10  C   UNL     1      24.875  47.119  51.058  1.00  0.00     0.240 C 
BRANCH  10  11
HETATM   11  C   UNL     1      24.104  47.433  49.778  1.00  0.00     0.240 C 
HETATM   12  N   UNL     1      23.079  46.531  49.516  1.00  0.00    -0.325 N 
HETATM   13  H   UNL     1      22.896  45.843  50.240  1.00  0.00     0.169 HD
HETATM   14  O   UNL     1      24.352  48.449  49.135  1.00  0.00    -0.271 OA
BRANCH  12  15
HETATM   15  C   UNL     1      22.193  46.549  48.403  1.00  0.00     0.047 A 
HETATM   16  C   UNL     1      22.287  45.533  47.400  1.00  0.00     0.019 A 
HETATM   17  C   UNL     1      21.401  45.569  46.295  1.00  0.00     0.069 A 
HETATM   18  C   UNL     1      23.191  44.442  47.423  1.00  0.00     0.017 A 
HETATM   19  N   UNL     1      21.398  44.649  45.314  1.00  0.00    -0.260 NA
HETATM   20  C   UNL     1      20.473  46.592  46.200  1.00  0.00     0.032 A 
HETATM   21  C   UNL     1      22.276  43.630  45.389  1.00  0.00     0.117 A 
HETATM   22  C   UNL     1      23.184  43.484  46.413  1.00  0.00     0.020 A 
HETATM   23  C   UNL     1      20.384  47.587  47.167  1.00  0.00     0.005 A 
HETATM   24  C   UNL     1      21.240  47.564  48.262  1.00  0.00     0.030 A 
ENDBRANCH  12  15
ENDBRANCH  10  11
ENDBRANCH   6  10
BRANCH   2  25
HETATM   25  C   UNL     1      27.769  43.633  52.263  1.00  0.00    -0.020 A 
HETATM   26  C   UNL     1      27.895  44.579  53.305  1.00  0.00     0.022 A 
HETATM   27  C   UNL     1      28.867  44.459  54.316  1.00  0.00    -0.025 A 
HETATM   28  C   UNL     1      29.740  43.355  54.304  1.00  0.00    -0.026 A 
HETATM   29  C   UNL     1      28.991  45.422  55.332  1.00  0.00     0.012 A 
HETATM   30  C   UNL     1      29.612  42.399  53.285  1.00  0.00     0.013 A 
HETATM   31  C   UNL     1      30.718  43.238  55.307  1.00  0.00     0.012 A 
HETATM   32  C   UNL     1      28.643  42.535  52.284  1.00  0.00     0.011 A 
HETATM   33  C   UNL     1      30.831  44.203  56.309  1.00  0.00     0.001 A 
HETATM   34  C   UNL     1      29.967  45.294  56.321  1.00  0.00     0.001 A 
ENDBRANCH   2  25
TORSDOF 4
ENDMDL
MODEL 7
REMARK VINA RESULT:     -10.4      3.434      7.855
REMARK  4 active torsions:
REMARK  status: ('A' for Active; 'I' for Inactive)
REMARK    1  A    between atoms: C_2  and  C_3 
REMARK    2  A    between atoms: N_16  and  C_17 
REMARK    3  A    between atoms: C_17  and  C_18 
REMARK       I    between atoms: C_18  and  N_19 
REMARK    4  A    between atoms: N_19  and  C_20 
ROOT
HETATM    1  C   UNL     1      23.894  43.121  48.381  1.00  0.00     0.054 C 
HETATM    2  C   UNL     1      25.109  43.080  49.311  1.00  0.00     0.140 A 
HETATM    3  N   UNL     1      25.947  44.234  49.043  1.00  0.00    -0.321 N 
HETATM    4  C   UNL     1      26.093  45.050  50.139  1.00  0.00     0.326 A 
HETATM    5  O   UNL     1      26.842  46.009  50.174  1.00  0.00    -0.247 OA
HETATM    6  N   UNL     1      25.311  44.572  51.142  1.00  0.00    -0.259 N 
HETATM    7  C   UNL     1      24.650  43.443  50.745  1.00  0.00     0.261 A 
HETATM    8  O   UNL     1      23.817  42.853  51.424  1.00  0.00    -0.270 OA
HETATM    9  H   UNL     1      26.534  44.350  48.228  1.00  0.00     0.165 HD
ENDROOT
BRANCH   6  10
HETATM   10  C   UNL     1      25.214  45.172  52.455  1.00  0.00     0.240 C 
BRANCH  10  11
HETATM   11  C   UNL     1      26.171  44.486  53.425  1.00  0.00     0.240 C 
HETATM   12  N   UNL     1      27.508  44.779  53.183  1.00  0.00    -0.325 N 
HETATM   13  H   UNL     1      27.687  45.480  52.470  1.00  0.00     0.169 HD
HETATM   14  O   UNL     1      25.737  43.826  54.365  1.00  0.00    -0.271 OA
BRANCH  12  15
HETATM   15  C   UNL     1      28.631  44.290  53.904  1.00  0.00     0.047 A 
HETATM   16  C   UNL     1      29.005  44.900  55.144  1.00  0.00     0.019 A 
HETATM   17  C   UNL     1      30.131  44.404  55.847  1.00  0.00     0.069 A 
HETATM   18  C   UNL     1      28.315  45.967  55.770  1.00  0.00     0.017 A 
HETATM   19  N   UNL     1      30.546  44.896  57.027  1.00  0.00    -0.260 NA
HETATM   20  C   UNL     1      30.855  43.351  55.314  1.00  0.00     0.032 A 
HETATM   21  C   UNL     1      29.850  45.908  57.580  1.00  0.00     0.117 A 
HETATM   22  C   UNL     1      28.738  46.473  56.997  1.00  0.00     0.020 A 
HETATM   23  C   UNL     1      30.503  42.761  54.106  1.00  0.00     0.005 A 
HETATM   24  C   UNL     1      29.397  43.229  53.406  1.00  0.00     0.030 A 
ENDBRANCH  12  15
ENDBRANCH  10  11
ENDBRANCH   6  10
BRANCH   2  25
HETATM   25  C   UNL     1      25.942  41.798  49.280  1.00  0.00    -0.020 A 
HETATM   26  C   UNL     1      26.880  41.531  50.303  1.00  0.00     0.022 A 
HETATM   27  C   UNL     1      27.696  40.384  50.294  1.00  0.00    -0.025 A 
HETATM   28  C   UNL     1      27.570  39.458  49.240  1.00  0.00    -0.026 A 
HETATM   29  C   UNL     1      28.638  40.146  51.309  1.00  0.00     0.012 A 
HETATM   30  C   UNL     1      26.629  39.703  48.230  1.00  0.00     0.013 A 
HETATM   31  C   UNL     1      28.389  38.316  49.224  1.00  0.00     0.012 A 
HETATM   32  C   UNL     1      25.829  40.852  48.250  1.00  0.00     0.011 A 
HETATM   33  C   UNL     1      29.322  38.094  50.238  1.00  0.00     0.001 A 
HETATM   34  C   UNL     1      29.446  39.008  51.280  1.00  0.00     0.001 A 
ENDBRANCH   2  25
TORSDOF 4
ENDMDL
MODEL 8
REMARK VINA RESULT:     -10.2      2.397      3.865
REMARK  4 active torsions:
REMARK  status: ('A' for Active; 'I' for Inactive)
REMARK    1  A    between atoms: C_2  and  C_3 
REMARK    2  A    between atoms: N_16  and  C_17 
REMARK    3  A    between atoms: C_17  and  C_18 
REMARK       I    between atoms: C_18  and  N_19 
REMARK    4  A    between atoms: N_19  and  C_20 
ROOT
HETATM    1  C   UNL     1      24.936  44.660  53.487  1.00  0.00     0.054 C 
HETATM    2  C   UNL     1      26.245  45.296  53.012  1.00  0.00     0.140 A 
HETATM    3  N   UNL     1      26.687  44.621  51.807  1.00  0.00    -0.321 N 
HETATM    4  C   UNL     1      26.772  45.465  50.726  1.00  0.00     0.326 A 
HETATM    5  O   UNL     1      27.230  45.139  49.646  1.00  0.00    -0.247 OA
HETATM    6  N   UNL     1      26.312  46.689  51.095  1.00  0.00    -0.259 N 
HETATM    7  C   UNL     1      25.930  46.687  52.407  1.00  0.00     0.261 A 
HETATM    8  O   UNL     1      25.402  47.636  52.977  1.00  0.00    -0.270 OA
HETATM    9  H   UNL     1      27.089  43.693  51.774  1.00  0.00     0.165 HD
ENDROOT
BRANCH   6  10
HETATM   10  C   UNL     1      26.259  47.837  50.217  1.00  0.00     0.240 C 
BRANCH  10  11
HETATM   11  C   UNL     1      24.956  47.839  49.422  1.00  0.00     0.240 C 
HETATM   12  N   UNL     1      24.279  46.626  49.468  1.00  0.00    -0.325 N 
HETATM   13  H   UNL     1      24.665  45.925  50.094  1.00  0.00     0.169 HD
HETATM   14  O   UNL     1      24.552  48.870  48.891  1.00  0.00    -0.271 OA
BRANCH  12  15
HETATM   15  C   UNL     1      23.049  46.311  48.827  1.00  0.00     0.047 A 
HETATM   16  C   UNL     1      22.850  45.012  48.260  1.00  0.00     0.019 A 
HETATM   17  C   UNL     1      21.621  44.718  47.619  1.00  0.00     0.069 A 
HETATM   18  C   UNL     1      23.784  43.948  48.307  1.00  0.00     0.017 A 
HETATM   19  N   UNL     1      21.334  43.523  47.076  1.00  0.00    -0.260 NA
HETATM   20  C   UNL     1      20.644  45.696  47.541  1.00  0.00     0.032 A 
HETATM   21  C   UNL     1      22.257  42.545  47.154  1.00  0.00     0.117 A 
HETATM   22  C   UNL     1      23.486  42.706  47.753  1.00  0.00     0.020 A 
HETATM   23  C   UNL     1      20.836  46.963  48.081  1.00  0.00     0.005 A 
HETATM   24  C   UNL     1      22.031  47.268  48.720  1.00  0.00     0.030 A 
ENDBRANCH  12  15
ENDBRANCH  10  11
ENDBRANCH   6  10
BRANCH   2  25
HETATM   25  C   UNL     1      27.379  45.358  54.036  1.00  0.00    -0.020 A 
HETATM   26  C   UNL     1      28.305  44.295  54.142  1.00  0.00     0.022 A 
HETATM   27  C   UNL     1      29.340  44.292  55.095  1.00  0.00    -0.025 A 
HETATM   28  C   UNL     1      29.474  45.389  55.969  1.00  0.00    -0.026 A 
HETATM   29  C   UNL     1      30.238  43.216  55.200  1.00  0.00     0.012 A 
HETATM   30  C   UNL     1      28.573  46.458  55.860  1.00  0.00     0.013 A 
HETATM   31  C   UNL     1      30.502  45.385  56.928  1.00  0.00     0.012 A 
HETATM   32  C   UNL     1      27.545  46.443  54.910  1.00  0.00     0.011 A 
HETATM   33  C   UNL     1      31.385  44.308  57.021  1.00  0.00     0.001 A 
HETATM   34  C   UNL     1      31.253  43.224  56.158  1.00  0.00     0.001 A 
ENDBRANCH   2  25
TORSDOF 4
ENDMDL
MODEL 9
REMARK VINA RESULT:     -10.2      3.005      3.829
REMARK  4 active torsions:
REMARK  status: ('A' for Active; 'I' for Inactive)
REMARK    1  A    between atoms: C_2  and  C_3 
REMARK    2  A    between atoms: N_16  and  C_17 
REMARK    3  A    between atoms: C_17  and  C_18 
REMARK       I    between atoms: C_18  and  N_19 
REMARK    4  A    between atoms: N_19  and  C_20 
ROOT
HETATM    1  C   UNL     1      27.530  41.924  52.451  1.00  0.00     0.054 C 
HETATM    2  C   UNL     1      27.525  43.452  52.531  1.00  0.00     0.140 A 
HETATM    3  N   UNL     1      28.036  43.992  51.286  1.00  0.00    -0.321 N 
HETATM    4  C   UNL     1      27.121  44.783  50.634  1.00  0.00     0.326 A 
HETATM    5  O   UNL     1      27.373  45.429  49.633  1.00  0.00    -0.247 OA
HETATM    6  N   UNL     1      25.948  44.744  51.321  1.00  0.00    -0.259 N 
HETATM    7  C   UNL     1      26.062  43.950  52.428  1.00  0.00     0.261 A 
HETATM    8  O   UNL     1      25.134  43.673  53.180  1.00  0.00    -0.270 OA
HETATM    9  H   UNL     1      29.006  43.978  50.999  1.00  0.00     0.165 HD
ENDROOT
BRANCH   6  10
HETATM   10  C   UNL     1      24.755  45.466  50.936  1.00  0.00     0.240 C 
BRANCH  10  11
HETATM   11  C   UNL     1      23.853  44.583  50.079  1.00  0.00     0.240 C 
HETATM   12  N   UNL     1      24.241  44.527  48.745  1.00  0.00    -0.325 N 
HETATM   13  H   UNL     1      25.118  44.985  48.518  1.00  0.00     0.169 HD
HETATM   14  O   UNL     1      22.944  43.937  50.593  1.00  0.00    -0.271 OA
BRANCH  12  15
HETATM   15  C   UNL     1      23.602  43.801  47.702  1.00  0.00     0.047 A 
HETATM   16  C   UNL     1      22.573  44.423  46.926  1.00  0.00     0.019 A 
HETATM   17  C   UNL     1      21.942  43.683  45.895  1.00  0.00     0.069 A 
HETATM   18  C   UNL     1      22.131  45.761  47.076  1.00  0.00     0.017 A 
HETATM   19  N   UNL     1      20.981  44.186  45.100  1.00  0.00    -0.260 NA
HETATM   20  C   UNL     1      22.323  42.372  45.669  1.00  0.00     0.032 A 
HETATM   21  C   UNL     1      20.603  45.466  45.283  1.00  0.00     0.117 A 
HETATM   22  C   UNL     1      21.143  46.287  46.248  1.00  0.00     0.020 A 
HETATM   23  C   UNL     1      23.315  41.759  46.426  1.00  0.00     0.005 A 
HETATM   24  C   UNL     1      23.950  42.471  47.436  1.00  0.00     0.030 A 
ENDBRANCH  12  15
ENDBRANCH  10  11
ENDBRANCH   6  10
BRANCH   2  25
HETATM   25  C   UNL     1      28.261  44.070  53.721  1.00  0.00    -0.020 A 
HETATM   26  C   UNL     1      29.312  43.370  54.354  1.00  0.00     0.022 A 
HETATM   27  C   UNL     1      29.990  43.885  55.476  1.00  0.00    -0.025 A 
HETATM   28  C   UNL     1      29.622  45.146  55.983  1.00  0.00    -0.026 A 
HETATM   29  C   UNL     1      31.019  43.164  56.105  1.00  0.00     0.012 A 
HETATM   30  C   UNL     1      28.592  45.858  55.351  1.00  0.00     0.013 A 
HETATM   31  C   UNL     1      30.291  45.658  57.108  1.00  0.00     0.012 A 
HETATM   32  C   UNL     1      27.924  45.330  54.240  1.00  0.00     0.011 A 
HETATM   33  C   UNL     1      31.310  44.930  57.724  1.00  0.00     0.001 A 
HETATM   34  C   UNL     1      31.674  43.684  57.222  1.00  0.00     0.001 A 
ENDBRANCH   2  25
TORSDOF 4
ENDMDL
MODEL 10
REMARK VINA RESULT:     -10.1      3.347      4.911
REMARK  4 active torsions:
REMARK  status: ('A' for Active; 'I' for Inactive)
REMARK    1  A    between atoms: C_2  and  C_3 
REMARK    2  A    between atoms: N_16  and  C_17 
REMARK    3  A    between atoms: C_17  and  C_18 
REMARK       I    between atoms: C_18  and  N_19 
REMARK    4  A    between atoms: N_19  and  C_20 
ROOT
HETATM    1  C   UNL     1      27.464  41.918  52.330  1.00  0.00     0.054 C 
HETATM    2  C   UNL     1      27.458  43.446  52.415  1.00  0.00     0.140 A 
HETATM    3  N   UNL     1      27.978  43.990  51.175  1.00  0.00    -0.321 N 
HETATM    4  C   UNL     1      27.068  44.783  50.520  1.00  0.00     0.326 A 
HETATM    5  O   UNL     1      27.327  45.432  49.523  1.00  0.00    -0.247 OA
HETATM    6  N   UNL     1      25.890  44.742  51.198  1.00  0.00    -0.259 N 
HETATM    7  C   UNL     1      25.996  43.944  52.303  1.00  0.00     0.261 A 
HETATM    8  O   UNL     1      25.062  43.665  53.047  1.00  0.00    -0.270 OA
HETATM    9  H   UNL     1      28.950  43.977  50.896  1.00  0.00     0.165 HD
ENDROOT
BRANCH   6  10
HETATM   10  C   UNL     1      24.700  45.464  50.806  1.00  0.00     0.240 C 
BRANCH  10  11
HETATM   11  C   UNL     1      23.786  44.571  49.972  1.00  0.00     0.240 C 
HETATM   12  N   UNL     1      24.183  44.459  48.645  1.00  0.00    -0.325 N 
HETATM   13  H   UNL     1      25.072  44.889  48.410  1.00  0.00     0.169 HD
HETATM   14  O   UNL     1      22.858  43.964  50.501  1.00  0.00    -0.271 OA
BRANCH  12  15
HETATM   15  C   UNL     1      23.537  43.711  47.623  1.00  0.00     0.047 A 
HETATM   16  C   UNL     1      23.924  42.355  47.377  1.00  0.00     0.019 A 
HETATM   17  C   UNL     1      23.274  41.626  46.350  1.00  0.00     0.069 A 
HETATM   18  C   UNL     1      24.905  41.640  48.106  1.00  0.00     0.017 A 
HETATM   19  N   UNL     1      23.552  40.343  46.059  1.00  0.00    -0.260 NA
HETATM   20  C   UNL     1      22.289  42.243  45.597  1.00  0.00     0.032 A 
HETATM   21  C   UNL     1      24.492  39.710  46.787  1.00  0.00     0.117 A 
HETATM   22  C   UNL     1      25.190  40.309  47.812  1.00  0.00     0.020 A 
HETATM   23  C   UNL     1      21.916  43.562  45.825  1.00  0.00     0.005 A 
HETATM   24  C   UNL     1      22.537  44.291  46.833  1.00  0.00     0.030 A 
ENDBRANCH  12  15
ENDBRANCH  10  11
ENDBRANCH   6  10
BRANCH   2  25
HETATM   25  C   UNL     1      28.185  44.060  53.612  1.00  0.00    -0.020 A 
HETATM   26  C   UNL     1      29.248  43.369  54.236  1.00  0.00     0.022 A 
HETATM   27  C   UNL     1      29.918  43.880  55.363  1.00  0.00    -0.025 A 
HETATM   28  C   UNL     1      29.531  45.129  55.887  1.00  0.00    -0.026 A 
HETATM   29  C   UNL     1      30.960  43.168  55.982  1.00  0.00     0.012 A 
HETATM   30  C   UNL     1      28.489  45.832  55.265  1.00  0.00     0.013 A 
HETATM   31  C   UNL     1      30.192  45.637  57.019  1.00  0.00     0.012 A 
HETATM   32  C   UNL     1      27.829  45.308  54.147  1.00  0.00     0.011 A 
HETATM   33  C   UNL     1      31.224  44.917  57.624  1.00  0.00     0.001 A 
HETATM   34  C   UNL     1      31.607  43.684  57.106  1.00  0.00     0.001 A 
ENDBRANCH   2  25
TORSDOF 4
ENDMDL
