MODEL 1
REMARK VINA RESULT:      -9.5      0.000      0.000
REMARK  10 active torsions:
REMARK  status: ('A' for Active; 'I' for Inactive)
REMARK    1  A    between atoms: O_2  and  C_3 
REMARK    2  A    between atoms: C_3  and  C_4 
REMARK    3  A    between atoms: C_6  and  C_7 
REMARK    4  A    between atoms: C_7  and  C_8 
REMARK    5  A    between atoms: C_8  and  N_9 
REMARK       I    between atoms: N_9  and  C_10 
REMARK       I    between atoms: C_10  and  N_17 
REMARK    6  A    between atoms: N_17  and  CA_18 
REMARK    7  A    between atoms: CA_18  and  C_19 
REMARK    8  A    between atoms: CA_18  and  CB_21 
REMARK    9  A    between atoms: C_19  and  O_20 
REMARK   10  A    between atoms: CB_21  and  CG_22 
ROOT
HETATM    1  N   UNK A   0      26.835  44.495  50.376  1.00  0.00    -0.343 N 
HETATM    2  C   UNK A   0      26.855  43.779  51.545  1.00  0.00     0.316 C 
HETATM    3  O   UNK A   0      25.902  43.659  52.299  1.00  0.00    -0.248 OA
HETATM    4  H   UNK A   0      27.520  44.216  49.689  1.00  0.00     0.164 HD
ATOM      5  N   TRP A   1      28.083  43.200  51.737  1.00  0.00    -0.336 N 
ATOM      6  H   TRP A   1      28.829  43.799  51.403  1.00  0.00     0.164 HD
ENDROOT
BRANCH   5   7
ATOM      7  CA  TRP A   1      28.402  42.473  52.979  1.00  0.00     0.114 C 
BRANCH   7   8
ATOM      8  C   TRP A   1      28.474  40.949  52.747  1.00  0.00     0.189 C 
BRANCH   8   9
ATOM      9  O   TRP A   1      29.240  40.655  51.579  1.00  0.00    -0.399 OA
ATOM     10  H   TRP A   1      30.015  40.159  51.902  1.00  0.00     0.209 HD
ENDBRANCH   8   9
ENDBRANCH   7   8
BRANCH   7  11
ATOM     11  CB  TRP A   1      29.745  42.959  53.570  1.00  0.00     0.068 C 
BRANCH  11  12
ATOM     12  CG  TRP A   1      29.580  44.036  54.604  1.00  0.00    -0.028 A 
ATOM     13  CD2 TRP A   1      30.297  44.159  55.839  1.00  0.00    -0.002 A 
ATOM     14  CE2 TRP A   1      29.845  45.315  56.473  1.00  0.00     0.042 A 
ATOM     15  CE3 TRP A   1      31.300  43.395  56.473  1.00  0.00     0.014 A 
ATOM     16  CZ2 TRP A   1      30.348  45.753  57.704  1.00  0.00     0.030 A 
ATOM     17  NE1 TRP A   1      28.873  45.864  55.669  1.00  0.00    -0.365 N 
ATOM     18  CH2 TRP A   1      31.346  44.982  58.306  1.00  0.00     0.002 A 
ATOM     19  CZ3 TRP A   1      31.816  43.818  57.703  1.00  0.00     0.001 A 
ATOM     20  HE1 TRP A   1      28.359  46.707  55.885  1.00  0.00     0.165 HD
ATOM     21  CD1 TRP A   1      28.706  45.104  54.542  1.00  0.00     0.096 A 
ENDBRANCH  11  12
ENDBRANCH   7  11
ENDBRANCH   5   7
BRANCH   1  22
HETATM   22  C   UNK A   0      25.600  45.074  49.877  1.00  0.00     0.129 C 
BRANCH  22  23
HETATM   23  C   UNK A   0      25.196  46.348  50.624  1.00  0.00     0.058 C 
BRANCH  23  24
HETATM   24  C   UNK A   0      25.532  47.583  49.822  1.00  0.00    -0.056 A 
HETATM   25  C   UNK A   0      24.514  48.420  49.339  1.00  0.00     0.024 A 
HETATM   26  C   UNK A   0      24.826  49.584  48.621  1.00  0.00     0.040 A 
HETATM   27  C   UNK A   0      26.168  49.911  48.387  1.00  0.00     0.017 A 
HETATM   28  C   UNK A   0      27.184  49.083  48.868  1.00  0.00     0.002 A 
HETATM   29  C   UNK A   0      26.868  47.927  49.582  1.00  0.00     0.007 A 
BRANCH  26  30
HETATM   30  C   UNK A   0      23.702  50.433  48.138  1.00  0.00     0.292 C 
HETATM   31  O   UNK A   0      23.343  50.476  46.972  1.00  0.00    -0.259 OA
BRANCH  30  32
HETATM   32  O   UNK A   0      23.149  51.127  49.164  1.00  0.00    -0.323 OA
HETATM   33  C   UNK A   0      21.755  50.876  49.350  1.00  0.00     0.213 C 
ENDBRANCH  30  32
ENDBRANCH  26  30
ENDBRANCH  23  24
ENDBRANCH  22  23
ENDBRANCH   1  22
TORSDOF 10
ENDMDL
MODEL 2
REMARK VINA RESULT:      -9.0      1.532      1.947
REMARK  10 active torsions:
REMARK  status: ('A' for Active; 'I' for Inactive)
REMARK    1  A    between atoms: O_2  and  C_3 
REMARK    2  A    between atoms: C_3  and  C_4 
REMARK    3  A    between atoms: C_6  and  C_7 
REMARK    4  A    between atoms: C_7  and  C_8 
REMARK    5  A    between atoms: C_8  and  N_9 
REMARK       I    between atoms: N_9  and  C_10 
REMARK       I    between atoms: C_10  and  N_17 
REMARK    6  A    between atoms: N_17  and  CA_18 
REMARK    7  A    between atoms: CA_18  and  C_19 
REMARK    8  A    between atoms: CA_18  and  CB_21 
REMARK    9  A    between atoms: C_19  and  O_20 
REMARK   10  A    between atoms: CB_21  and  CG_22 
ROOT
HETATM    1  N   UNK A   0      26.840  45.435  50.130  1.00  0.00    -0.343 N 
HETATM    2  C   UNK A   0      26.695  44.649  51.244  1.00  0.00     0.316 C 
HETATM    3  O   UNK A   0      25.693  44.617  51.942  1.00  0.00    -0.248 OA
HETATM    4  H   UNK A   0      27.518  45.107  49.458  1.00  0.00     0.164 HD
ATOM      5  N   TRP A   1      27.819  43.892  51.452  1.00  0.00    -0.336 N 
ATOM      6  H   TRP A   1      28.657  44.400  51.198  1.00  0.00     0.164 HD
ENDROOT
BRANCH   5   7
ATOM      7  CA  TRP A   1      27.964  43.049  52.653  1.00  0.00     0.114 C 
BRANCH   7   8
ATOM      8  C   TRP A   1      27.802  41.550  52.322  1.00  0.00     0.189 C 
BRANCH   8   9
ATOM      9  O   TRP A   1      27.567  40.796  53.510  1.00  0.00    -0.399 OA
ATOM     10  H   TRP A   1      27.870  39.893  53.302  1.00  0.00     0.209 HD
ENDBRANCH   8   9
ENDBRANCH   7   8
BRANCH   7  11
ATOM     11  CB  TRP A   1      29.341  43.275  53.319  1.00  0.00     0.068 C 
BRANCH  11  12
ATOM     12  CG  TRP A   1      29.291  44.247  54.463  1.00  0.00    -0.028 A 
ATOM     13  CD2 TRP A   1      30.093  44.219  55.650  1.00  0.00    -0.002 A 
ATOM     14  CE2 TRP A   1      29.734  45.321  56.425  1.00  0.00     0.042 A 
ATOM     15  CE3 TRP A   1      31.103  43.360  56.133  1.00  0.00     0.014 A 
ATOM     16  CZ2 TRP A   1      30.337  45.613  57.654  1.00  0.00     0.030 A 
ATOM     17  NE1 TRP A   1      28.734  45.982  55.750  1.00  0.00    -0.365 N 
ATOM     18  CH2 TRP A   1      31.339  44.751  58.105  1.00  0.00     0.002 A 
ATOM     19  CZ3 TRP A   1      31.718  43.638  57.359  1.00  0.00     0.001 A 
ATOM     20  HE1 TRP A   1      28.273  46.817  56.083  1.00  0.00     0.165 HD
ATOM     21  CD1 TRP A   1      28.461  45.346  54.568  1.00  0.00     0.096 A 
ENDBRANCH  11  12
ENDBRANCH   7  11
ENDBRANCH   5   7
BRANCH   1  22
HETATM   22  C   UNK A   0      25.727  46.212  49.616  1.00  0.00     0.129 C 
BRANCH  22  23
HETATM   23  C   UNK A   0      25.856  47.709  49.916  1.00  0.00     0.058 C 
BRANCH  23  24
HETATM   24  C   UNK A   0      24.762  48.500  49.240  1.00  0.00    -0.056 A 
HETATM   25  C   UNK A   0      23.419  48.111  49.363  1.00  0.00     0.024 A 
HETATM   26  C   UNK A   0      22.398  48.863  48.761  1.00  0.00     0.040 A 
HETATM   27  C   UNK A   0      22.727  50.013  48.033  1.00  0.00     0.017 A 
HETATM   28  C   UNK A   0      24.062  50.405  47.910  1.00  0.00     0.002 A 
HETATM   29  C   UNK A   0      25.073  49.655  48.511  1.00  0.00     0.007 A 
BRANCH  26  30
HETATM   30  C   UNK A   0      20.993  48.400  48.931  1.00  0.00     0.292 C 
HETATM   31  O   UNK A   0      20.548  47.392  48.406  1.00  0.00    -0.259 OA
BRANCH  30  32
HETATM   32  O   UNK A   0      20.304  49.243  49.740  1.00  0.00    -0.323 OA
HETATM   33  C   UNK A   0      19.117  49.772  49.149  1.00  0.00     0.213 C 
ENDBRANCH  30  32
ENDBRANCH  26  30
ENDBRANCH  23  24
ENDBRANCH  22  23
ENDBRANCH   1  22
TORSDOF 10
ENDMDL
MODEL 3
REMARK VINA RESULT:      -8.9      2.961     10.345
REMARK  10 active torsions:
REMARK  status: ('A' for Active; 'I' for Inactive)
REMARK    1  A    between atoms: O_2  and  C_3 
REMARK    2  A    between atoms: C_3  and  C_4 
REMARK    3  A    between atoms: C_6  and  C_7 
REMARK    4  A    between atoms: C_7  and  C_8 
REMARK    5  A    between atoms: C_8  and  N_9 
REMARK       I    between atoms: N_9  and  C_10 
REMARK       I    between atoms: C_10  and  N_17 
REMARK    6  A    between atoms: N_17  and  CA_18 
REMARK    7  A    between atoms: CA_18  and  C_19 
REMARK    8  A    between atoms: CA_18  and  CB_21 
REMARK    9  A    between atoms: C_19  and  O_20 
REMARK   10  A    between atoms: CB_21  and  CG_22 
ROOT
HETATM    1  N   UNK A   0      25.900  45.877  50.759  1.00  0.00    -0.343 N 
HETATM    2  C   UNK A   0      25.150  47.025  50.755  1.00  0.00     0.316 C 
HETATM    3  O   UNK A   0      24.874  47.673  51.753  1.00  0.00    -0.248 OA
HETATM    4  H   UNK A   0      26.359  45.661  49.886  1.00  0.00     0.164 HD
ATOM      5  N   TRP A   1      24.776  47.355  49.478  1.00  0.00    -0.336 N 
ATOM      6  H   TRP A   1      24.584  46.528  48.926  1.00  0.00     0.164 HD
ENDROOT
BRANCH   5   7
ATOM      7  CA  TRP A   1      23.864  48.483  49.215  1.00  0.00     0.114 C 
BRANCH   7   8
ATOM      8  C   TRP A   1      24.620  49.712  48.668  1.00  0.00     0.189 C 
BRANCH   8   9
ATOM      9  O   TRP A   1      24.141  50.060  47.369  1.00  0.00    -0.399 OA
ATOM     10  H   TRP A   1      24.825  50.645  46.994  1.00  0.00     0.209 HD
ENDBRANCH   8   9
ENDBRANCH   7   8
BRANCH   7  11
ATOM     11  CB  TRP A   1      22.764  48.076  48.207  1.00  0.00     0.068 C 
BRANCH  11  12
ATOM     12  CG  TRP A   1      21.383  48.108  48.796  1.00  0.00    -0.028 A 
ATOM     13  CD2 TRP A   1      20.629  49.272  49.157  1.00  0.00    -0.002 A 
ATOM     14  CE2 TRP A   1      19.394  48.839  49.638  1.00  0.00     0.042 A 
ATOM     15  CE3 TRP A   1      20.881  50.660  49.107  1.00  0.00     0.014 A 
ATOM     16  CZ2 TRP A   1      18.395  49.721  50.066  1.00  0.00     0.030 A 
ATOM     17  NE1 TRP A   1      19.403  47.465  49.597  1.00  0.00    -0.365 N 
ATOM     18  CH2 TRP A   1      18.668  51.091  49.999  1.00  0.00     0.002 A 
ATOM     19  CZ3 TRP A   1      19.893  51.556  49.529  1.00  0.00     0.001 A 
ATOM     20  HE1 TRP A   1      18.637  46.877  49.898  1.00  0.00     0.165 HD
ATOM     21  CD1 TRP A   1      20.593  47.013  49.091  1.00  0.00     0.096 A 
ENDBRANCH  11  12
ENDBRANCH   7  11
ENDBRANCH   5   7
BRANCH   1  22
HETATM   22  C   UNK A   0      26.541  45.408  51.974  1.00  0.00     0.129 C 
BRANCH  22  23
HETATM   23  C   UNK A   0      27.304  44.095  51.777  1.00  0.00     0.058 C 
BRANCH  23  24
HETATM   24  C   UNK A   0      28.368  43.917  52.833  1.00  0.00    -0.056 A 
HETATM   25  C   UNK A   0      28.399  44.747  53.964  1.00  0.00     0.024 A 
HETATM   26  C   UNK A   0      29.369  44.562  54.962  1.00  0.00     0.040 A 
HETATM   27  C   UNK A   0      30.313  43.537  54.823  1.00  0.00     0.017 A 
HETATM   28  C   UNK A   0      30.285  42.707  53.701  1.00  0.00     0.002 A 
HETATM   29  C   UNK A   0      29.318  42.894  52.713  1.00  0.00     0.007 A 
BRANCH  26  30
HETATM   30  C   UNK A   0      29.347  45.473  56.139  1.00  0.00     0.292 C 
HETATM   31  O   UNK A   0      28.421  46.229  56.388  1.00  0.00    -0.259 OA
BRANCH  30  32
HETATM   32  O   UNK A   0      30.478  45.336  56.875  1.00  0.00    -0.323 OA
HETATM   33  C   UNK A   0      30.401  45.927  58.173  1.00  0.00     0.213 C 
ENDBRANCH  30  32
ENDBRANCH  26  30
ENDBRANCH  23  24
ENDBRANCH  22  23
ENDBRANCH   1  22
TORSDOF 10
ENDMDL
MODEL 4
REMARK VINA RESULT:      -8.9      3.276     10.776
REMARK  10 active torsions:
REMARK  status: ('A' for Active; 'I' for Inactive)
REMARK    1  A    between atoms: O_2  and  C_3 
REMARK    2  A    between atoms: C_3  and  C_4 
REMARK    3  A    between atoms: C_6  and  C_7 
REMARK    4  A    between atoms: C_7  and  C_8 
REMARK    5  A    between atoms: C_8  and  N_9 
REMARK       I    between atoms: N_9  and  C_10 
REMARK       I    between atoms: C_10  and  N_17 
REMARK    6  A    between atoms: N_17  and  CA_18 
REMARK    7  A    between atoms: CA_18  and  C_19 
REMARK    8  A    between atoms: CA_18  and  CB_21 
REMARK    9  A    between atoms: C_19  and  O_20 
REMARK   10  A    between atoms: CB_21  and  CG_22 
ROOT
HETATM    1  N   UNK A   0      24.787  45.654  50.484  1.00  0.00    -0.343 N 
HETATM    2  C   UNK A   0      24.349  46.947  50.361  1.00  0.00     0.316 C 
HETATM    3  O   UNK A   0      24.792  47.891  50.997  1.00  0.00    -0.248 OA
HETATM    4  H   UNK A   0      24.627  45.068  49.679  1.00  0.00     0.164 HD
ATOM      5  N   TRP A   1      23.364  47.036  49.411  1.00  0.00    -0.336 N 
ATOM      6  H   TRP A   1      22.772  46.215  49.417  1.00  0.00     0.164 HD
ENDROOT
BRANCH   5   7
ATOM      7  CA  TRP A   1      22.642  48.299  49.171  1.00  0.00     0.114 C 
BRANCH   7   8
ATOM      8  C   TRP A   1      23.460  49.265  48.287  1.00  0.00     0.189 C 
BRANCH   8   9
ATOM      9  O   TRP A   1      24.202  50.178  49.095  1.00  0.00    -0.399 OA
ATOM     10  H   TRP A   1      25.012  49.696  49.345  1.00  0.00     0.209 HD
ENDBRANCH   8   9
ENDBRANCH   7   8
BRANCH   7  11
ATOM     11  CB  TRP A   1      21.276  48.032  48.499  1.00  0.00     0.068 C 
BRANCH  11  12
ATOM     12  CG  TRP A   1      20.135  48.729  49.183  1.00  0.00    -0.028 A 
ATOM     13  CD2 TRP A   1      19.733  50.094  49.008  1.00  0.00    -0.002 A 
ATOM     14  CE2 TRP A   1      18.617  50.308  49.814  1.00  0.00     0.042 A 
ATOM     15  CE3 TRP A   1      20.214  51.167  48.228  1.00  0.00     0.014 A 
ATOM     16  CZ2 TRP A   1      17.950  51.537  49.876  1.00  0.00     0.030 A 
ATOM     17  NE1 TRP A   1      18.361  49.129  50.474  1.00  0.00    -0.365 N 
ATOM     18  CH2 TRP A   1      18.441  52.581  49.087  1.00  0.00     0.002 A 
ATOM     19  CZ3 TRP A   1      19.558  52.402  48.275  1.00  0.00     0.001 A 
ATOM     20  HE1 TRP A   1      17.610  48.994  51.137  1.00  0.00     0.165 HD
ATOM     21  CD1 TRP A   1      19.266  48.171  50.101  1.00  0.00     0.096 A 
ENDBRANCH  11  12
ENDBRANCH   7  11
ENDBRANCH   5   7
BRANCH   1  22
HETATM   22  C   UNK A   0      25.932  45.331  51.317  1.00  0.00     0.129 C 
BRANCH  22  23
HETATM   23  C   UNK A   0      25.570  45.189  52.798  1.00  0.00     0.058 C 
BRANCH  23  24
HETATM   24  C   UNK A   0      26.724  45.592  53.685  1.00  0.00    -0.056 A 
HETATM   25  C   UNK A   0      27.698  44.654  54.060  1.00  0.00     0.024 A 
HETATM   26  C   UNK A   0      28.787  45.035  54.859  1.00  0.00     0.040 A 
HETATM   27  C   UNK A   0      28.900  46.365  55.282  1.00  0.00     0.017 A 
HETATM   28  C   UNK A   0      27.935  47.303  54.908  1.00  0.00     0.002 A 
HETATM   29  C   UNK A   0      26.855  46.919  54.113  1.00  0.00     0.007 A 
BRANCH  26  30
HETATM   30  C   UNK A   0      29.789  43.994  55.221  1.00  0.00     0.292 C 
HETATM   31  O   UNK A   0      29.787  42.866  54.754  1.00  0.00    -0.259 OA
BRANCH  30  32
HETATM   32  O   UNK A   0      30.683  44.479  56.119  1.00  0.00    -0.323 OA
HETATM   33  C   UNK A   0      31.434  43.468  56.793  1.00  0.00     0.213 C 
ENDBRANCH  30  32
ENDBRANCH  26  30
ENDBRANCH  23  24
ENDBRANCH  22  23
ENDBRANCH   1  22
TORSDOF 10
ENDMDL
MODEL 5
REMARK VINA RESULT:      -8.8      1.831      2.620
REMARK  10 active torsions:
REMARK  status: ('A' for Active; 'I' for Inactive)
REMARK    1  A    between atoms: O_2  and  C_3 
REMARK    2  A    between atoms: C_3  and  C_4 
REMARK    3  A    between atoms: C_6  and  C_7 
REMARK    4  A    between atoms: C_7  and  C_8 
REMARK    5  A    between atoms: C_8  and  N_9 
REMARK       I    between atoms: N_9  and  C_10 
REMARK       I    between atoms: C_10  and  N_17 
REMARK    6  A    between atoms: N_17  and  CA_18 
REMARK    7  A    between atoms: CA_18  and  C_19 
REMARK    8  A    between atoms: CA_18  and  CB_21 
REMARK    9  A    between atoms: C_19  and  O_20 
REMARK   10  A    between atoms: CB_21  and  CG_22 
ROOT
HETATM    1  N   UNK A   0      25.196  42.661  51.489  1.00  0.00    -0.343 N 
HETATM    2  C   UNK A   0      26.526  42.515  51.790  1.00  0.00     0.316 C 
HETATM    3  O   UNK A   0      27.418  42.430  50.960  1.00  0.00    -0.248 OA
HETATM    4  H   UNK A   0      24.636  43.084  52.214  1.00  0.00     0.164 HD
ATOM      5  N   TRP A   1      26.716  42.501  53.148  1.00  0.00    -0.336 N 
ATOM      6  H   TRP A   1      25.953  42.033  53.622  1.00  0.00     0.164 HD
ENDROOT
BRANCH   5   7
ATOM      7  CA  TRP A   1      28.043  42.238  53.734  1.00  0.00     0.114 C 
BRANCH   7   8
ATOM      8  C   TRP A   1      28.643  40.913  53.217  1.00  0.00     0.189 C 
BRANCH   8   9
ATOM      9  O   TRP A   1      29.671  41.166  52.260  1.00  0.00    -0.399 OA
ATOM     10  H   TRP A   1      29.470  42.049  51.899  1.00  0.00     0.209 HD
ENDBRANCH   8   9
ENDBRANCH   7   8
BRANCH   7  11
ATOM     11  CB  TRP A   1      29.021  43.393  53.418  1.00  0.00     0.068 C 
BRANCH  11  12
ATOM     12  CG  TRP A   1      29.165  44.371  54.549  1.00  0.00    -0.028 A 
ATOM     13  CD2 TRP A   1      30.027  44.248  55.687  1.00  0.00    -0.002 A 
ATOM     14  CE2 TRP A   1      29.859  45.392  56.466  1.00  0.00     0.042 A 
ATOM     15  CE3 TRP A   1      30.947  43.269  56.122  1.00  0.00     0.014 A 
ATOM     16  CZ2 TRP A   1      30.566  45.612  57.654  1.00  0.00     0.030 A 
ATOM     17  NE1 TRP A   1      28.913  46.171  55.842  1.00  0.00    -0.365 N 
ATOM     18  CH2 TRP A   1      31.476  44.631  58.057  1.00  0.00     0.002 A 
ATOM     19  CZ3 TRP A   1      31.664  43.475  57.305  1.00  0.00     0.001 A 
ATOM     20  HE1 TRP A   1      28.582  47.060  56.190  1.00  0.00     0.165 HD
ATOM     21  CD1 TRP A   1      28.489  45.568  54.687  1.00  0.00     0.096 A 
ENDBRANCH  11  12
ENDBRANCH   7  11
ENDBRANCH   5   7
BRANCH   1  22
HETATM   22  C   UNK A   0      24.760  42.856  50.119  1.00  0.00     0.129 C 
BRANCH  22  23
HETATM   23  C   UNK A   0      24.037  44.190  49.908  1.00  0.00     0.058 C 
BRANCH  23  24
HETATM   24  C   UNK A   0      24.824  45.338  50.493  1.00  0.00    -0.056 A 
HETATM   25  C   UNK A   0      25.604  46.163  49.668  1.00  0.00     0.024 A 
HETATM   26  C   UNK A   0      26.312  47.249  50.206  1.00  0.00     0.040 A 
HETATM   27  C   UNK A   0      26.235  47.509  51.580  1.00  0.00     0.017 A 
HETATM   28  C   UNK A   0      25.457  46.693  52.404  1.00  0.00     0.002 A 
HETATM   29  C   UNK A   0      24.756  45.615  51.865  1.00  0.00     0.007 A 
BRANCH  26  30
HETATM   30  C   UNK A   0      27.118  48.089  49.278  1.00  0.00     0.292 C 
HETATM   31  O   UNK A   0      28.034  47.653  48.599  1.00  0.00    -0.259 OA
BRANCH  30  32
HETATM   32  O   UNK A   0      26.689  49.376  49.298  1.00  0.00    -0.323 OA
HETATM   33  C   UNK A   0      26.150  49.827  48.055  1.00  0.00     0.213 C 
ENDBRANCH  30  32
ENDBRANCH  26  30
ENDBRANCH  23  24
ENDBRANCH  22  23
ENDBRANCH   1  22
TORSDOF 10
ENDMDL
MODEL 6
REMARK VINA RESULT:      -8.8      2.872      4.619
REMARK  10 active torsions:
REMARK  status: ('A' for Active; 'I' for Inactive)
REMARK    1  A    between atoms: O_2  and  C_3 
REMARK    2  A    between atoms: C_3  and  C_4 
REMARK    3  A    between atoms: C_6  and  C_7 
REMARK    4  A    between atoms: C_7  and  C_8 
REMARK    5  A    between atoms: C_8  and  N_9 
REMARK       I    between atoms: N_9  and  C_10 
REMARK       I    between atoms: C_10  and  N_17 
REMARK    6  A    between atoms: N_17  and  CA_18 
REMARK    7  A    between atoms: CA_18  and  C_19 
REMARK    8  A    between atoms: CA_18  and  CB_21 
REMARK    9  A    between atoms: C_19  and  O_20 
REMARK   10  A    between atoms: CB_21  and  CG_22 
ROOT
HETATM    1  N   UNK A   0      24.207  47.412  50.734  1.00  0.00    -0.343 N 
HETATM    2  C   UNK A   0      25.367  47.038  51.361  1.00  0.00     0.316 C 
HETATM    3  O   UNK A   0      26.357  46.609  50.787  1.00  0.00    -0.248 OA
HETATM    4  H   UNK A   0      23.638  48.074  51.241  1.00  0.00     0.164 HD
ATOM      5  N   TRP A   1      25.270  47.234  52.714  1.00  0.00    -0.336 N 
ATOM      6  H   TRP A   1      24.335  47.039  53.049  1.00  0.00     0.164 HD
ENDROOT
BRANCH   5   7
ATOM      7  CA  TRP A   1      26.342  46.801  53.630  1.00  0.00     0.114 C 
BRANCH   7   8
ATOM      8  C   TRP A   1      26.536  47.796  54.794  1.00  0.00     0.189 C 
BRANCH   8   9
ATOM      9  O   TRP A   1      25.454  48.726  54.845  1.00  0.00    -0.399 OA
ATOM     10  H   TRP A   1      25.501  49.120  55.735  1.00  0.00     0.209 HD
ENDBRANCH   8   9
ENDBRANCH   7   8
BRANCH   7  11
ATOM     11  CB  TRP A   1      26.037  45.399  54.207  1.00  0.00     0.068 C 
BRANCH  11  12
ATOM     12  CG  TRP A   1      27.189  44.444  54.078  1.00  0.00    -0.028 A 
ATOM     13  CD2 TRP A   1      28.439  44.506  54.777  1.00  0.00    -0.002 A 
ATOM     14  CE2 TRP A   1      29.200  43.410  54.373  1.00  0.00     0.042 A 
ATOM     15  CE3 TRP A   1      28.991  45.392  55.727  1.00  0.00     0.014 A 
ATOM     16  CZ2 TRP A   1      30.480  43.148  54.875  1.00  0.00     0.030 A 
ATOM     17  NE1 TRP A   1      28.454  42.720  53.446  1.00  0.00    -0.365 N 
ATOM     18  CH2 TRP A   1      30.999  44.036  55.821  1.00  0.00     0.002 A 
ATOM     19  CZ3 TRP A   1      30.268  45.144  56.241  1.00  0.00     0.001 A 
ATOM     20  HE1 TRP A   1      28.762  41.881  52.972  1.00  0.00     0.165 HD
ATOM     21  CD1 TRP A   1      27.243  43.331  53.261  1.00  0.00     0.096 A 
ENDBRANCH  11  12
ENDBRANCH   7  11
ENDBRANCH   5   7
BRANCH   1  22
HETATM   22  C   UNK A   0      24.118  47.441  49.285  1.00  0.00     0.129 C 
BRANCH  22  23
HETATM   23  C   UNK A   0      22.680  47.317  48.773  1.00  0.00     0.058 C 
BRANCH  23  24
HETATM   24  C   UNK A   0      21.968  48.647  48.812  1.00  0.00    -0.056 A 
HETATM   25  C   UNK A   0      20.636  48.732  49.245  1.00  0.00     0.024 A 
HETATM   26  C   UNK A   0      19.982  49.972  49.312  1.00  0.00     0.040 A 
HETATM   27  C   UNK A   0      20.671  51.135  48.943  1.00  0.00     0.017 A 
HETATM   28  C   UNK A   0      21.997  51.056  48.514  1.00  0.00     0.002 A 
HETATM   29  C   UNK A   0      22.643  49.821  48.451  1.00  0.00     0.007 A 
BRANCH  26  30
HETATM   30  C   UNK A   0      18.570  49.996  49.783  1.00  0.00     0.292 C 
HETATM   31  O   UNK A   0      18.081  50.929  50.400  1.00  0.00    -0.259 OA
BRANCH  30  32
HETATM   32  O   UNK A   0      17.925  48.856  49.427  1.00  0.00    -0.323 OA
HETATM   33  C   UNK A   0      17.152  48.977  48.233  1.00  0.00     0.213 C 
ENDBRANCH  30  32
ENDBRANCH  26  30
ENDBRANCH  23  24
ENDBRANCH  22  23
ENDBRANCH   1  22
TORSDOF 10
ENDMDL
MODEL 7
REMARK VINA RESULT:      -8.7      1.789      2.985
REMARK  10 active torsions:
REMARK  status: ('A' for Active; 'I' for Inactive)
REMARK    1  A    between atoms: O_2  and  C_3 
REMARK    2  A    between atoms: C_3  and  C_4 
REMARK    3  A    between atoms: C_6  and  C_7 
REMARK    4  A    between atoms: C_7  and  C_8 
REMARK    5  A    between atoms: C_8  and  N_9 
REMARK       I    between atoms: N_9  and  C_10 
REMARK       I    between atoms: C_10  and  N_17 
REMARK    6  A    between atoms: N_17  and  CA_18 
REMARK    7  A    between atoms: CA_18  and  C_19 
REMARK    8  A    between atoms: CA_18  and  CB_21 
REMARK    9  A    between atoms: C_19  and  O_20 
REMARK   10  A    between atoms: CB_21  and  CG_22 
ROOT
HETATM    1  N   UNK A   0      25.222  43.061  51.563  1.00  0.00    -0.343 N 
HETATM    2  C   UNK A   0      26.539  43.001  51.940  1.00  0.00     0.316 C 
HETATM    3  O   UNK A   0      27.483  43.187  51.187  1.00  0.00    -0.248 OA
HETATM    4  H   UNK A   0      24.571  43.262  52.307  1.00  0.00     0.164 HD
ATOM      5  N   TRP A   1      26.647  42.726  53.278  1.00  0.00    -0.336 N 
ATOM      6  H   TRP A   1      25.921  42.090  53.584  1.00  0.00     0.164 HD
ENDROOT
BRANCH   5   7
ATOM      7  CA  TRP A   1      27.959  42.492  53.909  1.00  0.00     0.114 C 
BRANCH   7   8
ATOM      8  C   TRP A   1      28.608  41.183  53.410  1.00  0.00     0.189 C 
BRANCH   8   9
ATOM      9  O   TRP A   1      29.585  41.458  52.406  1.00  0.00    -0.399 OA
ATOM     10  H   TRP A   1      30.427  41.137  52.778  1.00  0.00     0.209 HD
ENDBRANCH   8   9
ENDBRANCH   7   8
BRANCH   7  11
ATOM     11  CB  TRP A   1      28.920  43.671  53.631  1.00  0.00     0.068 C 
BRANCH  11  12
ATOM     12  CG  TRP A   1      28.713  44.833  54.561  1.00  0.00    -0.028 A 
ATOM     13  CD2 TRP A   1      27.739  45.876  54.430  1.00  0.00    -0.002 A 
ATOM     14  CE2 TRP A   1      27.884  46.725  55.525  1.00  0.00     0.042 A 
ATOM     15  CE3 TRP A   1      26.736  46.169  53.481  1.00  0.00     0.014 A 
ATOM     16  CZ2 TRP A   1      27.075  47.850  55.726  1.00  0.00     0.030 A 
ATOM     17  NE1 TRP A   1      28.923  46.235  56.282  1.00  0.00    -0.365 N 
ATOM     18  CH2 TRP A   1      26.084  48.113  54.776  1.00  0.00     0.002 A 
ATOM     19  CZ3 TRP A   1      25.916  47.288  53.667  1.00  0.00     0.001 A 
ATOM     20  HE1 TRP A   1      29.259  46.659  57.136  1.00  0.00     0.165 HD
ATOM     21  CD1 TRP A   1      29.428  45.096  55.713  1.00  0.00     0.096 A 
ENDBRANCH  11  12
ENDBRANCH   7  11
ENDBRANCH   5   7
BRANCH   1  22
HETATM   22  C   UNK A   0      24.848  43.488  50.227  1.00  0.00     0.129 C 
BRANCH  22  23
HETATM   23  C   UNK A   0      23.855  44.654  50.230  1.00  0.00     0.058 C 
BRANCH  23  24
HETATM   24  C   UNK A   0      24.542  45.960  49.911  1.00  0.00    -0.056 A 
HETATM   25  C   UNK A   0      23.795  47.089  49.544  1.00  0.00     0.024 A 
HETATM   26  C   UNK A   0      24.431  48.312  49.277  1.00  0.00     0.040 A 
HETATM   27  C   UNK A   0      25.825  48.402  49.382  1.00  0.00     0.017 A 
HETATM   28  C   UNK A   0      26.572  47.281  49.750  1.00  0.00     0.002 A 
HETATM   29  C   UNK A   0      25.936  46.068  50.014  1.00  0.00     0.007 A 
BRANCH  26  30
HETATM   30  C   UNK A   0      23.582  49.475  48.896  1.00  0.00     0.292 C 
HETATM   31  O   UNK A   0      23.488  50.490  49.568  1.00  0.00    -0.259 OA
BRANCH  30  32
HETATM   32  O   UNK A   0      22.951  49.243  47.717  1.00  0.00    -0.323 OA
HETATM   33  C   UNK A   0      21.543  49.475  47.759  1.00  0.00     0.213 C 
ENDBRANCH  30  32
ENDBRANCH  26  30
ENDBRANCH  23  24
ENDBRANCH  22  23
ENDBRANCH   1  22
TORSDOF 10
ENDMDL
MODEL 8
REMARK VINA RESULT:      -8.5      2.376      4.215
REMARK  10 active torsions:
REMARK  status: ('A' for Active; 'I' for Inactive)
REMARK    1  A    between atoms: O_2  and  C_3 
REMARK    2  A    between atoms: C_3  and  C_4 
REMARK    3  A    between atoms: C_6  and  C_7 
REMARK    4  A    between atoms: C_7  and  C_8 
REMARK    5  A    between atoms: C_8  and  N_9 
REMARK       I    between atoms: N_9  and  C_10 
REMARK       I    between atoms: C_10  and  N_17 
REMARK    6  A    between atoms: N_17  and  CA_18 
REMARK    7  A    between atoms: CA_18  and  C_19 
REMARK    8  A    between atoms: CA_18  and  CB_21 
REMARK    9  A    between atoms: C_19  and  O_20 
REMARK   10  A    between atoms: CB_21  and  CG_22 
ROOT
HETATM    1  N   UNK A   0      23.128  45.254  49.852  1.00  0.00    -0.343 N 
HETATM    2  C   UNK A   0      24.414  45.557  50.220  1.00  0.00     0.316 C 
HETATM    3  O   UNK A   0      25.294  45.895  49.444  1.00  0.00    -0.248 OA
HETATM    4  H   UNK A   0      22.437  45.361  50.579  1.00  0.00     0.164 HD
ATOM      5  N   TRP A   1      24.566  45.449  51.578  1.00  0.00    -0.336 N 
ATOM      6  H   TRP A   1      24.013  44.687  51.952  1.00  0.00     0.164 HD
ENDROOT
BRANCH   5   7
ATOM      7  CA  TRP A   1      25.886  45.607  52.216  1.00  0.00     0.114 C 
BRANCH   7   8
ATOM      8  C   TRP A   1      26.242  47.093  52.432  1.00  0.00     0.189 C 
BRANCH   8   9
ATOM      9  O   TRP A   1      25.396  47.673  53.424  1.00  0.00    -0.399 OA
ATOM     10  H   TRP A   1      25.120  48.532  53.053  1.00  0.00     0.209 HD
ENDBRANCH   8   9
ENDBRANCH   7   8
BRANCH   7  11
ATOM     11  CB  TRP A   1      25.929  44.874  53.577  1.00  0.00     0.068 C 
BRANCH  11  12
ATOM     12  CG  TRP A   1      27.176  44.059  53.769  1.00  0.00    -0.028 A 
ATOM     13  CD2 TRP A   1      28.307  44.399  54.582  1.00  0.00    -0.002 A 
ATOM     14  CE2 TRP A   1      29.219  43.349  54.489  1.00  0.00     0.042 A 
ATOM     15  CE3 TRP A   1      28.635  45.502  55.398  1.00  0.00     0.014 A 
ATOM     16  CZ2 TRP A   1      30.440  43.341  55.176  1.00  0.00     0.030 A 
ATOM     17  NE1 TRP A   1      28.679  42.417  53.635  1.00  0.00    -0.365 N 
ATOM     18  CH2 TRP A   1      30.735  44.442  55.984  1.00  0.00     0.002 A 
ATOM     19  CZ3 TRP A   1      29.849  45.510  56.094  1.00  0.00     0.001 A 
ATOM     20  HE1 TRP A   1      29.129  41.551  53.372  1.00  0.00     0.165 HD
ATOM     21  CD1 TRP A   1      27.449  42.832  53.197  1.00  0.00     0.096 A 
ENDBRANCH  11  12
ENDBRANCH   7  11
ENDBRANCH   5   7
BRANCH   1  22
HETATM   22  C   UNK A   0      22.681  45.444  48.484  1.00  0.00     0.129 C 
BRANCH  22  23
HETATM   23  C   UNK A   0      21.234  45.938  48.393  1.00  0.00     0.058 C 
BRANCH  23  24
HETATM   24  C   UNK A   0      21.178  47.423  48.126  1.00  0.00    -0.056 A 
HETATM   25  C   UNK A   0      22.292  48.237  48.380  1.00  0.00     0.024 A 
HETATM   26  C   UNK A   0      22.252  49.612  48.103  1.00  0.00     0.040 A 
HETATM   27  C   UNK A   0      21.086  50.174  47.568  1.00  0.00     0.017 A 
HETATM   28  C   UNK A   0      19.975  49.367  47.311  1.00  0.00     0.002 A 
HETATM   29  C   UNK A   0      20.021  48.001  47.587  1.00  0.00     0.007 A 
BRANCH  26  30
HETATM   30  C   UNK A   0      23.468  50.422  48.391  1.00  0.00     0.292 C 
HETATM   31  O   UNK A   0      23.592  51.122  49.383  1.00  0.00    -0.259 OA
BRANCH  30  32
HETATM   32  O   UNK A   0      24.394  50.262  47.412  1.00  0.00    -0.323 OA
HETATM   33  C   UNK A   0      25.708  49.983  47.897  1.00  0.00     0.213 C 
ENDBRANCH  30  32
ENDBRANCH  26  30
ENDBRANCH  23  24
ENDBRANCH  22  23
ENDBRANCH   1  22
TORSDOF 10
ENDMDL
MODEL 9
REMARK VINA RESULT:      -8.4      1.971      2.562
REMARK  10 active torsions:
REMARK  status: ('A' for Active; 'I' for Inactive)
REMARK    1  A    between atoms: O_2  and  C_3 
REMARK    2  A    between atoms: C_3  and  C_4 
REMARK    3  A    between atoms: C_6  and  C_7 
REMARK    4  A    between atoms: C_7  and  C_8 
REMARK    5  A    between atoms: C_8  and  N_9 
REMARK       I    between atoms: N_9  and  C_10 
REMARK       I    between atoms: C_10  and  N_17 
REMARK    6  A    between atoms: N_17  and  CA_18 
REMARK    7  A    between atoms: CA_18  and  C_19 
REMARK    8  A    between atoms: CA_18  and  CB_21 
REMARK    9  A    between atoms: C_19  and  O_20 
REMARK   10  A    between atoms: CB_21  and  CG_22 
ROOT
HETATM    1  N   UNK A   0      25.353  44.337  50.776  1.00  0.00    -0.343 N 
HETATM    2  C   UNK A   0      25.807  43.908  51.997  1.00  0.00     0.316 C 
HETATM    3  O   UNK A   0      25.177  43.998  53.039  1.00  0.00    -0.248 OA
HETATM    4  H   UNK A   0      25.774  43.884  49.978  1.00  0.00     0.164 HD
ATOM      5  N   TRP A   1      27.052  43.346  51.880  1.00  0.00    -0.336 N 
ATOM      6  H   TRP A   1      27.609  43.825  51.184  1.00  0.00     0.164 HD
ENDROOT
BRANCH   5   7
ATOM      7  CA  TRP A   1      27.811  42.912  53.067  1.00  0.00     0.114 C 
BRANCH   7   8
ATOM      8  C   TRP A   1      28.208  41.423  52.979  1.00  0.00     0.189 C 
BRANCH   8   9
ATOM      9  O   TRP A   1      27.271  40.610  53.684  1.00  0.00    -0.399 OA
ATOM     10  H   TRP A   1      27.740  39.773  53.857  1.00  0.00     0.209 HD
ENDBRANCH   8   9
ENDBRANCH   7   8
BRANCH   7  11
ATOM     11  CB  TRP A   1      29.087  43.767  53.245  1.00  0.00     0.068 C 
BRANCH  11  12
ATOM     12  CG  TRP A   1      29.073  44.594  54.499  1.00  0.00    -0.028 A 
ATOM     13  CD2 TRP A   1      29.920  44.435  55.644  1.00  0.00    -0.002 A 
ATOM     14  CE2 TRP A   1      29.581  45.432  56.557  1.00  0.00     0.042 A 
ATOM     15  CE3 TRP A   1      30.954  43.537  55.983  1.00  0.00     0.014 A 
ATOM     16  CZ2 TRP A   1      30.228  45.582  57.790  1.00  0.00     0.030 A 
ATOM     17  NE1 TRP A   1      28.552  46.156  56.004  1.00  0.00    -0.365 N 
ATOM     18  CH2 TRP A   1      31.254  44.685  58.097  1.00  0.00     0.002 A 
ATOM     19  CZ3 TRP A   1      31.613  43.674  57.210  1.00  0.00     0.001 A 
ATOM     20  HE1 TRP A   1      28.096  46.939  56.451  1.00  0.00     0.165 HD
ATOM     21  CD1 TRP A   1      28.238  45.663  54.765  1.00  0.00     0.096 A 
ENDBRANCH  11  12
ENDBRANCH   7  11
ENDBRANCH   5   7
BRANCH   1  22
HETATM   22  C   UNK A   0      23.997  44.830  50.616  1.00  0.00     0.129 C 
BRANCH  22  23
HETATM   23  C   UNK A   0      23.401  44.497  49.245  1.00  0.00     0.058 C 
BRANCH  23  24
HETATM   24  C   UNK A   0      22.534  45.624  48.737  1.00  0.00    -0.056 A 
HETATM   25  C   UNK A   0      23.023  46.939  48.698  1.00  0.00     0.024 A 
HETATM   26  C   UNK A   0      22.230  47.983  48.196  1.00  0.00     0.040 A 
HETATM   27  C   UNK A   0      20.939  47.705  47.729  1.00  0.00     0.017 A 
HETATM   28  C   UNK A   0      20.450  46.397  47.763  1.00  0.00     0.002 A 
HETATM   29  C   UNK A   0      21.242  45.363  48.262  1.00  0.00     0.007 A 
BRANCH  26  30
HETATM   30  C   UNK A   0      22.807  49.356  48.179  1.00  0.00     0.292 C 
HETATM   31  O   UNK A   0      23.589  49.746  47.327  1.00  0.00    -0.259 OA
BRANCH  30  32
HETATM   32  O   UNK A   0      22.340  50.087  49.222  1.00  0.00    -0.323 OA
HETATM   33  C   UNK A   0      21.389  51.085  48.849  1.00  0.00     0.213 C 
ENDBRANCH  30  32
ENDBRANCH  26  30
ENDBRANCH  23  24
ENDBRANCH  22  23
ENDBRANCH   1  22
TORSDOF 10
ENDMDL
MODEL 10
REMARK VINA RESULT:      -8.4      2.661      4.335
REMARK  10 active torsions:
REMARK  status: ('A' for Active; 'I' for Inactive)
REMARK    1  A    between atoms: O_2  and  C_3 
REMARK    2  A    between atoms: C_3  and  C_4 
REMARK    3  A    between atoms: C_6  and  C_7 
REMARK    4  A    between atoms: C_7  and  C_8 
REMARK    5  A    between atoms: C_8  and  N_9 
REMARK       I    between atoms: N_9  and  C_10 
REMARK       I    between atoms: C_10  and  N_17 
REMARK    6  A    between atoms: N_17  and  CA_18 
REMARK    7  A    between atoms: CA_18  and  C_19 
REMARK    8  A    between atoms: CA_18  and  CB_21 
REMARK    9  A    between atoms: C_19  and  O_20 
REMARK   10  A    between atoms: CB_21  and  CG_22 
ROOT
HETATM    1  N   UNK A   0      24.326  47.026  50.989  1.00  0.00    -0.343 N 
HETATM    2  C   UNK A   0      25.511  46.898  51.665  1.00  0.00     0.316 C 
HETATM    3  O   UNK A   0      26.516  46.376  51.208  1.00  0.00    -0.248 OA
HETATM    4  H   UNK A   0      23.728  47.774  51.308  1.00  0.00     0.164 HD
ATOM      5  N   TRP A   1      25.418  47.455  52.915  1.00  0.00    -0.336 N 
ATOM      6  H   TRP A   1      24.498  47.315  53.313  1.00  0.00     0.164 HD
ENDROOT
BRANCH   5   7
ATOM      7  CA  TRP A   1      26.521  47.344  53.887  1.00  0.00     0.114 C 
BRANCH   7   8
ATOM      8  C   TRP A   1      26.550  48.544  54.858  1.00  0.00     0.189 C 
BRANCH   8   9
ATOM      9  O   TRP A   1      25.806  48.251  56.040  1.00  0.00    -0.399 OA
ATOM     10  H   TRP A   1      25.980  47.310  56.223  1.00  0.00     0.209 HD
ENDBRANCH   8   9
ENDBRANCH   7   8
BRANCH   7  11
ATOM     11  CB  TRP A   1      26.404  46.036  54.703  1.00  0.00     0.068 C 
BRANCH  11  12
ATOM     12  CG  TRP A   1      27.736  45.427  55.036  1.00  0.00    -0.028 A 
ATOM     13  CD2 TRP A   1      28.437  44.430  54.281  1.00  0.00    -0.002 A 
ATOM     14  CE2 TRP A   1      29.640  44.177  54.938  1.00  0.00     0.042 A 
ATOM     15  CE3 TRP A   1      28.162  43.726  53.090  1.00  0.00     0.014 A 
ATOM     16  CZ2 TRP A   1      30.587  43.262  54.463  1.00  0.00     0.030 A 
ATOM     17  NE1 TRP A   1      29.662  44.969  56.063  1.00  0.00    -0.365 N 
ATOM     18  CH2 TRP A   1      30.293  42.583  53.277  1.00  0.00     0.002 A 
ATOM     19  CZ3 TRP A   1      29.098  42.808  52.599  1.00  0.00     0.001 A 
ATOM     20  HE1 TRP A   1      30.415  44.986  56.737  1.00  0.00     0.165 HD
ATOM     21  CD1 TRP A   1      28.523  45.726  56.131  1.00  0.00     0.096 A 
ENDBRANCH  11  12
ENDBRANCH   7  11
ENDBRANCH   5   7
BRANCH   1  22
HETATM   22  C   UNK A   0      24.221  46.650  49.591  1.00  0.00     0.129 C 
BRANCH  22  23
HETATM   23  C   UNK A   0      22.863  47.003  48.978  1.00  0.00     0.058 C 
BRANCH  23  24
HETATM   24  C   UNK A   0      22.729  48.492  48.765  1.00  0.00    -0.056 A 
HETATM   25  C   UNK A   0      21.553  49.164  49.132  1.00  0.00     0.024 A 
HETATM   26  C   UNK A   0      21.439  50.552  48.963  1.00  0.00     0.040 A 
HETATM   27  C   UNK A   0      22.513  51.272  48.424  1.00  0.00     0.017 A 
HETATM   28  C   UNK A   0      23.687  50.608  48.061  1.00  0.00     0.002 A 
HETATM   29  C   UNK A   0      23.795  49.228  48.231  1.00  0.00     0.007 A 
BRANCH  26  30
HETATM   30  C   UNK A   0      20.166  51.207  49.375  1.00  0.00     0.292 C 
HETATM   31  O   UNK A   0      19.494  50.835  50.324  1.00  0.00    -0.259 OA
BRANCH  30  32
HETATM   32  O   UNK A   0      19.878  52.253  48.560  1.00  0.00    -0.323 OA
HETATM   33  C   UNK A   0      18.555  52.221  48.023  1.00  0.00     0.213 C 
ENDBRANCH  30  32
ENDBRANCH  26  30
ENDBRANCH  23  24
ENDBRANCH  22  23
ENDBRANCH   1  22
TORSDOF 10
ENDMDL
