MODEL 1
REMARK VINA RESULT:      -9.4      0.000      0.000
REMARK  4 active torsions:
REMARK  status: ('A' for Active; 'I' for Inactive)
REMARK    1  A    between atoms: N_5  and  C_6 
REMARK    2  A    between atoms: C_6  and  C_7 
REMARK    3  A    between atoms: C_7  and  C_8 
REMARK    4  A    between atoms: C_8  and  N_9 
ROOT
HETATM    1  C   UNL     1      30.312  47.888  39.254  1.00  0.00     0.236 C 
ENDROOT
BRANCH   1   2
HETATM    2  C   UNL     1      31.020  48.584  40.418  1.00  0.00     0.048 C 
BRANCH   2   3
HETATM    3  C   UNL     1      32.214  49.470  40.044  1.00  0.00     0.131 C 
BRANCH   3   4
HETATM    4  N   UNL     1      31.976  50.887  40.410  1.00  0.00    -0.346 N 
HETATM    5  C   UNL     1      30.927  51.553  39.724  1.00  0.00     0.041 A 
HETATM    6  C   UNL     1      30.000  52.430  40.325  1.00  0.00    -0.031 A 
HETATM    7  C   UNL     1      30.846  51.408  38.315  1.00  0.00     0.030 A 
HETATM    8  C   UNL     1      29.038  53.090  39.520  1.00  0.00     0.009 A 
HETATM    9  C   UNL     1      29.943  52.786  41.794  1.00  0.00     0.045 C 
HETATM   10  C   UNL     1      28.970  52.897  38.145  1.00  0.00     0.001 A 
HETATM   11  C   UNL     1      29.883  52.055  37.538  1.00  0.00     0.002 A 
HETATM   12  C   UNL     1      30.394  51.702  42.760  1.00  0.00     0.045 C 
HETATM   13  C   UNL     1      31.894  51.606  42.781  1.00  0.00    -0.031 A 
HETATM   14  C   UNL     1      32.606  51.260  41.623  1.00  0.00     0.042 A 
HETATM   15  C   UNL     1      32.583  51.895  43.975  1.00  0.00     0.011 A 
HETATM   16  C   UNL     1      34.013  51.253  41.688  1.00  0.00     0.054 A 
HETATM   17  C   UNL     1      34.685  51.532  42.878  1.00  0.00     0.036 A 
HETATM   18 CL   UNL     1      36.400  51.410  42.931  1.00  0.00    -0.084 Cl
HETATM   19  C   UNL     1      33.975  51.849  44.027  1.00  0.00     0.024 A 
ENDBRANCH   3   4
ENDBRANCH   2   3
ENDBRANCH   1   2
BRANCH   1  20
HETATM   20  N   UNL     1      28.812  48.201  39.059  1.00  0.00    -0.071 N 
HETATM   21  H   UNL     1      28.827  48.704  38.148  1.00  0.00     0.279 HD
HETATM   22  C   UNL     1      28.226  49.209  40.025  1.00  0.00     0.238 C 
HETATM   23  C   UNL     1      26.747  48.935  40.304  1.00  0.00     0.077 C 
HETATM   24  C   UNL     1      25.993  48.552  39.038  1.00  0.00     0.212 C 
HETATM   25  N   UNL     1      24.492  48.386  39.277  1.00  0.00    -0.032 N 
HETATM   26  C   UNL     1      26.001  49.747  38.070  1.00  0.00     0.256 C 
HETATM   27  C   UNL     1      26.570  47.315  38.346  1.00  0.00     0.077 C 
HETATM   28  H   UNL     1      24.122  47.878  38.460  1.00  0.00     0.283 HD
HETATM   29  C   UNL     1      23.919  49.761  39.108  1.00  0.00     0.290 C 
HETATM   30  C   UNL     1      23.958  47.694  40.492  1.00  0.00     0.239 C 
HETATM   31  C   UNL     1      22.427  49.643  38.859  1.00  0.00     0.055 C 
HETATM   32  N   UNL     1      24.718  50.263  38.047  1.00  0.00    -0.331 N 
HETATM   33  C   UNL     1      21.763  48.894  40.022  1.00  0.00     0.005 C 
HETATM   34  C   UNL     1      22.447  47.554  40.324  1.00  0.00     0.028 C 
HETATM   35  H   UNL     1      24.549  51.160  37.596  1.00  0.00     0.164 HD
HETATM   36  O   UNL     1      26.978  50.149  37.466  1.00  0.00    -0.271 OA
HETATM   37  C   UNL     1      27.988  46.968  38.801  1.00  0.00     0.238 C 
ENDBRANCH   1  20
TORSDOF 4
ENDMDL
MODEL 2
REMARK VINA RESULT:      -8.9      2.277      4.365
REMARK  4 active torsions:
REMARK  status: ('A' for Active; 'I' for Inactive)
REMARK    1  A    between atoms: N_5  and  C_6 
REMARK    2  A    between atoms: C_6  and  C_7 
REMARK    3  A    between atoms: C_7  and  C_8 
REMARK    4  A    between atoms: C_8  and  N_9 
ROOT
HETATM    1  C   UNL     1      31.400  47.323  40.478  1.00  0.00     0.236 C 
ENDROOT
BRANCH   1   2
HETATM    2  C   UNL     1      32.370  48.430  40.895  1.00  0.00     0.048 C 
BRANCH   2   3
HETATM    3  C   UNL     1      31.794  49.520  41.806  1.00  0.00     0.131 C 
BRANCH   3   4
HETATM    4  N   UNL     1      32.152  50.876  41.326  1.00  0.00    -0.346 N 
HETATM    5  C   UNL     1      33.531  51.212  41.341  1.00  0.00     0.041 A 
HETATM    6  C   UNL     1      34.201  51.914  40.317  1.00  0.00    -0.031 A 
HETATM    7  C   UNL     1      34.285  50.908  42.503  1.00  0.00     0.030 A 
HETATM    8  C   UNL     1      35.568  52.252  40.480  1.00  0.00     0.009 A 
HETATM    9  C   UNL     1      33.581  52.398  39.025  1.00  0.00     0.045 C 
HETATM   10  C   UNL     1      36.282  51.907  41.621  1.00  0.00     0.001 A 
HETATM   11  C   UNL     1      35.635  51.235  42.641  1.00  0.00     0.002 A 
HETATM   12  C   UNL     1      32.447  51.551  38.472  1.00  0.00     0.045 C 
HETATM   13  C   UNL     1      31.180  51.801  39.241  1.00  0.00    -0.031 A 
HETATM   14  C   UNL     1      31.104  51.506  40.610  1.00  0.00     0.042 A 
HETATM   15  C   UNL     1      30.072  52.360  38.576  1.00  0.00     0.011 A 
HETATM   16  C   UNL     1      29.912  51.825  41.291  1.00  0.00     0.054 A 
HETATM   17  C   UNL     1      28.818  52.371  40.620  1.00  0.00     0.036 A 
HETATM   18 CL   UNL     1      27.351  52.646  41.475  1.00  0.00    -0.084 Cl
HETATM   19  C   UNL     1      28.890  52.636  39.261  1.00  0.00     0.024 A 
ENDBRANCH   3   4
ENDBRANCH   2   3
ENDBRANCH   1   2
BRANCH   1  20
HETATM   20  N   UNL     1      29.971  47.757  40.082  1.00  0.00    -0.071 N 
HETATM   21  H   UNL     1      29.780  48.497  40.788  1.00  0.00     0.279 HD
HETATM   22  C   UNL     1      28.887  46.728  40.326  1.00  0.00     0.238 C 
HETATM   23  C   UNL     1      27.751  46.848  39.309  1.00  0.00     0.077 C 
HETATM   24  C   UNL     1      27.387  48.301  39.033  1.00  0.00     0.212 C 
HETATM   25  N   UNL     1      26.179  48.437  38.106  1.00  0.00    -0.032 N 
HETATM   26  C   UNL     1      26.835  48.931  40.322  1.00  0.00     0.256 C 
HETATM   27  C   UNL     1      28.565  49.126  38.510  1.00  0.00     0.077 C 
HETATM   28  H   UNL     1      26.179  49.411  37.770  1.00  0.00     0.283 HD
HETATM   29  C   UNL     1      24.988  48.394  39.015  1.00  0.00     0.290 C 
HETATM   30  C   UNL     1      26.005  47.566  36.901  1.00  0.00     0.239 C 
HETATM   31  C   UNL     1      23.793  48.979  38.286  1.00  0.00     0.055 C 
HETATM   32  N   UNL     1      25.475  49.106  40.142  1.00  0.00    -0.331 N 
HETATM   33  C   UNL     1      23.542  48.198  36.989  1.00  0.00     0.005 C 
HETATM   34  C   UNL     1      24.801  48.083  36.119  1.00  0.00     0.028 C 
HETATM   35  H   UNL     1      24.894  49.357  40.939  1.00  0.00     0.164 HD
HETATM   36  O   UNL     1      27.497  49.198  41.307  1.00  0.00    -0.271 OA
HETATM   37  C   UNL     1      29.924  48.472  38.758  1.00  0.00     0.238 C 
ENDBRANCH   1  20
TORSDOF 4
ENDMDL
MODEL 3
REMARK VINA RESULT:      -8.8     12.747     14.144
REMARK  4 active torsions:
REMARK  status: ('A' for Active; 'I' for Inactive)
REMARK    1  A    between atoms: N_5  and  C_6 
REMARK    2  A    between atoms: C_6  and  C_7 
REMARK    3  A    between atoms: C_7  and  C_8 
REMARK    4  A    between atoms: C_8  and  N_9 
ROOT
HETATM    1  C   UNL     1      27.721  40.635  52.533  1.00  0.00     0.236 C 
ENDROOT
BRANCH   1   2
HETATM    2  C   UNL     1      28.159  42.093  52.693  1.00  0.00     0.048 C 
BRANCH   2   3
HETATM    3  C   UNL     1      27.148  43.026  53.370  1.00  0.00     0.131 C 
BRANCH   3   4
HETATM    4  N   UNL     1      27.536  44.448  53.219  1.00  0.00    -0.346 N 
HETATM    5  C   UNL     1      26.952  45.156  52.136  1.00  0.00     0.041 A 
HETATM    6  C   UNL     1      26.466  46.479  52.205  1.00  0.00    -0.031 A 
HETATM    7  C   UNL     1      26.928  44.534  50.861  1.00  0.00     0.030 A 
HETATM    8  C   UNL     1      25.965  47.102  51.034  1.00  0.00     0.009 A 
HETATM    9  C   UNL     1      26.456  47.353  53.438  1.00  0.00     0.045 C 
HETATM   10  C   UNL     1      25.930  46.447  49.808  1.00  0.00     0.001 A 
HETATM   11  C   UNL     1      26.419  45.158  49.720  1.00  0.00     0.002 A 
HETATM   12  C   UNL     1      26.299  46.631  54.766  1.00  0.00     0.045 C 
HETATM   13  C   UNL     1      27.593  45.980  55.168  1.00  0.00    -0.031 A 
HETATM   14  C   UNL     1      28.167  44.978  54.372  1.00  0.00     0.042 A 
HETATM   15  C   UNL     1      28.240  46.407  56.343  1.00  0.00     0.011 A 
HETATM   16  C   UNL     1      29.414  44.453  54.765  1.00  0.00     0.054 A 
HETATM   17  C   UNL     1      30.042  44.878  55.936  1.00  0.00     0.036 A 
HETATM   18 CL   UNL     1      31.514  44.133  56.426  1.00  0.00    -0.084 Cl
HETATM   19  C   UNL     1      29.457  45.851  56.733  1.00  0.00     0.024 A 
ENDBRANCH   3   4
ENDBRANCH   2   3
ENDBRANCH   1   2
BRANCH   1  20
HETATM   20  N   UNL     1      27.550  40.110  51.090  1.00  0.00    -0.071 N 
HETATM   21  H   UNL     1      27.012  39.235  51.254  1.00  0.00     0.279 HD
HETATM   22  C   UNL     1      28.820  39.639  50.413  1.00  0.00     0.238 C 
HETATM   23  C   UNL     1      28.772  39.857  48.900  1.00  0.00     0.077 C 
HETATM   24  C   UNL     1      27.411  39.499  48.319  1.00  0.00     0.212 C 
HETATM   25  N   UNL     1      27.379  39.601  46.794  1.00  0.00    -0.032 N 
HETATM   26  C   UNL     1      27.164  37.994  48.513  1.00  0.00     0.256 C 
HETATM   27  C   UNL     1      26.263  40.301  48.938  1.00  0.00     0.077 C 
HETATM   28  H   UNL     1      26.384  39.609  46.524  1.00  0.00     0.283 HD
HETATM   29  C   UNL     1      27.850  38.264  46.307  1.00  0.00     0.290 C 
HETATM   30  C   UNL     1      28.032  40.734  46.064  1.00  0.00     0.239 C 
HETATM   31  C   UNL     1      27.421  38.090  44.862  1.00  0.00     0.055 C 
HETATM   32  N   UNL     1      27.265  37.400  47.268  1.00  0.00    -0.331 N 
HETATM   33  C   UNL     1      27.988  39.233  44.009  1.00  0.00     0.005 C 
HETATM   34  C   UNL     1      27.660  40.615  44.588  1.00  0.00     0.028 C 
HETATM   35  H   UNL     1      27.299  36.384  47.201  1.00  0.00     0.164 HD
HETATM   36  O   UNL     1      26.942  37.455  49.581  1.00  0.00    -0.271 OA
HETATM   37  C   UNL     1      26.634  40.971  50.261  1.00  0.00     0.238 C 
ENDBRANCH   1  20
TORSDOF 4
ENDMDL
MODEL 4
REMARK VINA RESULT:      -8.8     26.088     28.006
REMARK  4 active torsions:
REMARK  status: ('A' for Active; 'I' for Inactive)
REMARK    1  A    between atoms: N_5  and  C_6 
REMARK    2  A    between atoms: C_6  and  C_7 
REMARK    3  A    between atoms: C_7  and  C_8 
REMARK    4  A    between atoms: C_8  and  N_9 
ROOT
HETATM    1  C   UNL     1      41.126  47.530  64.626  1.00  0.00     0.236 C 
ENDROOT
BRANCH   1   2
HETATM    2  C   UNL     1      40.204  48.268  65.599  1.00  0.00     0.048 C 
BRANCH   2   3
HETATM    3  C   UNL     1      39.156  49.189  64.964  1.00  0.00     0.131 C 
BRANCH   3   4
HETATM    4  N   UNL     1      37.886  49.176  65.728  1.00  0.00    -0.346 N 
HETATM    5  C   UNL     1      37.159  47.957  65.732  1.00  0.00     0.041 A 
HETATM    6  C   UNL     1      36.518  47.404  66.861  1.00  0.00    -0.031 A 
HETATM    7  C   UNL     1      36.977  47.278  64.500  1.00  0.00     0.030 A 
HETATM    8  C   UNL     1      35.763  46.212  66.723  1.00  0.00     0.009 A 
HETATM    9  C   UNL     1      36.520  47.991  68.254  1.00  0.00     0.045 C 
HETATM   10  C   UNL     1      35.635  45.558  65.503  1.00  0.00     0.001 A 
HETATM   11  C   UNL     1      36.241  46.096  64.385  1.00  0.00     0.002 A 
HETATM   12  C   UNL     1      37.762  48.776  68.645  1.00  0.00     0.045 C 
HETATM   13  C   UNL     1      37.747  50.137  68.009  1.00  0.00    -0.031 A 
HETATM   14  C   UNL     1      37.759  50.275  66.613  1.00  0.00     0.042 A 
HETATM   15  C   UNL     1      37.694  51.279  68.831  1.00  0.00     0.011 A 
HETATM   16  C   UNL     1      37.675  51.574  66.075  1.00  0.00     0.054 A 
HETATM   17  C   UNL     1      37.632  52.699  66.899  1.00  0.00     0.036 A 
HETATM   18 CL   UNL     1      37.634  54.267  66.193  1.00  0.00    -0.084 Cl
HETATM   19  C   UNL     1      37.646  52.558  68.279  1.00  0.00     0.024 A 
ENDBRANCH   3   4
ENDBRANCH   2   3
ENDBRANCH   1   2
BRANCH   1  20
HETATM   20  N   UNL     1      40.769  46.063  64.300  1.00  0.00    -0.071 N 
HETATM   21  H   UNL     1      40.243  46.174  63.410  1.00  0.00     0.279 HD
HETATM   22  C   UNL     1      39.773  45.411  65.237  1.00  0.00     0.238 C 
HETATM   23  C   UNL     1      40.018  43.907  65.369  1.00  0.00     0.077 C 
HETATM   24  C   UNL     1      40.348  43.266  64.027  1.00  0.00     0.212 C 
HETATM   25  N   UNL     1      40.482  41.746  64.121  1.00  0.00    -0.032 N 
HETATM   26  C   UNL     1      39.128  43.392  63.099  1.00  0.00     0.256 C 
HETATM   27  C   UNL     1      41.580  43.878  63.357  1.00  0.00     0.077 C 
HETATM   28  H   UNL     1      40.959  41.443  63.259  1.00  0.00     0.283 HD
HETATM   29  C   UNL     1      39.090  41.223  63.939  1.00  0.00     0.290 C 
HETATM   30  C   UNL     1      41.193  41.085  65.260  1.00  0.00     0.239 C 
HETATM   31  C   UNL     1      39.164  39.758  63.549  1.00  0.00     0.055 C 
HETATM   32  N   UNL     1      38.580  42.129  62.972  1.00  0.00    -0.331 N 
HETATM   33  C   UNL     1      39.926  38.972  64.623  1.00  0.00     0.005 C 
HETATM   34  C   UNL     1      41.290  39.594  64.949  1.00  0.00     0.028 C 
HETATM   35  H   UNL     1      37.667  42.023  62.533  1.00  0.00     0.164 HD
HETATM   36  O   UNL     1      38.735  44.430  62.601  1.00  0.00    -0.271 OA
HETATM   37  C   UNL     1      41.974  45.238  63.932  1.00  0.00     0.238 C 
ENDBRANCH   1  20
TORSDOF 4
ENDMDL
MODEL 5
REMARK VINA RESULT:      -8.7      2.017      3.928
REMARK  4 active torsions:
REMARK  status: ('A' for Active; 'I' for Inactive)
REMARK    1  A    between atoms: N_5  and  C_6 
REMARK    2  A    between atoms: C_6  and  C_7 
REMARK    3  A    between atoms: C_7  and  C_8 
REMARK    4  A    between atoms: C_8  and  N_9 
ROOT
HETATM    1  C   UNL     1      30.028  47.090  39.889  1.00  0.00     0.236 C 
ENDROOT
BRANCH   1   2
HETATM    2  C   UNL     1      31.180  48.096  39.837  1.00  0.00     0.048 C 
BRANCH   2   3
HETATM    3  C   UNL     1      31.393  48.938  41.100  1.00  0.00     0.131 C 
BRANCH   3   4
HETATM    4  N   UNL     1      31.868  50.303  40.771  1.00  0.00    -0.346 N 
HETATM    5  C   UNL     1      33.274  50.497  40.740  1.00  0.00     0.041 A 
HETATM    6  C   UNL     1      33.962  51.256  39.770  1.00  0.00    -0.031 A 
HETATM    7  C   UNL     1      34.049  49.970  41.804  1.00  0.00     0.030 A 
HETATM    8  C   UNL     1      35.364  51.433  39.885  1.00  0.00     0.009 A 
HETATM    9  C   UNL     1      33.332  51.963  38.591  1.00  0.00     0.045 C 
HETATM   10  C   UNL     1      36.094  50.874  40.927  1.00  0.00     0.001 A 
HETATM   11  C   UNL     1      35.432  50.142  41.895  1.00  0.00     0.002 A 
HETATM   12  C   UNL     1      32.088  51.311  38.010  1.00  0.00     0.045 C 
HETATM   13  C   UNL     1      30.895  51.583  38.884  1.00  0.00    -0.031 A 
HETATM   14  C   UNL     1      30.858  51.122  40.208  1.00  0.00     0.042 A 
HETATM   15  C   UNL     1      29.820  52.331  38.365  1.00  0.00     0.011 A 
HETATM   16  C   UNL     1      29.743  51.465  40.997  1.00  0.00     0.054 A 
HETATM   17  C   UNL     1      28.680  52.199  40.471  1.00  0.00     0.036 A 
HETATM   18 CL   UNL     1      27.296  52.504  41.446  1.00  0.00    -0.084 Cl
HETATM   19  C   UNL     1      28.710  52.630  39.153  1.00  0.00     0.024 A 
ENDBRANCH   3   4
ENDBRANCH   2   3
ENDBRANCH   1   2
BRANCH   1  20
HETATM   20  N   UNL     1      28.628  47.608  39.494  1.00  0.00    -0.071 N 
HETATM   21  H   UNL     1      28.848  48.160  38.640  1.00  0.00     0.279 HD
HETATM   22  C   UNL     1      28.018  48.623  40.439  1.00  0.00     0.238 C 
HETATM   23  C   UNL     1      26.491  48.527  40.467  1.00  0.00     0.077 C 
HETATM   24  C   UNL     1      25.910  48.324  39.074  1.00  0.00     0.212 C 
HETATM   25  N   UNL     1      24.382  48.342  39.068  1.00  0.00    -0.032 N 
HETATM   26  C   UNL     1      26.217  49.565  38.219  1.00  0.00     0.256 C 
HETATM   27  C   UNL     1      26.440  47.068  38.379  1.00  0.00     0.077 C 
HETATM   28  H   UNL     1      24.090  47.937  38.166  1.00  0.00     0.283 HD
HETATM   29  C   UNL     1      24.012  49.787  38.927  1.00  0.00     0.290 C 
HETATM   30  C   UNL     1      23.580  47.651  40.128  1.00  0.00     0.239 C 
HETATM   31  C   UNL     1      22.576  49.880  38.445  1.00  0.00     0.055 C 
HETATM   32  N   UNL     1      25.025  50.245  38.044  1.00  0.00    -0.331 N 
HETATM   33  C   UNL     1      21.649  49.154  39.429  1.00  0.00     0.005 C 
HETATM   34  C   UNL     1      22.110  47.720  39.721  1.00  0.00     0.028 C 
HETATM   35  H   UNL     1      25.038  51.183  37.647  1.00  0.00     0.164 HD
HETATM   36  O   UNL     1      27.318  49.873  37.805  1.00  0.00    -0.271 OA
HETATM   37  C   UNL     1      27.714  46.512  39.014  1.00  0.00     0.238 C 
ENDBRANCH   1  20
TORSDOF 4
ENDMDL
MODEL 6
REMARK VINA RESULT:      -8.7     10.369     13.103
REMARK  4 active torsions:
REMARK  status: ('A' for Active; 'I' for Inactive)
REMARK    1  A    between atoms: N_5  and  C_6 
REMARK    2  A    between atoms: C_6  and  C_7 
REMARK    3  A    between atoms: C_7  and  C_8 
REMARK    4  A    between atoms: C_8  and  N_9 
ROOT
HETATM    1  C   UNL     1      20.173  48.459  47.764  1.00  0.00     0.236 C 
ENDROOT
BRANCH   1   2
HETATM    2  C   UNL     1      21.674  48.760  47.776  1.00  0.00     0.048 C 
BRANCH   2   3
HETATM    3  C   UNL     1      22.398  48.507  49.103  1.00  0.00     0.131 C 
BRANCH   3   4
HETATM    4  N   UNL     1      23.613  47.679  48.910  1.00  0.00    -0.346 N 
HETATM    5  C   UNL     1      24.860  48.355  48.973  1.00  0.00     0.041 A 
HETATM    6  C   UNL     1      26.012  47.862  49.620  1.00  0.00    -0.031 A 
HETATM    7  C   UNL     1      25.000  49.575  48.263  1.00  0.00     0.030 A 
HETATM    8  C   UNL     1      27.221  48.601  49.555  1.00  0.00     0.009 A 
HETATM    9  C   UNL     1      26.111  46.557  50.377  1.00  0.00     0.045 C 
HETATM   10  C   UNL     1      27.310  49.809  48.874  1.00  0.00     0.001 A 
HETATM   11  C   UNL     1      26.195  50.297  48.220  1.00  0.00     0.002 A 
HETATM   12  C   UNL     1      24.840  46.088  51.066  1.00  0.00     0.045 C 
HETATM   13  C   UNL     1      23.884  45.502  50.065  1.00  0.00    -0.031 A 
HETATM   14  C   UNL     1      23.363  46.289  49.028  1.00  0.00     0.042 A 
HETATM   15  C   UNL     1      23.534  44.142  50.165  1.00  0.00     0.011 A 
HETATM   16  C   UNL     1      22.524  45.667  48.082  1.00  0.00     0.054 A 
HETATM   17  C   UNL     1      22.177  44.321  48.195  1.00  0.00     0.036 A 
HETATM   18 CL   UNL     1      21.069  43.635  47.073  1.00  0.00    -0.084 Cl
HETATM   19  C   UNL     1      22.675  43.554  49.238  1.00  0.00     0.024 A 
ENDBRANCH   3   4
ENDBRANCH   2   3
ENDBRANCH   1   2
BRANCH   1  20
HETATM   20  N   UNL     1      19.221  49.633  48.080  1.00  0.00    -0.071 N 
HETATM   21  H   UNL     1      19.677  50.045  48.919  1.00  0.00     0.279 HD
HETATM   22  C   UNL     1      17.842  49.241  48.567  1.00  0.00     0.238 C 
HETATM   23  C   UNL     1      16.781  50.261  48.150  1.00  0.00     0.077 C 
HETATM   24  C   UNL     1      17.276  51.692  48.310  1.00  0.00     0.212 C 
HETATM   25  N   UNL     1      16.191  52.726  48.008  1.00  0.00    -0.032 N 
HETATM   26  C   UNL     1      17.532  51.969  49.801  1.00  0.00     0.256 C 
HETATM   27  C   UNL     1      18.542  51.984  47.499  1.00  0.00     0.077 C 
HETATM   28  H   UNL     1      16.676  53.626  47.878  1.00  0.00     0.283 HD
HETATM   29  C   UNL     1      15.466  52.916  49.305  1.00  0.00     0.290 C 
HETATM   30  C   UNL     1      15.254  52.572  46.850  1.00  0.00     0.239 C 
HETATM   31  C   UNL     1      14.701  54.225  49.252  1.00  0.00     0.055 C 
HETATM   32  N   UNL     1      16.536  52.824  50.234  1.00  0.00    -0.331 N 
HETATM   33  C   UNL     1      13.734  54.215  48.061  1.00  0.00     0.005 C 
HETATM   34  C   UNL     1      14.430  53.852  46.743  1.00  0.00     0.028 C 
HETATM   35  H   UNL     1      16.427  52.999  51.231  1.00  0.00     0.164 HD
HETATM   36  O   UNL     1      18.443  51.493  50.452  1.00  0.00    -0.271 OA
HETATM   37  C   UNL     1      19.276  50.723  47.042  1.00  0.00     0.238 C 
ENDBRANCH   1  20
TORSDOF 4
ENDMDL
MODEL 7
REMARK VINA RESULT:      -8.6      1.342      2.040
REMARK  4 active torsions:
REMARK  status: ('A' for Active; 'I' for Inactive)
REMARK    1  A    between atoms: N_5  and  C_6 
REMARK    2  A    between atoms: C_6  and  C_7 
REMARK    3  A    between atoms: C_7  and  C_8 
REMARK    4  A    between atoms: C_8  and  N_9 
ROOT
HETATM    1  C   UNL     1      30.731  47.630  40.229  1.00  0.00     0.236 C 
ENDROOT
BRANCH   1   2
HETATM    2  C   UNL     1      31.546  48.571  41.120  1.00  0.00     0.048 C 
BRANCH   2   3
HETATM    3  C   UNL     1      32.540  49.486  40.396  1.00  0.00     0.131 C 
BRANCH   3   4
HETATM    4  N   UNL     1      32.322  50.910  40.744  1.00  0.00    -0.346 N 
HETATM    5  C   UNL     1      31.184  51.538  40.172  1.00  0.00     0.041 A 
HETATM    6  C   UNL     1      30.321  52.420  40.856  1.00  0.00    -0.031 A 
HETATM    7  C   UNL     1      30.933  51.345  38.790  1.00  0.00     0.030 A 
HETATM    8  C   UNL     1      29.255  53.038  40.156  1.00  0.00     0.009 A 
HETATM    9  C   UNL     1      30.439  52.823  42.309  1.00  0.00     0.045 C 
HETATM   10  C   UNL     1      29.023  52.799  38.806  1.00  0.00     0.001 A 
HETATM   11  C   UNL     1      29.870  51.952  38.118  1.00  0.00     0.002 A 
HETATM   12  C   UNL     1      31.025  51.778  43.245  1.00  0.00     0.045 C 
HETATM   13  C   UNL     1      32.518  51.706  43.084  1.00  0.00    -0.031 A 
HETATM   14  C   UNL     1      33.089  51.333  41.858  1.00  0.00     0.042 A 
HETATM   15  C   UNL     1      33.343  52.044  44.174  1.00  0.00     0.011 A 
HETATM   16  C   UNL     1      34.493  51.349  41.750  1.00  0.00     0.054 A 
HETATM   17  C   UNL     1      35.301  51.677  42.838  1.00  0.00     0.036 A 
HETATM   18 CL   UNL     1      37.011  51.583  42.683  1.00  0.00    -0.084 Cl
HETATM   19  C   UNL     1      34.732  52.021  44.055  1.00  0.00     0.024 A 
ENDBRANCH   3   4
ENDBRANCH   2   3
ENDBRANCH   1   2
BRANCH   1  20
HETATM   20  N   UNL     1      29.193  47.719  40.339  1.00  0.00    -0.071 N 
HETATM   21  H   UNL     1      29.018  47.170  41.205  1.00  0.00     0.279 HD
HETATM   22  C   UNL     1      28.420  46.975  39.271  1.00  0.00     0.238 C 
HETATM   23  C   UNL     1      27.086  47.656  38.957  1.00  0.00     0.077 C 
HETATM   24  C   UNL     1      26.386  48.140  40.220  1.00  0.00     0.212 C 
HETATM   25  N   UNL     1      25.000  48.720  39.936  1.00  0.00    -0.032 N 
HETATM   26  C   UNL     1      26.018  46.924  41.085  1.00  0.00     0.256 C 
HETATM   27  C   UNL     1      27.228  49.126  41.034  1.00  0.00     0.077 C 
HETATM   28  H   UNL     1      24.730  49.252  40.777  1.00  0.00     0.283 HD
HETATM   29  C   UNL     1      24.074  47.542  39.968  1.00  0.00     0.290 C 
HETATM   30  C   UNL     1      24.743  49.613  38.762  1.00  0.00     0.239 C 
HETATM   31  C   UNL     1      22.654  48.041  40.167  1.00  0.00     0.055 C 
HETATM   32  N   UNL     1      24.645  46.772  41.015  1.00  0.00    -0.331 N 
HETATM   33  C   UNL     1      22.284  49.019  39.044  1.00  0.00     0.005 C 
HETATM   34  C   UNL     1      23.316  50.143  38.881  1.00  0.00     0.028 C 
HETATM   35  H   UNL     1      24.217  45.925  41.383  1.00  0.00     0.164 HD
HETATM   36  O   UNL     1      26.815  46.233  41.692  1.00  0.00    -0.271 OA
HETATM   37  C   UNL     1      28.711  49.108  40.665  1.00  0.00     0.238 C 
ENDBRANCH   1  20
TORSDOF 4
ENDMDL
MODEL 8
REMARK VINA RESULT:      -8.6      3.618      8.426
REMARK  4 active torsions:
REMARK  status: ('A' for Active; 'I' for Inactive)
REMARK    1  A    between atoms: N_5  and  C_6 
REMARK    2  A    between atoms: C_6  and  C_7 
REMARK    3  A    between atoms: C_7  and  C_8 
REMARK    4  A    between atoms: C_8  and  N_9 
ROOT
HETATM    1  C   UNL     1      28.392  51.266  41.868  1.00  0.00     0.236 C 
ENDROOT
BRANCH   1   2
HETATM    2  C   UNL     1      27.737  49.933  41.502  1.00  0.00     0.048 C 
BRANCH   2   3
HETATM    3  C   UNL     1      27.160  49.835  40.085  1.00  0.00     0.131 C 
BRANCH   3   4
HETATM    4  N   UNL     1      28.097  49.153  39.162  1.00  0.00    -0.346 N 
HETATM    5  C   UNL     1      29.270  49.868  38.803  1.00  0.00     0.041 A 
HETATM    6  C   UNL     1      30.560  49.304  38.706  1.00  0.00    -0.031 A 
HETATM    7  C   UNL     1      29.140  51.228  38.425  1.00  0.00     0.030 A 
HETATM    8  C   UNL     1      31.644  50.108  38.272  1.00  0.00     0.009 A 
HETATM    9  C   UNL     1      30.919  47.863  38.993  1.00  0.00     0.045 C 
HETATM   10  C   UNL     1      31.481  51.447  37.939  1.00  0.00     0.001 A 
HETATM   11  C   UNL     1      30.221  52.010  38.012  1.00  0.00     0.002 A 
HETATM   12  C   UNL     1      30.083  47.167  40.056  1.00  0.00     0.045 C 
HETATM   13  C   UNL     1      28.740  46.783  39.501  1.00  0.00    -0.031 A 
HETATM   14  C   UNL     1      27.848  47.763  39.043  1.00  0.00     0.042 A 
HETATM   15  C   UNL     1      28.395  45.420  39.420  1.00  0.00     0.011 A 
HETATM   16  C   UNL     1      26.632  47.337  38.472  1.00  0.00     0.054 A 
HETATM   17  C   UNL     1      26.297  45.985  38.405  1.00  0.00     0.036 A 
HETATM   18 CL   UNL     1      24.757  45.523  37.793  1.00  0.00    -0.084 Cl
HETATM   19  C   UNL     1      27.173  45.021  38.883  1.00  0.00     0.024 A 
ENDBRANCH   3   4
ENDBRANCH   2   3
ENDBRANCH   1   2
BRANCH   1  20
HETATM   20  N   UNL     1      29.895  51.234  42.225  1.00  0.00    -0.071 N 
HETATM   21  H   UNL     1      29.860  51.311  43.262  1.00  0.00     0.279 HD
HETATM   22  C   UNL     1      30.693  52.446  41.793  1.00  0.00     0.238 C 
HETATM   23  C   UNL     1      32.145  52.084  41.471  1.00  0.00     0.077 C 
HETATM   24  C   UNL     1      32.722  51.101  42.480  1.00  0.00     0.212 C 
HETATM   25  N   UNL     1      34.204  50.817  42.240  1.00  0.00    -0.032 N 
HETATM   26  C   UNL     1      32.776  51.775  43.861  1.00  0.00     0.256 C 
HETATM   27  C   UNL     1      31.928  49.794  42.567  1.00  0.00     0.077 C 
HETATM   28  H   UNL     1      34.428  49.966  42.777  1.00  0.00     0.283 HD
HETATM   29  C   UNL     1      34.930  51.892  42.992  1.00  0.00     0.290 C 
HETATM   30  C   UNL     1      34.757  50.614  40.864  1.00  0.00     0.239 C 
HETATM   31  C   UNL     1      36.365  51.451  43.214  1.00  0.00     0.055 C 
HETATM   32  N   UNL     1      34.106  52.029  44.139  1.00  0.00    -0.331 N 
HETATM   33  C   UNL     1      37.034  51.156  41.865  1.00  0.00     0.005 C 
HETATM   34  C   UNL     1      36.215  50.184  41.004  1.00  0.00     0.028 C 
HETATM   35  H   UNL     1      34.346  52.622  44.932  1.00  0.00     0.164 HD
HETATM   36  O   UNL     1      31.806  52.038  44.547  1.00  0.00    -0.271 OA
HETATM   37  C   UNL     1      30.527  49.892  41.964  1.00  0.00     0.238 C 
ENDBRANCH   1  20
TORSDOF 4
ENDMDL
MODEL 9
REMARK VINA RESULT:      -8.6     10.919     13.875
REMARK  4 active torsions:
REMARK  status: ('A' for Active; 'I' for Inactive)
REMARK    1  A    between atoms: N_5  and  C_6 
REMARK    2  A    between atoms: C_6  and  C_7 
REMARK    3  A    between atoms: C_7  and  C_8 
REMARK    4  A    between atoms: C_8  and  N_9 
ROOT
HETATM    1  C   UNL     1      22.873  44.862  47.973  1.00  0.00     0.236 C 
ENDROOT
BRANCH   1   2
HETATM    2  C   UNL     1      22.192  46.206  47.706  1.00  0.00     0.048 C 
BRANCH   2   3
HETATM    3  C   UNL     1      20.952  46.510  48.553  1.00  0.00     0.131 C 
BRANCH   3   4
HETATM    4  N   UNL     1      20.357  47.820  48.197  1.00  0.00    -0.346 N 
HETATM    5  C   UNL     1      18.981  47.819  47.846  1.00  0.00     0.041 A 
HETATM    6  C   UNL     1      18.044  48.791  48.258  1.00  0.00    -0.031 A 
HETATM    7  C   UNL     1      18.516  46.828  46.945  1.00  0.00     0.030 A 
HETATM    8  C   UNL     1      16.709  48.720  47.785  1.00  0.00     0.009 A 
HETATM    9  C   UNL     1      18.332  49.971  49.158  1.00  0.00     0.045 C 
HETATM   10  C   UNL     1      16.284  47.713  46.927  1.00  0.00     0.001 A 
HETATM   11  C   UNL     1      17.194  46.764  46.500  1.00  0.00     0.002 A 
HETATM   12  C   UNL     1      19.417  49.764  50.203  1.00  0.00     0.045 C 
HETATM   13  C   UNL     1      20.778  49.841  49.570  1.00  0.00    -0.031 A 
HETATM   14  C   UNL     1      21.162  48.920  48.584  1.00  0.00     0.042 A 
HETATM   15  C   UNL     1      21.660  50.867  49.960  1.00  0.00     0.011 A 
HETATM   16  C   UNL     1      22.424  49.083  47.981  1.00  0.00     0.054 A 
HETATM   17  C   UNL     1      23.293  50.098  48.381  1.00  0.00     0.036 A 
HETATM   18 CL   UNL     1      24.863  50.193  47.685  1.00  0.00    -0.084 Cl
HETATM   19  C   UNL     1      22.919  50.991  49.374  1.00  0.00     0.024 A 
ENDBRANCH   3   4
ENDBRANCH   2   3
ENDBRANCH   1   2
BRANCH   1  20
HETATM   20  N   UNL     1      24.030  44.854  48.996  1.00  0.00    -0.071 N 
HETATM   21  H   UNL     1      24.833  44.581  48.394  1.00  0.00     0.279 HD
HETATM   22  C   UNL     1      23.967  43.760  50.042  1.00  0.00     0.238 C 
HETATM   23  C   UNL     1      24.595  44.203  51.365  1.00  0.00     0.077 C 
HETATM   24  C   UNL     1      25.882  44.988  51.147  1.00  0.00     0.212 C 
HETATM   25  N   UNL     1      26.584  45.339  52.459  1.00  0.00    -0.032 N 
HETATM   26  C   UNL     1      26.927  44.065  50.498  1.00  0.00     0.256 C 
HETATM   27  C   UNL     1      25.684  46.239  50.288  1.00  0.00     0.077 C 
HETATM   28  H   UNL     1      27.268  46.077  52.234  1.00  0.00     0.283 HD
HETATM   29  C   UNL     1      27.451  44.155  52.763  1.00  0.00     0.290 C 
HETATM   30  C   UNL     1      25.824  45.810  53.660  1.00  0.00     0.239 C 
HETATM   31  C   UNL     1      28.520  44.572  53.756  1.00  0.00     0.055 C 
HETATM   32  N   UNL     1      27.880  43.788  51.460  1.00  0.00    -0.331 N 
HETATM   33  C   UNL     1      27.862  45.130  55.025  1.00  0.00     0.005 C 
HETATM   34  C   UNL     1      26.838  46.232  54.719  1.00  0.00     0.028 C 
HETATM   35  H   UNL     1      28.571  43.060  51.284  1.00  0.00     0.164 HD
HETATM   36  O   UNL     1      26.883  43.659  49.352  1.00  0.00    -0.271 OA
HETATM   37  C   UNL     1      24.378  46.232  49.493  1.00  0.00     0.238 C 
ENDBRANCH   1  20
TORSDOF 4
ENDMDL
MODEL 10
REMARK VINA RESULT:      -8.5     26.401     28.392
REMARK  4 active torsions:
REMARK  status: ('A' for Active; 'I' for Inactive)
REMARK    1  A    between atoms: N_5  and  C_6 
REMARK    2  A    between atoms: C_6  and  C_7 
REMARK    3  A    between atoms: C_7  and  C_8 
REMARK    4  A    between atoms: C_8  and  N_9 
ROOT
HETATM    1  C   UNL     1      41.455  48.258  66.779  1.00  0.00     0.236 C 
ENDROOT
BRANCH   1   2
HETATM    2  C   UNL     1      40.258  49.116  67.194  1.00  0.00     0.048 C 
BRANCH   2   3
HETATM    3  C   UNL     1      39.520  49.833  66.057  1.00  0.00     0.131 C 
BRANCH   3   4
HETATM    4  N   UNL     1      38.053  49.823  66.270  1.00  0.00    -0.346 N 
HETATM    5  C   UNL     1      37.366  48.635  65.907  1.00  0.00     0.041 A 
HETATM    6  C   UNL     1      36.332  48.039  66.661  1.00  0.00    -0.031 A 
HETATM    7  C   UNL     1      37.667  48.039  64.656  1.00  0.00     0.030 A 
HETATM    8  C   UNL     1      35.675  46.888  66.158  1.00  0.00     0.009 A 
HETATM    9  C   UNL     1      35.802  48.540  67.985  1.00  0.00     0.045 C 
HETATM   10  C   UNL     1      36.020  46.315  64.940  1.00  0.00     0.001 A 
HETATM   11  C   UNL     1      37.019  46.896  64.182  1.00  0.00     0.002 A 
HETATM   12  C   UNL     1      36.805  49.251  68.879  1.00  0.00     0.045 C 
HETATM   13  C   UNL     1      37.054  50.648  68.383  1.00  0.00    -0.031 A 
HETATM   14  C   UNL     1      37.607  50.870  67.114  1.00  0.00     0.042 A 
HETATM   15  C   UNL     1      36.700  51.739  69.201  1.00  0.00     0.011 A 
HETATM   16  C   UNL     1      37.753  52.202  66.679  1.00  0.00     0.054 A 
HETATM   17  C   UNL     1      37.408  53.275  67.500  1.00  0.00     0.036 A 
HETATM   18 CL   UNL     1      37.702  54.882  66.962  1.00  0.00    -0.084 Cl
HETATM   19  C   UNL     1      36.885  53.050  68.765  1.00  0.00     0.024 A 
ENDBRANCH   3   4
ENDBRANCH   2   3
ENDBRANCH   1   2
BRANCH   1  20
HETATM   20  N   UNL     1      41.154  46.821  66.298  1.00  0.00    -0.071 N 
HETATM   21  H   UNL     1      41.815  46.269  66.881  1.00  0.00     0.279 HD
HETATM   22  C   UNL     1      41.572  46.510  64.876  1.00  0.00     0.238 C 
HETATM   23  C   UNL     1      40.651  45.473  64.228  1.00  0.00     0.077 C 
HETATM   24  C   UNL     1      40.297  44.349  65.192  1.00  0.00     0.212 C 
HETATM   25  N   UNL     1      39.472  43.246  64.528  1.00  0.00    -0.032 N 
HETATM   26  C   UNL     1      41.577  43.576  65.551  1.00  0.00     0.256 C 
HETATM   27  C   UNL     1      39.610  44.844  66.467  1.00  0.00     0.077 C 
HETATM   28  H   UNL     1      39.063  42.689  65.293  1.00  0.00     0.283 HD
HETATM   29  C   UNL     1      40.482  42.312  63.934  1.00  0.00     0.290 C 
HETATM   30  C   UNL     1      38.357  43.556  63.578  1.00  0.00     0.239 C 
HETATM   31  C   UNL     1      39.817  40.974  63.670  1.00  0.00     0.055 C 
HETATM   32  N   UNL     1      41.503  42.348  64.919  1.00  0.00    -0.331 N 
HETATM   33  C   UNL     1      38.612  41.166  62.740  1.00  0.00     0.005 C 
HETATM   34  C   UNL     1      37.647  42.247  63.247  1.00  0.00     0.028 C 
HETATM   35  H   UNL     1      42.327  41.750  64.893  1.00  0.00     0.164 HD
HETATM   36  O   UNL     1      42.477  44.003  66.249  1.00  0.00    -0.271 OA
HETATM   37  C   UNL     1      39.788  46.343  66.711  1.00  0.00     0.238 C 
ENDBRANCH   1  20
TORSDOF 4
ENDMDL
