MODEL 1
REMARK VINA RESULT:      -8.0      0.000      0.000
REMARK  8 active torsions:
REMARK  status: ('A' for Active; 'I' for Inactive)
REMARK    1  A    between atoms: C_7  and  N_8 
REMARK    2  A    between atoms: N_8  and  C_9 
REMARK    3  A    between atoms: C_9  and  C_10 
REMARK    4  A    between atoms: C_10  and  C_11 
REMARK    5  A    between atoms: C_11  and  O_12 
REMARK    6  A    between atoms: C_14  and  N_15 
REMARK    7  A    between atoms: N_15  and  C_16 
REMARK    8  A    between atoms: C_16  and  C_17 
ROOT
HETATM    1  C   UNL     1      25.786  45.782  52.138  1.00  0.00     0.001 A 
HETATM    2  C   UNL     1      26.939  45.005  52.276  1.00  0.00     0.017 A 
HETATM    3  C   UNL     1      26.941  43.635  51.926  1.00  0.00     0.032 A 
HETATM    4  C   UNL     1      25.760  43.090  51.389  1.00  0.00     0.062 A 
HETATM    5  N   UNL     1      25.747  41.810  51.000  1.00  0.00    -0.189 N 
HETATM    6  H   UNL     1      24.905  41.390  50.631  1.00  0.00     0.184 HD
HETATM    7  C   UNL     1      26.822  41.030  51.113  1.00  0.00     0.702 A 
HETATM    8  N   UNL     1      27.977  41.476  51.637  1.00  0.00    -0.052 NA
HETATM    9  C   UNL     1      28.034  42.757  52.043  1.00  0.00     0.135 A 
HETATM   10  C   UNL     1      24.604  43.875  51.256  1.00  0.00     0.031 A 
HETATM   11  C   UNL     1      24.618  45.215  51.638  1.00  0.00     0.002 A 
ENDROOT
BRANCH   9  12
HETATM   12  N   UNL     1      29.265  43.135  52.581  1.00  0.00    -0.272 NA
HETATM   13  H   UNL     1      29.959  42.864  51.881  1.00  0.00     0.129 HD
BRANCH  12  14
HETATM   14  C   UNL     1      29.599  42.451  53.836  1.00  0.00     0.132 C 
BRANCH  14  15
HETATM   15  C   UNL     1      29.895  43.485  54.897  1.00  0.00    -0.045 A 
HETATM   16  C   UNL     1      30.882  43.248  55.869  1.00  0.00     0.011 A 
HETATM   17  C   UNL     1      31.134  44.197  56.862  1.00  0.00     0.043 A 
HETATM   18  C   UNL     1      30.396  45.373  56.892  1.00  0.00     0.116 A 
HETATM   19  F   UNL     1      30.636  46.281  57.846  1.00  0.00    -0.206 F 
HETATM   20  C   UNL     1      29.406  45.620  55.948  1.00  0.00     0.043 A 
HETATM   21  C   UNL     1      29.151  44.677  54.952  1.00  0.00     0.011 A 
ENDBRANCH  14  15
ENDBRANCH  12  14
ENDBRANCH   9  12
BRANCH   7  22
HETATM   22  N   UNL     1      26.687  39.721  50.713  1.00  0.00    -0.224 N 
HETATM   23  H   UNL     1      25.849  39.207  50.959  1.00  0.00     0.177 HD
BRANCH  22  24
HETATM   24  C   UNL     1      27.343  39.257  49.491  1.00  0.00     0.140 C 
BRANCH  24  25
HETATM   25  C   UNL     1      28.074  37.935  49.705  1.00  0.00     0.046 C 
BRANCH  25  26
HETATM   26  C   UNL     1      29.512  38.106  50.171  1.00  0.00     0.165 C 
BRANCH  26  27
HETATM   27  O   UNL     1      29.533  38.903  51.345  1.00  0.00    -0.401 OA
HETATM   28  H   UNL     1      30.326  38.668  51.860  1.00  0.00     0.209 HD
ENDBRANCH  26  27
ENDBRANCH  25  26
ENDBRANCH  24  25
ENDBRANCH  22  24
ENDBRANCH   7  22
TORSDOF 8
ENDMDL
MODEL 2
REMARK VINA RESULT:      -8.0      2.455      5.073
REMARK  8 active torsions:
REMARK  status: ('A' for Active; 'I' for Inactive)
REMARK    1  A    between atoms: C_7  and  N_8 
REMARK    2  A    between atoms: N_8  and  C_9 
REMARK    3  A    between atoms: C_9  and  C_10 
REMARK    4  A    between atoms: C_10  and  C_11 
REMARK    5  A    between atoms: C_11  and  O_12 
REMARK    6  A    between atoms: C_14  and  N_15 
REMARK    7  A    between atoms: N_15  and  C_16 
REMARK    8  A    between atoms: C_16  and  C_17 
ROOT
HETATM    1  C   UNL     1      28.953  44.918  55.395  1.00  0.00     0.001 A 
HETATM    2  C   UNL     1      27.922  44.395  54.610  1.00  0.00     0.017 A 
HETATM    3  C   UNL     1      28.141  43.280  53.768  1.00  0.00     0.032 A 
HETATM    4  C   UNL     1      29.415  42.683  53.783  1.00  0.00     0.062 A 
HETATM    5  N   UNL     1      29.637  41.595  53.036  1.00  0.00    -0.189 N 
HETATM    6  H   UNL     1      30.550  41.161  53.014  1.00  0.00     0.184 HD
HETATM    7  C   UNL     1      28.686  41.061  52.271  1.00  0.00     0.702 A 
HETATM    8  N   UNL     1      27.452  41.591  52.191  1.00  0.00    -0.052 NA
HETATM    9  C   UNL     1      27.186  42.687  52.922  1.00  0.00     0.135 A 
HETATM   10  C   UNL     1      30.448  43.215  54.571  1.00  0.00     0.031 A 
HETATM   11  C   UNL     1      30.215  44.335  55.368  1.00  0.00     0.002 A 
ENDROOT
BRANCH   9  12
HETATM   12  N   UNL     1      25.887  43.175  52.774  1.00  0.00    -0.272 NA
HETATM   13  H   UNL     1      25.282  42.456  53.175  1.00  0.00     0.129 HD
BRANCH  12  14
HETATM   14  C   UNL     1      25.485  43.376  51.377  1.00  0.00     0.132 C 
BRANCH  14  15
HETATM   15  C   UNL     1      25.789  44.801  50.976  1.00  0.00    -0.045 A 
HETATM   16  C   UNL     1      25.104  45.872  51.575  1.00  0.00     0.011 A 
HETATM   17  C   UNL     1      25.372  47.185  51.183  1.00  0.00     0.043 A 
HETATM   18  C   UNL     1      26.311  47.428  50.189  1.00  0.00     0.116 A 
HETATM   19  F   UNL     1      26.564  48.687  49.812  1.00  0.00    -0.206 F 
HETATM   20  C   UNL     1      26.989  46.382  49.575  1.00  0.00     0.043 A 
HETATM   21  C   UNL     1      26.727  45.068  49.964  1.00  0.00     0.011 A 
ENDBRANCH  14  15
ENDBRANCH  12  14
ENDBRANCH   9  12
BRANCH   7  22
HETATM   22  N   UNL     1      29.033  39.963  51.519  1.00  0.00    -0.224 N 
HETATM   23  H   UNL     1      29.355  39.122  51.983  1.00  0.00     0.177 HD
BRANCH  22  24
HETATM   24  C   UNL     1      28.398  39.733  50.222  1.00  0.00     0.140 C 
BRANCH  24  25
HETATM   25  C   UNL     1      28.669  38.326  49.698  1.00  0.00     0.046 C 
BRANCH  25  26
HETATM   26  C   UNL     1      30.044  38.169  49.067  1.00  0.00     0.165 C 
BRANCH  26  27
HETATM   27  O   UNL     1      31.032  38.185  50.086  1.00  0.00    -0.401 OA
HETATM   28  H   UNL     1      30.935  37.373  50.617  1.00  0.00     0.209 HD
ENDBRANCH  26  27
ENDBRANCH  25  26
ENDBRANCH  24  25
ENDBRANCH  22  24
ENDBRANCH   7  22
TORSDOF 8
ENDMDL
MODEL 3
REMARK VINA RESULT:      -7.9      3.147      6.240
REMARK  8 active torsions:
REMARK  status: ('A' for Active; 'I' for Inactive)
REMARK    1  A    between atoms: C_7  and  N_8 
REMARK    2  A    between atoms: N_8  and  C_9 
REMARK    3  A    between atoms: C_9  and  C_10 
REMARK    4  A    between atoms: C_10  and  C_11 
REMARK    5  A    between atoms: C_11  and  O_12 
REMARK    6  A    between atoms: C_14  and  N_15 
REMARK    7  A    between atoms: N_15  and  C_16 
REMARK    8  A    between atoms: C_16  and  C_17 
ROOT
HETATM    1  C   UNL     1      30.266  45.802  58.049  1.00  0.00     0.001 A 
HETATM    2  C   UNL     1      29.412  45.931  56.951  1.00  0.00     0.017 A 
HETATM    3  C   UNL     1      29.513  45.058  55.843  1.00  0.00     0.032 A 
HETATM    4  C   UNL     1      30.466  44.024  55.903  1.00  0.00     0.062 A 
HETATM    5  N   UNL     1      30.549  43.150  54.893  1.00  0.00    -0.189 N 
HETATM    6  H   UNL     1      31.240  42.413  54.903  1.00  0.00     0.184 HD
HETATM    7  C   UNL     1      29.757  43.234  53.825  1.00  0.00     0.702 A 
HETATM    8  N   UNL     1      28.838  44.207  53.689  1.00  0.00    -0.052 NA
HETATM    9  C   UNL     1      28.723  45.109  54.680  1.00  0.00     0.135 A 
HETATM   10  C   UNL     1      31.323  43.902  57.008  1.00  0.00     0.031 A 
HETATM   11  C   UNL     1      31.225  44.795  58.073  1.00  0.00     0.002 A 
ENDROOT
BRANCH   9  12
HETATM   12  N   UNL     1      27.753  46.087  54.456  1.00  0.00    -0.272 NA
HETATM   13  H   UNL     1      27.806  46.709  55.266  1.00  0.00     0.129 HD
BRANCH  12  14
HETATM   14  C   UNL     1      26.385  45.559  54.382  1.00  0.00     0.132 C 
BRANCH  14  15
HETATM   15  C   UNL     1      25.817  45.855  53.013  1.00  0.00    -0.045 A 
HETATM   16  C   UNL     1      24.962  44.937  52.381  1.00  0.00     0.011 A 
HETATM   17  C   UNL     1      24.459  45.205  51.107  1.00  0.00     0.043 A 
HETATM   18  C   UNL     1      24.818  46.380  50.460  1.00  0.00     0.116 A 
HETATM   19  F   UNL     1      24.338  46.635  49.236  1.00  0.00    -0.206 F 
HETATM   20  C   UNL     1      25.674  47.295  51.062  1.00  0.00     0.043 A 
HETATM   21  C   UNL     1      26.177  47.033  52.336  1.00  0.00     0.011 A 
ENDBRANCH  14  15
ENDBRANCH  12  14
ENDBRANCH   9  12
BRANCH   7  22
HETATM   22  N   UNL     1      29.951  42.303  52.830  1.00  0.00    -0.224 N 
HETATM   23  H   UNL     1      30.881  42.156  52.458  1.00  0.00     0.177 HD
BRANCH  22  24
HETATM   24  C   UNL     1      29.071  41.138  52.736  1.00  0.00     0.140 C 
BRANCH  24  25
HETATM   25  C   UNL     1      28.320  41.099  51.408  1.00  0.00     0.046 C 
BRANCH  25  26
HETATM   26  C   UNL     1      27.031  41.907  51.417  1.00  0.00     0.165 C 
BRANCH  26  27
HETATM   27  O   UNL     1      26.672  42.203  52.758  1.00  0.00    -0.401 OA
HETATM   28  H   UNL     1      26.206  43.059  52.766  1.00  0.00     0.209 HD
ENDBRANCH  26  27
ENDBRANCH  25  26
ENDBRANCH  24  25
ENDBRANCH  22  24
ENDBRANCH   7  22
TORSDOF 8
ENDMDL
MODEL 4
REMARK VINA RESULT:      -7.6      3.236      5.283
REMARK  8 active torsions:
REMARK  status: ('A' for Active; 'I' for Inactive)
REMARK    1  A    between atoms: C_7  and  N_8 
REMARK    2  A    between atoms: N_8  and  C_9 
REMARK    3  A    between atoms: C_9  and  C_10 
REMARK    4  A    between atoms: C_10  and  C_11 
REMARK    5  A    between atoms: C_11  and  O_12 
REMARK    6  A    between atoms: C_14  and  N_15 
REMARK    7  A    between atoms: N_15  and  C_16 
REMARK    8  A    between atoms: C_16  and  C_17 
ROOT
HETATM    1  C   UNL     1      28.292  41.019  52.783  1.00  0.00     0.001 A 
HETATM    2  C   UNL     1      27.825  42.195  53.375  1.00  0.00     0.017 A 
HETATM    3  C   UNL     1      27.288  43.241  52.590  1.00  0.00     0.032 A 
HETATM    4  C   UNL     1      27.193  43.042  51.200  1.00  0.00     0.062 A 
HETATM    5  N   UNL     1      26.642  43.993  50.438  1.00  0.00    -0.189 N 
HETATM    6  H   UNL     1      26.582  43.882  49.435  1.00  0.00     0.184 HD
HETATM    7  C   UNL     1      26.183  45.131  50.956  1.00  0.00     0.702 A 
HETATM    8  N   UNL     1      26.260  45.400  52.272  1.00  0.00    -0.052 NA
HETATM    9  C   UNL     1      26.810  44.472  53.075  1.00  0.00     0.135 A 
HETATM   10  C   UNL     1      27.668  41.859  50.612  1.00  0.00     0.031 A 
HETATM   11  C   UNL     1      28.223  40.855  51.404  1.00  0.00     0.002 A 
ENDROOT
BRANCH   9  12
HETATM   12  N   UNL     1      26.857  44.834  54.423  1.00  0.00    -0.272 NA
HETATM   13  H   UNL     1      25.903  45.112  54.660  1.00  0.00     0.129 HD
BRANCH  12  14
HETATM   14  C   UNL     1      27.742  45.972  54.699  1.00  0.00     0.132 C 
BRANCH  14  15
HETATM   15  C   UNL     1      28.817  45.537  55.668  1.00  0.00    -0.045 A 
HETATM   16  C   UNL     1      28.936  46.150  56.926  1.00  0.00     0.011 A 
HETATM   17  C   UNL     1      29.947  45.760  57.807  1.00  0.00     0.043 A 
HETATM   18  C   UNL     1      30.844  44.770  57.428  1.00  0.00     0.116 A 
HETATM   19  F   UNL     1      31.815  44.399  58.272  1.00  0.00    -0.206 F 
HETATM   20  C   UNL     1      30.752  44.160  56.182  1.00  0.00     0.043 A 
HETATM   21  C   UNL     1      29.742  44.544  55.299  1.00  0.00     0.011 A 
ENDBRANCH  14  15
ENDBRANCH  12  14
ENDBRANCH   9  12
BRANCH   7  22
HETATM   22  N   UNL     1      25.666  46.054  50.076  1.00  0.00    -0.224 N 
HETATM   23  H   UNL     1      24.789  45.862  49.609  1.00  0.00     0.177 HD
BRANCH  22  24
HETATM   24  C   UNL     1      25.959  47.476  50.252  1.00  0.00     0.140 C 
BRANCH  24  25
HETATM   25  C   UNL     1      27.232  47.890  49.519  1.00  0.00     0.046 C 
BRANCH  25  26
HETATM   26  C   UNL     1      27.142  49.267  48.880  1.00  0.00     0.165 C 
BRANCH  26  27
HETATM   27  O   UNL     1      28.411  49.900  48.949  1.00  0.00    -0.401 OA
HETATM   28  H   UNL     1      28.726  50.051  48.039  1.00  0.00     0.209 HD
ENDBRANCH  26  27
ENDBRANCH  25  26
ENDBRANCH  24  25
ENDBRANCH  22  24
ENDBRANCH   7  22
TORSDOF 8
ENDMDL
MODEL 5
REMARK VINA RESULT:      -7.6      1.602      2.097
REMARK  8 active torsions:
REMARK  status: ('A' for Active; 'I' for Inactive)
REMARK    1  A    between atoms: C_7  and  N_8 
REMARK    2  A    between atoms: N_8  and  C_9 
REMARK    3  A    between atoms: C_9  and  C_10 
REMARK    4  A    between atoms: C_10  and  C_11 
REMARK    5  A    between atoms: C_11  and  O_12 
REMARK    6  A    between atoms: C_14  and  N_15 
REMARK    7  A    between atoms: N_15  and  C_16 
REMARK    8  A    between atoms: C_16  and  C_17 
ROOT
HETATM    1  C   UNL     1      25.429  46.988  52.020  1.00  0.00     0.001 A 
HETATM    2  C   UNL     1      26.063  45.795  52.374  1.00  0.00     0.017 A 
HETATM    3  C   UNL     1      26.257  44.764  51.426  1.00  0.00     0.032 A 
HETATM    4  C   UNL     1      25.836  44.996  50.103  1.00  0.00     0.062 A 
HETATM    5  N   UNL     1      26.054  44.060  49.173  1.00  0.00    -0.189 N 
HETATM    6  H   UNL     1      25.742  44.195  48.221  1.00  0.00     0.184 HD
HETATM    7  C   UNL     1      26.654  42.906  49.463  1.00  0.00     0.702 A 
HETATM    8  N   UNL     1      27.063  42.606  50.709  1.00  0.00    -0.052 NA
HETATM    9  C   UNL     1      26.861  43.518  51.677  1.00  0.00     0.135 A 
HETATM   10  C   UNL     1      25.197  46.196  49.755  1.00  0.00     0.031 A 
HETATM   11  C   UNL     1      24.988  47.184  50.715  1.00  0.00     0.002 A 
ENDROOT
BRANCH   9  12
HETATM   12  N   UNL     1      27.307  43.124  52.940  1.00  0.00    -0.272 NA
HETATM   13  H   UNL     1      27.046  43.887  53.567  1.00  0.00     0.129 HD
BRANCH  12  14
HETATM   14  C   UNL     1      28.762  42.947  53.025  1.00  0.00     0.132 C 
BRANCH  14  15
HETATM   15  C   UNL     1      29.281  43.703  54.225  1.00  0.00    -0.045 A 
HETATM   16  C   UNL     1      28.605  44.839  54.702  1.00  0.00     0.011 A 
HETATM   17  C   UNL     1      29.103  45.547  55.797  1.00  0.00     0.043 A 
HETATM   18  C   UNL     1      30.280  45.130  56.407  1.00  0.00     0.116 A 
HETATM   19  F   UNL     1      30.759  45.812  57.455  1.00  0.00    -0.206 F 
HETATM   20  C   UNL     1      30.971  44.018  55.943  1.00  0.00     0.043 A 
HETATM   21  C   UNL     1      30.476  43.305  54.850  1.00  0.00     0.011 A 
ENDBRANCH  14  15
ENDBRANCH  12  14
ENDBRANCH   9  12
BRANCH   7  22
HETATM   22  N   UNL     1      26.796  42.001  48.437  1.00  0.00    -0.224 N 
HETATM   23  H   UNL     1      27.544  42.121  47.765  1.00  0.00     0.177 HD
BRANCH  22  24
HETATM   24  C   UNL     1      26.362  40.616  48.616  1.00  0.00     0.140 C 
BRANCH  24  25
HETATM   25  C   UNL     1      27.428  39.623  48.164  1.00  0.00     0.046 C 
BRANCH  25  26
HETATM   26  C   UNL     1      28.841  40.032  48.550  1.00  0.00     0.165 C 
BRANCH  26  27
HETATM   27  O   UNL     1      28.896  40.267  49.949  1.00  0.00    -0.401 OA
HETATM   28  H   UNL     1      28.007  40.116  50.318  1.00  0.00     0.209 HD
ENDBRANCH  26  27
ENDBRANCH  25  26
ENDBRANCH  24  25
ENDBRANCH  22  24
ENDBRANCH   7  22
TORSDOF 8
ENDMDL
MODEL 6
REMARK VINA RESULT:      -7.6      5.298      7.766
REMARK  8 active torsions:
REMARK  status: ('A' for Active; 'I' for Inactive)
REMARK    1  A    between atoms: C_7  and  N_8 
REMARK    2  A    between atoms: N_8  and  C_9 
REMARK    3  A    between atoms: C_9  and  C_10 
REMARK    4  A    between atoms: C_10  and  C_11 
REMARK    5  A    between atoms: C_11  and  O_12 
REMARK    6  A    between atoms: C_14  and  N_15 
REMARK    7  A    between atoms: N_15  and  C_16 
REMARK    8  A    between atoms: C_16  and  C_17 
ROOT
HETATM    1  C   UNL     1      27.806  49.181  49.026  1.00  0.00     0.001 A 
HETATM    2  C   UNL     1      27.169  48.053  49.551  1.00  0.00     0.017 A 
HETATM    3  C   UNL     1      25.760  47.933  49.523  1.00  0.00     0.032 A 
HETATM    4  C   UNL     1      25.023  48.960  48.906  1.00  0.00     0.062 A 
HETATM    5  N   UNL     1      23.692  48.849  48.817  1.00  0.00    -0.189 N 
HETATM    6  H   UNL     1      23.140  49.584  48.398  1.00  0.00     0.184 HD
HETATM    7  C   UNL     1      23.041  47.793  49.304  1.00  0.00     0.702 A 
HETATM    8  N   UNL     1      23.678  46.785  49.925  1.00  0.00    -0.052 NA
HETATM    9  C   UNL     1      25.015  46.857  50.039  1.00  0.00     0.135 A 
HETATM   10  C   UNL     1      25.668  50.092  48.383  1.00  0.00     0.031 A 
HETATM   11  C   UNL     1      27.056  50.202  48.452  1.00  0.00     0.002 A 
ENDROOT
BRANCH   9  12
HETATM   12  N   UNL     1      25.595  45.774  50.703  1.00  0.00    -0.272 NA
HETATM   13  H   UNL     1      25.378  44.958  50.128  1.00  0.00     0.129 HD
BRANCH  12  14
HETATM   14  C   UNL     1      25.046  45.540  52.044  1.00  0.00     0.132 C 
BRANCH  14  15
HETATM   15  C   UNL     1      26.111  45.844  53.073  1.00  0.00    -0.045 A 
HETATM   16  C   UNL     1      26.243  47.138  53.603  1.00  0.00     0.011 A 
HETATM   17  C   UNL     1      27.244  47.419  54.535  1.00  0.00     0.043 A 
HETATM   18  C   UNL     1      28.119  46.413  54.927  1.00  0.00     0.116 A 
HETATM   19  F   UNL     1      29.081  46.684  55.818  1.00  0.00    -0.206 F 
HETATM   20  C   UNL     1      28.014  45.130  54.404  1.00  0.00     0.043 A 
HETATM   21  C   UNL     1      27.013  44.843  53.474  1.00  0.00     0.011 A 
ENDBRANCH  14  15
ENDBRANCH  12  14
ENDBRANCH   9  12
BRANCH   7  22
HETATM   22  N   UNL     1      21.670  47.799  49.188  1.00  0.00    -0.224 N 
HETATM   23  H   UNL     1      21.113  47.246  49.828  1.00  0.00     0.177 HD
BRANCH  22  24
HETATM   24  C   UNL     1      20.986  48.974  48.650  1.00  0.00     0.140 C 
BRANCH  24  25
HETATM   25  C   UNL     1      20.094  49.641  49.694  1.00  0.00     0.046 C 
BRANCH  25  26
HETATM   26  C   UNL     1      20.686  50.919  50.268  1.00  0.00     0.165 C 
BRANCH  26  27
HETATM   27  O   UNL     1      22.036  50.687  50.639  1.00  0.00    -0.401 OA
HETATM   28  H   UNL     1      22.568  50.619  49.825  1.00  0.00     0.209 HD
ENDBRANCH  26  27
ENDBRANCH  25  26
ENDBRANCH  24  25
ENDBRANCH  22  24
ENDBRANCH   7  22
TORSDOF 8
ENDMDL
MODEL 7
REMARK VINA RESULT:      -7.4      2.985      5.114
REMARK  8 active torsions:
REMARK  status: ('A' for Active; 'I' for Inactive)
REMARK    1  A    between atoms: C_7  and  N_8 
REMARK    2  A    between atoms: N_8  and  C_9 
REMARK    3  A    between atoms: C_9  and  C_10 
REMARK    4  A    between atoms: C_10  and  C_11 
REMARK    5  A    between atoms: C_11  and  O_12 
REMARK    6  A    between atoms: C_14  and  N_15 
REMARK    7  A    between atoms: N_15  and  C_16 
REMARK    8  A    between atoms: C_16  and  C_17 
ROOT
HETATM    1  C   UNL     1      28.493  41.266  52.777  1.00  0.00     0.001 A 
HETATM    2  C   UNL     1      27.991  42.346  53.508  1.00  0.00     0.017 A 
HETATM    3  C   UNL     1      27.075  43.254  52.930  1.00  0.00     0.032 A 
HETATM    4  C   UNL     1      26.645  43.010  51.613  1.00  0.00     0.062 A 
HETATM    5  N   UNL     1      25.739  43.822  51.058  1.00  0.00    -0.189 N 
HETATM    6  H   UNL     1      25.431  43.679  50.106  1.00  0.00     0.184 HD
HETATM    7  C   UNL     1      25.233  44.865  51.716  1.00  0.00     0.702 A 
HETATM    8  N   UNL     1      25.613  45.172  52.969  1.00  0.00    -0.052 NA
HETATM    9  C   UNL     1      26.524  44.383  53.564  1.00  0.00     0.135 A 
HETATM   10  C   UNL     1      27.155  41.925  50.882  1.00  0.00     0.031 A 
HETATM   11  C   UNL     1      28.083  41.062  51.463  1.00  0.00     0.002 A 
ENDROOT
BRANCH   9  12
HETATM   12  N   UNL     1      26.867  44.777  54.859  1.00  0.00    -0.272 NA
HETATM   13  H   UNL     1      26.000  45.124  55.273  1.00  0.00     0.129 HD
BRANCH  12  14
HETATM   14  C   UNL     1      27.856  45.862  54.905  1.00  0.00     0.132 C 
BRANCH  14  15
HETATM   15  C   UNL     1      28.924  45.512  55.915  1.00  0.00    -0.045 A 
HETATM   16  C   UNL     1      28.933  46.116  57.183  1.00  0.00     0.011 A 
HETATM   17  C   UNL     1      29.937  45.807  58.103  1.00  0.00     0.043 A 
HETATM   18  C   UNL     1      30.936  44.907  57.753  1.00  0.00     0.116 A 
HETATM   19  F   UNL     1      31.900  44.614  58.635  1.00  0.00    -0.206 F 
HETATM   20  C   UNL     1      30.953  44.309  56.499  1.00  0.00     0.043 A 
HETATM   21  C   UNL     1      29.951  44.613  55.577  1.00  0.00     0.011 A 
ENDBRANCH  14  15
ENDBRANCH  12  14
ENDBRANCH   9  12
BRANCH   7  22
HETATM   22  N   UNL     1      24.333  45.653  51.037  1.00  0.00    -0.224 N 
HETATM   23  H   UNL     1      24.085  46.562  51.409  1.00  0.00     0.177 HD
BRANCH  22  24
HETATM   24  C   UNL     1      24.212  45.541  49.584  1.00  0.00     0.140 C 
BRANCH  24  25
HETATM   25  C   UNL     1      23.371  46.670  48.994  1.00  0.00     0.046 C 
BRANCH  25  26
HETATM   26  C   UNL     1      23.614  48.017  49.658  1.00  0.00     0.165 C 
BRANCH  26  27
HETATM   27  O   UNL     1      25.009  48.203  49.844  1.00  0.00    -0.401 OA
HETATM   28  H   UNL     1      25.398  47.350  50.108  1.00  0.00     0.209 HD
ENDBRANCH  26  27
ENDBRANCH  25  26
ENDBRANCH  24  25
ENDBRANCH  22  24
ENDBRANCH   7  22
TORSDOF 8
ENDMDL
MODEL 8
REMARK VINA RESULT:      -7.4      3.658      6.225
REMARK  8 active torsions:
REMARK  status: ('A' for Active; 'I' for Inactive)
REMARK    1  A    between atoms: C_7  and  N_8 
REMARK    2  A    between atoms: N_8  and  C_9 
REMARK    3  A    between atoms: C_9  and  C_10 
REMARK    4  A    between atoms: C_10  and  C_11 
REMARK    5  A    between atoms: C_11  and  O_12 
REMARK    6  A    between atoms: C_14  and  N_15 
REMARK    7  A    between atoms: N_15  and  C_16 
REMARK    8  A    between atoms: C_16  and  C_17 
ROOT
HETATM    1  C   UNL     1      27.761  47.375  54.853  1.00  0.00     0.001 A 
HETATM    2  C   UNL     1      26.762  47.125  53.909  1.00  0.00     0.017 A 
HETATM    3  C   UNL     1      26.624  45.849  53.315  1.00  0.00     0.032 A 
HETATM    4  C   UNL     1      27.491  44.826  53.740  1.00  0.00     0.062 A 
HETATM    5  N   UNL     1      27.350  43.596  53.235  1.00  0.00    -0.189 N 
HETATM    6  H   UNL     1      27.975  42.850  53.508  1.00  0.00     0.184 HD
HETATM    7  C   UNL     1      26.413  43.310  52.332  1.00  0.00     0.702 A 
HETATM    8  N   UNL     1      25.563  44.241  51.864  1.00  0.00    -0.052 NA
HETATM    9  C   UNL     1      25.671  45.493  52.343  1.00  0.00     0.135 A 
HETATM   10  C   UNL     1      28.495  45.085  54.687  1.00  0.00     0.031 A 
HETATM   11  C   UNL     1      28.632  46.359  55.234  1.00  0.00     0.002 A 
ENDROOT
BRANCH   9  12
HETATM   12  N   UNL     1      24.757  46.398  51.799  1.00  0.00    -0.272 NA
HETATM   13  H   UNL     1      23.855  46.144  52.205  1.00  0.00     0.129 HD
BRANCH  12  14
HETATM   14  C   UNL     1      24.637  46.311  50.339  1.00  0.00     0.132 C 
BRANCH  14  15
HETATM   15  C   UNL     1      25.266  47.537  49.719  1.00  0.00    -0.045 A 
HETATM   16  C   UNL     1      24.466  48.538  49.144  1.00  0.00     0.011 A 
HETATM   17  C   UNL     1      25.055  49.657  48.551  1.00  0.00     0.043 A 
HETATM   18  C   UNL     1      26.439  49.769  48.521  1.00  0.00     0.116 A 
HETATM   19  F   UNL     1      27.003  50.841  47.949  1.00  0.00    -0.206 F 
HETATM   20  C   UNL     1      27.249  48.784  49.071  1.00  0.00     0.043 A 
HETATM   21  C   UNL     1      26.666  47.665  49.667  1.00  0.00     0.011 A 
ENDBRANCH  14  15
ENDBRANCH  12  14
ENDBRANCH   9  12
BRANCH   7  22
HETATM   22  N   UNL     1      26.379  42.020  51.854  1.00  0.00    -0.224 N 
HETATM   23  H   UNL     1      25.641  41.741  51.220  1.00  0.00     0.177 HD
BRANCH  22  24
HETATM   24  C   UNL     1      27.621  41.262  51.708  1.00  0.00     0.140 C 
BRANCH  24  25
HETATM   25  C   UNL     1      27.883  40.874  50.255  1.00  0.00     0.046 C 
BRANCH  25  26
HETATM   26  C   UNL     1      26.863  39.892  49.697  1.00  0.00     0.165 C 
BRANCH  26  27
HETATM   27  O   UNL     1      26.112  39.337  50.766  1.00  0.00    -0.401 OA
HETATM   28  H   UNL     1      26.734  38.925  51.394  1.00  0.00     0.209 HD
ENDBRANCH  26  27
ENDBRANCH  25  26
ENDBRANCH  24  25
ENDBRANCH  22  24
ENDBRANCH   7  22
TORSDOF 8
ENDMDL
MODEL 9
REMARK VINA RESULT:      -7.4      6.529      9.689
REMARK  8 active torsions:
REMARK  status: ('A' for Active; 'I' for Inactive)
REMARK    1  A    between atoms: C_7  and  N_8 
REMARK    2  A    between atoms: N_8  and  C_9 
REMARK    3  A    between atoms: C_9  and  C_10 
REMARK    4  A    between atoms: C_10  and  C_11 
REMARK    5  A    between atoms: C_11  and  O_12 
REMARK    6  A    between atoms: C_14  and  N_15 
REMARK    7  A    between atoms: N_15  and  C_16 
REMARK    8  A    between atoms: C_16  and  C_17 
ROOT
HETATM    1  C   UNL     1      26.787  50.312  48.304  1.00  0.00     0.001 A 
HETATM    2  C   UNL     1      25.446  49.944  48.168  1.00  0.00     0.017 A 
HETATM    3  C   UNL     1      24.959  48.744  48.736  1.00  0.00     0.032 A 
HETATM    4  C   UNL     1      25.855  47.958  49.486  1.00  0.00     0.062 A 
HETATM    5  N   UNL     1      25.410  46.845  50.079  1.00  0.00    -0.189 N 
HETATM    6  H   UNL     1      26.038  46.253  50.604  1.00  0.00     0.184 HD
HETATM    7  C   UNL     1      24.140  46.452  49.977  1.00  0.00     0.702 A 
HETATM    8  N   UNL     1      23.235  47.141  49.260  1.00  0.00    -0.052 NA
HETATM    9  C   UNL     1      23.639  48.266  48.644  1.00  0.00     0.135 A 
HETATM   10  C   UNL     1      27.201  48.333  49.616  1.00  0.00     0.031 A 
HETATM   11  C   UNL     1      27.665  49.504  49.019  1.00  0.00     0.002 A 
ENDROOT
BRANCH   9  12
HETATM   12  N   UNL     1      22.640  48.915  47.916  1.00  0.00    -0.272 NA
HETATM   13  H   UNL     1      22.693  49.894  48.201  1.00  0.00     0.129 HD
BRANCH  12  14
HETATM   14  C   UNL     1      21.285  48.432  48.212  1.00  0.00     0.132 C 
BRANCH  14  15
HETATM   15  C   UNL     1      20.458  49.579  48.743  1.00  0.00    -0.045 A 
HETATM   16  C   UNL     1      19.509  49.366  49.756  1.00  0.00     0.011 A 
HETATM   17  C   UNL     1      18.730  50.425  50.226  1.00  0.00     0.043 A 
HETATM   18  C   UNL     1      18.890  51.692  49.678  1.00  0.00     0.116 A 
HETATM   19  F   UNL     1      18.141  52.706  50.127  1.00  0.00    -0.206 F 
HETATM   20  C   UNL     1      19.814  51.921  48.666  1.00  0.00     0.043 A 
HETATM   21  C   UNL     1      20.597  50.866  48.194  1.00  0.00     0.011 A 
ENDBRANCH  14  15
ENDBRANCH  12  14
ENDBRANCH   9  12
BRANCH   7  22
HETATM   22  N   UNL     1      23.800  45.274  50.600  1.00  0.00    -0.224 N 
HETATM   23  H   UNL     1      23.121  44.659  50.168  1.00  0.00     0.177 HD
BRANCH  22  24
HETATM   24  C   UNL     1      24.767  44.596  51.462  1.00  0.00     0.140 C 
BRANCH  24  25
HETATM   25  C   UNL     1      25.213  43.260  50.877  1.00  0.00     0.046 C 
BRANCH  25  26
HETATM   26  C   UNL     1      26.607  43.300  50.268  1.00  0.00     0.165 C 
BRANCH  26  27
HETATM   27  O   UNL     1      26.611  44.188  49.162  1.00  0.00    -0.401 OA
HETATM   28  H   UNL     1      25.874  44.817  49.273  1.00  0.00     0.209 HD
ENDBRANCH  26  27
ENDBRANCH  25  26
ENDBRANCH  24  25
ENDBRANCH  22  24
ENDBRANCH   7  22
TORSDOF 8
ENDMDL
MODEL 10
REMARK VINA RESULT:      -7.3      3.903      7.366
REMARK  8 active torsions:
REMARK  status: ('A' for Active; 'I' for Inactive)
REMARK    1  A    between atoms: C_7  and  N_8 
REMARK    2  A    between atoms: N_8  and  C_9 
REMARK    3  A    between atoms: C_9  and  C_10 
REMARK    4  A    between atoms: C_10  and  C_11 
REMARK    5  A    between atoms: C_11  and  O_12 
REMARK    6  A    between atoms: C_14  and  N_15 
REMARK    7  A    between atoms: N_15  and  C_16 
REMARK    8  A    between atoms: C_16  and  C_17 
ROOT
HETATM    1  C   UNL     1      31.048  43.751  55.782  1.00  0.00     0.001 A 
HETATM    2  C   UNL     1      30.511  43.179  54.626  1.00  0.00     0.017 A 
HETATM    3  C   UNL     1      29.335  43.697  54.036  1.00  0.00     0.032 A 
HETATM    4  C   UNL     1      28.750  44.837  54.620  1.00  0.00     0.062 A 
HETATM    5  N   UNL     1      27.667  45.381  54.053  1.00  0.00    -0.189 N 
HETATM    6  H   UNL     1      27.218  46.186  54.466  1.00  0.00     0.184 HD
HETATM    7  C   UNL     1      27.119  44.870  52.951  1.00  0.00     0.702 A 
HETATM    8  N   UNL     1      27.610  43.771  52.352  1.00  0.00    -0.052 NA
HETATM    9  C   UNL     1      28.696  43.189  52.889  1.00  0.00     0.135 A 
HETATM   10  C   UNL     1      29.294  45.405  55.783  1.00  0.00     0.031 A 
HETATM   11  C   UNL     1      30.436  44.856  56.364  1.00  0.00     0.002 A 
ENDROOT
BRANCH   9  12
HETATM   12  N   UNL     1      29.135  42.051  52.210  1.00  0.00    -0.272 NA
HETATM   13  H   UNL     1      29.474  42.391  51.308  1.00  0.00     0.129 HD
BRANCH  12  14
HETATM   14  C   UNL     1      28.075  41.069  51.954  1.00  0.00     0.132 C 
BRANCH  14  15
HETATM   15  C   UNL     1      28.503  40.165  50.823  1.00  0.00    -0.045 A 
HETATM   16  C   UNL     1      28.125  40.448  49.500  1.00  0.00     0.011 A 
HETATM   17  C   UNL     1      28.504  39.595  48.461  1.00  0.00     0.043 A 
HETATM   18  C   UNL     1      29.247  38.456  48.744  1.00  0.00     0.116 A 
HETATM   19  F   UNL     1      29.607  37.637  47.748  1.00  0.00    -0.206 F 
HETATM   20  C   UNL     1      29.619  38.150  50.047  1.00  0.00     0.043 A 
HETATM   21  C   UNL     1      29.245  39.001  51.089  1.00  0.00     0.011 A 
ENDBRANCH  14  15
ENDBRANCH  12  14
ENDBRANCH   9  12
BRANCH   7  22
HETATM   22  N   UNL     1      25.987  45.489  52.473  1.00  0.00    -0.224 N 
HETATM   23  H   UNL     1      25.078  45.089  52.669  1.00  0.00     0.177 HD
BRANCH  22  24
HETATM   24  C   UNL     1      25.978  46.937  52.266  1.00  0.00     0.140 C 
BRANCH  24  25
HETATM   25  C   UNL     1      26.081  47.300  50.787  1.00  0.00     0.046 C 
BRANCH  25  26
HETATM   26  C   UNL     1      24.749  47.245  50.055  1.00  0.00     0.165 C 
BRANCH  26  27
HETATM   27  O   UNL     1      23.970  48.376  50.412  1.00  0.00    -0.401 OA
HETATM   28  H   UNL     1      23.261  48.081  51.012  1.00  0.00     0.209 HD
ENDBRANCH  26  27
ENDBRANCH  25  26
ENDBRANCH  24  25
ENDBRANCH  22  24
ENDBRANCH   7  22
TORSDOF 8
ENDMDL
