MODEL 1
REMARK VINA RESULT:      -7.7      0.000      0.000
REMARK  4 active torsions:
REMARK  status: ('A' for Active; 'I' for Inactive)
REMARK    1  A    between atoms: C_2  and  C_3 
REMARK    2  A    between atoms: C_5  and  N_6 
REMARK       I    between atoms: N_6  and  C_7 
REMARK    3  A    between atoms: C_7  and  C_8 
REMARK    4  A    between atoms: C_16  and  O_17 
ROOT
HETATM    1  C   UNL     1      22.773  49.567  48.915  1.00  0.00    -0.048 A 
HETATM    2  C   UNL     1      23.258  48.411  49.556  1.00  0.00     0.040 A 
HETATM    3  C   UNL     1      24.609  48.050  49.494  1.00  0.00     0.069 A 
HETATM    4  C   UNL     1      25.519  48.855  48.782  1.00  0.00     0.095 A 
HETATM    5  C   UNL     1      25.054  49.989  48.122  1.00  0.00     0.039 A 
HETATM    6  C   UNL     1      23.698  50.332  48.183  1.00  0.00     0.011 A 
ENDROOT
BRANCH   3   7
HETATM    7  N   UNL     1      25.142  46.902  50.128  1.00  0.00    -0.320 N 
HETATM    8  C   UNL     1      25.429  46.725  51.463  1.00  0.00     0.257 C 
HETATM    9  O   UNL     1      25.214  47.505  52.381  1.00  0.00    -0.267 OA
HETATM   10  H   UNL     1      25.210  46.105  49.500  1.00  0.00     0.169 HD
BRANCH   8  11
HETATM   11  C   UNL     1      26.015  45.410  51.798  1.00  0.00     0.051 A 
HETATM   12  C   UNL     1      25.655  44.258  51.108  1.00  0.00     0.133 A 
HETATM   13  N   UNL     1      26.161  43.031  51.381  1.00  0.00    -0.271 NA
HETATM   14  C   UNL     1      27.081  42.963  52.374  1.00  0.00     0.135 A 
HETATM   15  C   UNL     1      27.513  44.064  53.102  1.00  0.00     0.029 A 
HETATM   16 BR   UNL     1      28.796  43.872  54.469  1.00  0.00    -0.050 Br
HETATM   17  C   UNL     1      26.977  45.313  52.805  1.00  0.00     0.039 A 
ENDBRANCH   8  11
ENDBRANCH   3   7
BRANCH   4  18
HETATM   18  O   UNL     1      26.826  48.426  48.796  1.00  0.00    -0.354 OA
HETATM   19  C   UNL     1      27.819  49.398  49.101  1.00  0.00     0.210 C 
ENDBRANCH   4  18
BRANCH   1  20
HETATM   20  C   UNL     1      21.290  49.979  48.970  1.00  0.00    -0.024 C 
HETATM   21  C   UNL     1      20.775  50.627  47.664  1.00  0.00     0.019 C 
HETATM   22  C   UNL     1      21.103  50.999  50.110  1.00  0.00     0.019 C 
HETATM   23  C   UNL     1      20.389  48.751  49.237  1.00  0.00     0.019 C 
ENDBRANCH   1  20
TORSDOF 4
ENDMDL
MODEL 2
REMARK VINA RESULT:      -7.6      3.239      7.906
REMARK  4 active torsions:
REMARK  status: ('A' for Active; 'I' for Inactive)
REMARK    1  A    between atoms: C_2  and  C_3 
REMARK    2  A    between atoms: C_5  and  N_6 
REMARK       I    between atoms: N_6  and  C_7 
REMARK    3  A    between atoms: C_7  and  C_8 
REMARK    4  A    between atoms: C_16  and  O_17 
ROOT
HETATM    1  C   UNL     1      27.727  42.890  52.082  1.00  0.00    -0.048 A 
HETATM    2  C   UNL     1      27.575  44.191  51.565  1.00  0.00     0.040 A 
HETATM    3  C   UNL     1      26.735  44.454  50.476  1.00  0.00     0.069 A 
HETATM    4  C   UNL     1      26.015  43.403  49.875  1.00  0.00     0.095 A 
HETATM    5  C   UNL     1      26.172  42.106  50.357  1.00  0.00     0.039 A 
HETATM    6  C   UNL     1      27.023  41.856  51.439  1.00  0.00     0.011 A 
ENDROOT
BRANCH   3   7
HETATM    7  N   UNL     1      26.546  45.745  49.928  1.00  0.00    -0.320 N 
HETATM    8  C   UNL     1      25.886  46.817  50.487  1.00  0.00     0.257 C 
HETATM    9  O   UNL     1      25.390  46.886  51.604  1.00  0.00    -0.267 OA
HETATM   10  H   UNL     1      27.062  45.882  49.063  1.00  0.00     0.169 HD
BRANCH   8  11
HETATM   11  C   UNL     1      25.835  48.023  49.634  1.00  0.00     0.051 A 
HETATM   12  C   UNL     1      26.995  48.661  49.210  1.00  0.00     0.133 A 
HETATM   13  N   UNL     1      26.999  49.770  48.431  1.00  0.00    -0.271 NA
HETATM   14  C   UNL     1      25.789  50.244  48.047  1.00  0.00     0.135 A 
HETATM   15  C   UNL     1      24.581  49.659  48.407  1.00  0.00     0.029 A 
HETATM   16 BR   UNL     1      22.945  50.392  47.826  1.00  0.00    -0.050 Br
HETATM   17  C   UNL     1      24.603  48.523  49.209  1.00  0.00     0.039 A 
ENDBRANCH   8  11
ENDBRANCH   3   7
BRANCH   4  18
HETATM   18  O   UNL     1      25.204  43.767  48.825  1.00  0.00    -0.354 OA
HETATM   19  C   UNL     1      23.808  43.539  48.981  1.00  0.00     0.210 C 
ENDBRANCH   4  18
BRANCH   1  20
HETATM   20  C   UNL     1      28.648  42.581  53.277  1.00  0.00    -0.024 C 
HETATM   21  C   UNL     1      30.146  42.838  52.992  1.00  0.00     0.019 C 
HETATM   22  C   UNL     1      28.487  41.095  53.654  1.00  0.00     0.019 C 
HETATM   23  C   UNL     1      28.276  43.455  54.497  1.00  0.00     0.019 C 
ENDBRANCH   1  20
TORSDOF 4
ENDMDL
MODEL 3
REMARK VINA RESULT:      -7.4      3.119      7.806
REMARK  4 active torsions:
REMARK  status: ('A' for Active; 'I' for Inactive)
REMARK    1  A    between atoms: C_2  and  C_3 
REMARK    2  A    between atoms: C_5  and  N_6 
REMARK       I    between atoms: N_6  and  C_7 
REMARK    3  A    between atoms: C_7  and  C_8 
REMARK    4  A    between atoms: C_16  and  O_17 
ROOT
HETATM    1  C   UNL     1      28.271  44.327  53.940  1.00  0.00    -0.048 A 
HETATM    2  C   UNL     1      27.363  44.646  52.911  1.00  0.00     0.040 A 
HETATM    3  C   UNL     1      26.587  45.810  52.953  1.00  0.00     0.069 A 
HETATM    4  C   UNL     1      26.709  46.697  54.040  1.00  0.00     0.095 A 
HETATM    5  C   UNL     1      27.584  46.386  55.078  1.00  0.00     0.039 A 
HETATM    6  C   UNL     1      28.346  45.213  55.029  1.00  0.00     0.011 A 
ENDROOT
BRANCH   3   7
HETATM    7  N   UNL     1      25.668  46.174  51.940  1.00  0.00    -0.320 N 
HETATM    8  C   UNL     1      25.937  46.542  50.640  1.00  0.00     0.257 C 
HETATM    9  O   UNL     1      27.026  46.561  50.082  1.00  0.00    -0.267 OA
HETATM   10  H   UNL     1      24.701  46.035  52.221  1.00  0.00     0.169 HD
BRANCH   8  11
HETATM   11  C   UNL     1      24.746  46.900  49.842  1.00  0.00     0.051 A 
HETATM   12  C   UNL     1      23.773  45.959  49.528  1.00  0.00     0.133 A 
HETATM   13  N   UNL     1      22.668  46.237  48.796  1.00  0.00    -0.271 NA
HETATM   14  C   UNL     1      22.525  47.520  48.380  1.00  0.00     0.135 A 
HETATM   15  C   UNL     1      23.436  48.528  48.664  1.00  0.00     0.029 A 
HETATM   16 BR   UNL     1      23.155  50.284  48.040  1.00  0.00    -0.050 Br
HETATM   17  C   UNL     1      24.565  48.217  49.415  1.00  0.00     0.039 A 
ENDBRANCH   8  11
ENDBRANCH   3   7
BRANCH   4  18
HETATM   18  O   UNL     1      25.918  47.821  53.980  1.00  0.00    -0.354 OA
HETATM   19  C   UNL     1      25.940  48.685  55.109  1.00  0.00     0.210 C 
ENDBRANCH   4  18
BRANCH   1  20
HETATM   20  C   UNL     1      29.131  43.050  53.912  1.00  0.00    -0.024 C 
HETATM   21  C   UNL     1      30.087  42.917  55.120  1.00  0.00     0.019 C 
HETATM   22  C   UNL     1      29.988  43.059  52.631  1.00  0.00     0.019 C 
HETATM   23  C   UNL     1      28.239  41.786  53.915  1.00  0.00     0.019 C 
ENDBRANCH   1  20
TORSDOF 4
ENDMDL
MODEL 4
REMARK VINA RESULT:      -7.4      2.298      2.959
REMARK  4 active torsions:
REMARK  status: ('A' for Active; 'I' for Inactive)
REMARK    1  A    between atoms: C_2  and  C_3 
REMARK    2  A    between atoms: C_5  and  N_6 
REMARK       I    between atoms: N_6  and  C_7 
REMARK    3  A    between atoms: C_7  and  C_8 
REMARK    4  A    between atoms: C_16  and  O_17 
ROOT
HETATM    1  C   UNL     1      20.769  50.363  48.581  1.00  0.00    -0.048 A 
HETATM    2  C   UNL     1      21.184  49.072  48.961  1.00  0.00     0.040 A 
HETATM    3  C   UNL     1      22.537  48.759  49.138  1.00  0.00     0.069 A 
HETATM    4  C   UNL     1      23.518  49.750  48.942  1.00  0.00     0.095 A 
HETATM    5  C   UNL     1      23.129  51.026  48.544  1.00  0.00     0.039 A 
HETATM    6  C   UNL     1      21.773  51.322  48.359  1.00  0.00     0.011 A 
ENDROOT
BRANCH   3   7
HETATM    7  N   UNL     1      23.000  47.479  49.525  1.00  0.00    -0.320 N 
HETATM    8  C   UNL     1      22.948  46.304  48.806  1.00  0.00     0.257 C 
HETATM    9  O   UNL     1      22.553  46.150  47.658  1.00  0.00    -0.267 OA
HETATM   10  H   UNL     1      23.514  47.497  50.401  1.00  0.00     0.169 HD
BRANCH   8  11
HETATM   11  C   UNL     1      23.488  45.125  49.514  1.00  0.00     0.051 A 
HETATM   12  C   UNL     1      22.671  44.063  49.883  1.00  0.00     0.133 A 
HETATM   13  N   UNL     1      23.118  42.963  50.536  1.00  0.00    -0.271 NA
HETATM   14  C   UNL     1      24.444  42.921  50.812  1.00  0.00     0.135 A 
HETATM   15  C   UNL     1      25.337  43.926  50.463  1.00  0.00     0.029 A 
HETATM   16 BR   UNL     1      27.166  43.780  50.891  1.00  0.00    -0.050 Br
HETATM   17  C   UNL     1      24.853  45.046  49.795  1.00  0.00     0.039 A 
ENDBRANCH   8  11
ENDBRANCH   3   7
BRANCH   4  18
HETATM   18  O   UNL     1      24.817  49.349  49.159  1.00  0.00    -0.354 OA
HETATM   19  C   UNL     1      25.807  49.874  48.283  1.00  0.00     0.210 C 
ENDBRANCH   4  18
BRANCH   1  20
HETATM   20  C   UNL     1      19.286  50.725  48.379  1.00  0.00    -0.024 C 
HETATM   21  C   UNL     1      18.847  50.746  46.896  1.00  0.00     0.019 C 
HETATM   22  C   UNL     1      19.036  52.129  48.965  1.00  0.00     0.019 C 
HETATM   23  C   UNL     1      18.369  49.707  49.096  1.00  0.00     0.019 C 
ENDBRANCH   1  20
TORSDOF 4
ENDMDL
MODEL 5
REMARK VINA RESULT:      -7.3      3.831      7.329
REMARK  4 active torsions:
REMARK  status: ('A' for Active; 'I' for Inactive)
REMARK    1  A    between atoms: C_2  and  C_3 
REMARK    2  A    between atoms: C_5  and  N_6 
REMARK       I    between atoms: N_6  and  C_7 
REMARK    3  A    between atoms: C_7  and  C_8 
REMARK    4  A    between atoms: C_16  and  O_17 
ROOT
HETATM    1  C   UNL     1      25.776  45.619  50.262  1.00  0.00    -0.048 A 
HETATM    2  C   UNL     1      24.449  46.080  50.168  1.00  0.00     0.040 A 
HETATM    3  C   UNL     1      24.154  47.391  49.776  1.00  0.00     0.069 A 
HETATM    4  C   UNL     1      25.199  48.280  49.458  1.00  0.00     0.095 A 
HETATM    5  C   UNL     1      26.518  47.849  49.568  1.00  0.00     0.039 A 
HETATM    6  C   UNL     1      26.799  46.539  49.972  1.00  0.00     0.011 A 
ENDROOT
BRANCH   3   7
HETATM    7  N   UNL     1      22.837  47.896  49.662  1.00  0.00    -0.320 N 
HETATM    8  C   UNL     1      22.054  47.982  48.532  1.00  0.00     0.257 C 
HETATM    9  O   UNL     1      22.320  47.572  47.409  1.00  0.00    -0.267 OA
HETATM   10  H   UNL     1      22.423  48.117  50.564  1.00  0.00     0.169 HD
BRANCH   8  11
HETATM   11  C   UNL     1      20.728  48.598  48.745  1.00  0.00     0.051 A 
HETATM   12  C   UNL     1      19.645  47.851  49.196  1.00  0.00     0.133 A 
HETATM   13  N   UNL     1      18.410  48.369  49.403  1.00  0.00    -0.271 NA
HETATM   14  C   UNL     1      18.264  49.696  49.166  1.00  0.00     0.135 A 
HETATM   15  C   UNL     1      19.294  50.521  48.734  1.00  0.00     0.029 A 
HETATM   16 BR   UNL     1      18.994  52.356  48.427  1.00  0.00    -0.050 Br
HETATM   17  C   UNL     1      20.552  49.965  48.526  1.00  0.00     0.039 A 
ENDBRANCH   8  11
ENDBRANCH   3   7
BRANCH   4  18
HETATM   18  O   UNL     1      24.806  49.540  49.066  1.00  0.00    -0.354 OA
HETATM   19  C   UNL     1      25.467  50.098  47.937  1.00  0.00     0.210 C 
ENDBRANCH   4  18
BRANCH   1  20
HETATM   20  C   UNL     1      26.119  44.181  50.694  1.00  0.00    -0.024 C 
HETATM   21  C   UNL     1      24.936  43.426  51.342  1.00  0.00     0.019 C 
HETATM   22  C   UNL     1      27.265  44.236  51.724  1.00  0.00     0.019 C 
HETATM   23  C   UNL     1      26.570  43.335  49.481  1.00  0.00     0.019 C 
ENDBRANCH   1  20
TORSDOF 4
ENDMDL
MODEL 6
REMARK VINA RESULT:      -7.2      5.726      8.823
REMARK  4 active torsions:
REMARK  status: ('A' for Active; 'I' for Inactive)
REMARK    1  A    between atoms: C_2  and  C_3 
REMARK    2  A    between atoms: C_5  and  N_6 
REMARK       I    between atoms: N_6  and  C_7 
REMARK    3  A    between atoms: C_7  and  C_8 
REMARK    4  A    between atoms: C_16  and  O_17 
ROOT
HETATM    1  C   UNL     1      27.513  39.462  49.517  1.00  0.00    -0.048 A 
HETATM    2  C   UNL     1      28.104  40.256  50.518  1.00  0.00     0.040 A 
HETATM    3  C   UNL     1      27.474  41.407  51.008  1.00  0.00     0.069 A 
HETATM    4  C   UNL     1      26.216  41.788  50.502  1.00  0.00     0.095 A 
HETATM    5  C   UNL     1      25.627  41.028  49.495  1.00  0.00     0.039 A 
HETATM    6  C   UNL     1      26.273  39.886  49.007  1.00  0.00     0.011 A 
ENDROOT
BRANCH   3   7
HETATM    7  N   UNL     1      28.026  42.232  52.016  1.00  0.00    -0.320 N 
HETATM    8  C   UNL     1      28.471  41.863  53.267  1.00  0.00     0.257 C 
HETATM    9  O   UNL     1      28.539  40.732  53.729  1.00  0.00    -0.267 OA
HETATM   10  H   UNL     1      28.188  43.183  51.698  1.00  0.00     0.169 HD
BRANCH   8  11
HETATM   11  C   UNL     1      28.962  42.980  54.101  1.00  0.00     0.051 A 
HETATM   12  C   UNL     1      28.411  44.253  54.006  1.00  0.00     0.133 A 
HETATM   13  N   UNL     1      28.829  45.309  54.745  1.00  0.00    -0.271 NA
HETATM   14  C   UNL     1      29.828  45.070  55.630  1.00  0.00     0.135 A 
HETATM   15  C   UNL     1      30.422  43.827  55.805  1.00  0.00     0.029 A 
HETATM   16 BR   UNL     1      31.809  43.591  57.059  1.00  0.00    -0.050 Br
HETATM   17  C   UNL     1      29.978  42.760  55.033  1.00  0.00     0.039 A 
ENDBRANCH   8  11
ENDBRANCH   3   7
BRANCH   4  18
HETATM   18  O   UNL     1      25.672  42.922  51.060  1.00  0.00    -0.354 OA
HETATM   19  C   UNL     1      24.275  43.121  50.881  1.00  0.00     0.210 C 
ENDBRANCH   4  18
BRANCH   1  20
HETATM   20  C   UNL     1      28.192  38.195  48.965  1.00  0.00    -0.024 C 
HETATM   21  C   UNL     1      28.377  38.207  47.430  1.00  0.00     0.019 C 
HETATM   22  C   UNL     1      27.324  36.972  49.326  1.00  0.00     0.019 C 
HETATM   23  C   UNL     1      29.600  38.014  49.577  1.00  0.00     0.019 C 
ENDBRANCH   1  20
TORSDOF 4
ENDMDL
MODEL 7
REMARK VINA RESULT:      -7.0      3.081      5.413
REMARK  4 active torsions:
REMARK  status: ('A' for Active; 'I' for Inactive)
REMARK    1  A    between atoms: C_2  and  C_3 
REMARK    2  A    between atoms: C_5  and  N_6 
REMARK       I    between atoms: N_6  and  C_7 
REMARK    3  A    between atoms: C_7  and  C_8 
REMARK    4  A    between atoms: C_16  and  O_17 
ROOT
HETATM    1  C   UNL     1      18.379  50.273  48.787  1.00  0.00    -0.048 A 
HETATM    2  C   UNL     1      19.754  50.112  49.042  1.00  0.00     0.040 A 
HETATM    3  C   UNL     1      20.331  48.843  49.176  1.00  0.00     0.069 A 
HETATM    4  C   UNL     1      19.531  47.691  49.050  1.00  0.00     0.095 A 
HETATM    5  C   UNL     1      18.165  47.832  48.822  1.00  0.00     0.039 A 
HETATM    6  C   UNL     1      17.599  49.106  48.702  1.00  0.00     0.011 A 
ENDROOT
BRANCH   3   7
HETATM    7  N   UNL     1      21.708  48.633  49.425  1.00  0.00    -0.320 N 
HETATM    8  C   UNL     1      22.771  48.879  48.584  1.00  0.00     0.257 C 
HETATM    9  O   UNL     1      22.739  49.395  47.475  1.00  0.00    -0.267 OA
HETATM   10  H   UNL     1      21.895  48.363  50.387  1.00  0.00     0.169 HD
BRANCH   8  11
HETATM   11  C   UNL     1      24.092  48.513  49.137  1.00  0.00     0.051 A 
HETATM   12  C   UNL     1      25.250  49.177  48.750  1.00  0.00     0.133 A 
HETATM   13  N   UNL     1      26.483  48.875  49.224  1.00  0.00    -0.271 NA
HETATM   14  C   UNL     1      26.551  47.879  50.141  1.00  0.00     0.135 A 
HETATM   15  C   UNL     1      25.444  47.176  50.599  1.00  0.00     0.029 A 
HETATM   16 BR   UNL     1      25.637  45.802  51.875  1.00  0.00    -0.050 Br
HETATM   17  C   UNL     1      24.190  47.502  50.095  1.00  0.00     0.039 A 
ENDBRANCH   8  11
ENDBRANCH   3   7
BRANCH   4  18
HETATM   18  O   UNL     1      20.195  46.493  49.180  1.00  0.00    -0.354 OA
HETATM   19  C   UNL     1      19.724  45.408  48.389  1.00  0.00     0.210 C 
ENDBRANCH   4  18
BRANCH   1  20
HETATM   20  C   UNL     1      17.726  51.660  48.640  1.00  0.00    -0.024 C 
HETATM   21  C   UNL     1      16.982  52.136  49.908  1.00  0.00     0.019 C 
HETATM   22  C   UNL     1      16.704  51.604  47.486  1.00  0.00     0.019 C 
HETATM   23  C   UNL     1      18.789  52.737  48.322  1.00  0.00     0.019 C 
ENDBRANCH   1  20
TORSDOF 4
ENDMDL
MODEL 8
REMARK VINA RESULT:      -6.8      7.910     11.590
REMARK  4 active torsions:
REMARK  status: ('A' for Active; 'I' for Inactive)
REMARK    1  A    between atoms: C_2  and  C_3 
REMARK    2  A    between atoms: C_5  and  N_6 
REMARK       I    between atoms: N_6  and  C_7 
REMARK    3  A    between atoms: C_7  and  C_8 
REMARK    4  A    between atoms: C_16  and  O_17 
ROOT
HETATM    1  C   UNL     1      20.006  51.017  48.370  1.00  0.00    -0.048 A 
HETATM    2  C   UNL     1      19.053  51.834  49.007  1.00  0.00     0.040 A 
HETATM    3  C   UNL     1      17.884  52.242  48.354  1.00  0.00     0.069 A 
HETATM    4  C   UNL     1      17.638  51.829  47.031  1.00  0.00     0.095 A 
HETATM    5  C   UNL     1      18.580  51.040  46.376  1.00  0.00     0.039 A 
HETATM    6  C   UNL     1      19.750  50.649  47.037  1.00  0.00     0.011 A 
ENDROOT
BRANCH   3   7
HETATM    7  N   UNL     1      16.896  53.057  48.956  1.00  0.00    -0.320 N 
HETATM    8  C   UNL     1      15.717  52.664  49.552  1.00  0.00     0.257 C 
HETATM    9  O   UNL     1      15.323  51.521  49.740  1.00  0.00    -0.267 OA
HETATM   10  H   UNL     1      17.180  54.031  49.024  1.00  0.00     0.169 HD
BRANCH   8  11
HETATM   11  C   UNL     1      14.882  53.774  50.056  1.00  0.00     0.051 A 
HETATM   12  C   UNL     1      13.574  53.564  50.477  1.00  0.00     0.133 A 
HETATM   13  N   UNL     1      12.768  54.549  50.943  1.00  0.00    -0.271 NA
HETATM   14  C   UNL     1      13.306  55.792  51.006  1.00  0.00     0.135 A 
HETATM   15  C   UNL     1      14.609  56.088  50.626  1.00  0.00     0.029 A 
HETATM   16 BR   UNL     1      15.269  57.849  50.748  1.00  0.00    -0.050 Br
HETATM   17  C   UNL     1      15.415  55.061  50.149  1.00  0.00     0.039 A 
ENDBRANCH   8  11
ENDBRANCH   3   7
BRANCH   4  18
HETATM   18  O   UNL     1      16.454  52.267  46.484  1.00  0.00    -0.354 OA
HETATM   19  C   UNL     1      15.506  51.271  46.119  1.00  0.00     0.210 C 
ENDBRANCH   4  18
BRANCH   1  20
HETATM   20  C   UNL     1      21.299  50.560  49.071  1.00  0.00    -0.024 C 
HETATM   21  C   UNL     1      22.589  51.098  48.410  1.00  0.00     0.019 C 
HETATM   22  C   UNL     1      21.360  49.019  49.040  1.00  0.00     0.019 C 
HETATM   23  C   UNL     1      21.326  51.037  50.541  1.00  0.00     0.019 C 
ENDBRANCH   1  20
TORSDOF 4
ENDMDL
MODEL 9
REMARK VINA RESULT:      -6.7      3.602      8.461
REMARK  4 active torsions:
REMARK  status: ('A' for Active; 'I' for Inactive)
REMARK    1  A    between atoms: C_2  and  C_3 
REMARK    2  A    between atoms: C_5  and  N_6 
REMARK       I    between atoms: N_6  and  C_7 
REMARK    3  A    between atoms: C_7  and  C_8 
REMARK    4  A    between atoms: C_16  and  O_17 
ROOT
HETATM    1  C   UNL     1      27.997  40.780  50.751  1.00  0.00    -0.048 A 
HETATM    2  C   UNL     1      27.233  41.894  50.354  1.00  0.00     0.040 A 
HETATM    3  C   UNL     1      27.055  42.999  51.195  1.00  0.00     0.069 A 
HETATM    4  C   UNL     1      27.654  43.014  52.470  1.00  0.00     0.095 A 
HETATM    5  C   UNL     1      28.393  41.911  52.889  1.00  0.00     0.039 A 
HETATM    6  C   UNL     1      28.553  40.809  52.042  1.00  0.00     0.011 A 
ENDROOT
BRANCH   3   7
HETATM    7  N   UNL     1      26.302  44.142  50.836  1.00  0.00    -0.320 N 
HETATM    8  C   UNL     1      24.937  44.316  50.906  1.00  0.00     0.257 C 
HETATM    9  O   UNL     1      24.109  43.537  51.359  1.00  0.00    -0.267 OA
HETATM   10  H   UNL     1      26.887  44.938  50.600  1.00  0.00     0.169 HD
BRANCH   8  11
HETATM   11  C   UNL     1      24.457  45.625  50.416  1.00  0.00     0.051 A 
HETATM   12  C   UNL     1      24.940  46.818  50.942  1.00  0.00     0.133 A 
HETATM   13  N   UNL     1      24.529  48.041  50.529  1.00  0.00    -0.271 NA
HETATM   14  C   UNL     1      23.609  48.066  49.534  1.00  0.00     0.135 A 
HETATM   15  C   UNL     1      23.086  46.925  48.939  1.00  0.00     0.029 A 
HETATM   16 BR   UNL     1      21.806  47.059  47.562  1.00  0.00    -0.050 Br
HETATM   17  C   UNL     1      23.522  45.681  49.381  1.00  0.00     0.039 A 
ENDBRANCH   8  11
ENDBRANCH   3   7
BRANCH   4  18
HETATM   18  O   UNL     1      27.436  44.152  53.213  1.00  0.00    -0.354 OA
HETATM   19  C   UNL     1      26.792  43.986  54.470  1.00  0.00     0.210 C 
ENDBRANCH   4  18
BRANCH   1  20
HETATM   20  C   UNL     1      28.201  39.555  49.841  1.00  0.00    -0.024 C 
HETATM   21  C   UNL     1      28.790  39.901  48.454  1.00  0.00     0.019 C 
HETATM   22  C   UNL     1      26.836  38.872  49.618  1.00  0.00     0.019 C 
HETATM   23  C   UNL     1      29.172  38.542  50.492  1.00  0.00     0.019 C 
ENDBRANCH   1  20
TORSDOF 4
ENDMDL
MODEL 10
REMARK VINA RESULT:      -6.5     19.257     20.440
REMARK  4 active torsions:
REMARK  status: ('A' for Active; 'I' for Inactive)
REMARK    1  A    between atoms: C_2  and  C_3 
REMARK    2  A    between atoms: C_5  and  N_6 
REMARK       I    between atoms: N_6  and  C_7 
REMARK    3  A    between atoms: C_7  and  C_8 
REMARK    4  A    between atoms: C_16  and  O_17 
ROOT
HETATM    1  C   UNL     1      38.136  47.840  65.410  1.00  0.00    -0.048 A 
HETATM    2  C   UNL     1      38.711  46.579  65.163  1.00  0.00     0.040 A 
HETATM    3  C   UNL     1      37.924  45.431  65.010  1.00  0.00     0.069 A 
HETATM    4  C   UNL     1      36.521  45.525  65.096  1.00  0.00     0.095 A 
HETATM    5  C   UNL     1      35.936  46.760  65.364  1.00  0.00     0.039 A 
HETATM    6  C   UNL     1      36.736  47.897  65.526  1.00  0.00     0.011 A 
ENDROOT
BRANCH   3   7
HETATM    7  N   UNL     1      38.457  44.145  64.754  1.00  0.00    -0.320 N 
HETATM    8  C   UNL     1      38.887  43.627  63.552  1.00  0.00     0.257 C 
HETATM    9  O   UNL     1      38.957  44.204  62.475  1.00  0.00    -0.267 OA
HETATM   10  H   UNL     1      38.617  43.612  65.604  1.00  0.00     0.169 HD
BRANCH   8  11
HETATM   11  C   UNL     1      39.358  42.228  63.618  1.00  0.00     0.051 A 
HETATM   12  C   UNL     1      38.948  41.280  62.688  1.00  0.00     0.133 A 
HETATM   13  N   UNL     1      39.349  39.986  62.708  1.00  0.00    -0.271 NA
HETATM   14  C   UNL     1      40.214  39.636  63.692  1.00  0.00     0.135 A 
HETATM   15  C   UNL     1      40.691  40.522  64.650  1.00  0.00     0.029 A 
HETATM   16 BR   UNL     1      41.890  39.943  65.984  1.00  0.00    -0.050 Br
HETATM   17  C   UNL     1      40.262  41.844  64.609  1.00  0.00     0.039 A 
ENDBRANCH   8  11
ENDBRANCH   3   7
BRANCH   4  18
HETATM   18  O   UNL     1      35.836  44.346  64.913  1.00  0.00    -0.354 OA
HETATM   19  C   UNL     1      35.064  43.873  66.011  1.00  0.00     0.210 C 
ENDBRANCH   4  18
BRANCH   1  20
HETATM   20  C   UNL     1      38.986  49.112  65.584  1.00  0.00    -0.024 C 
HETATM   21  C   UNL     1      38.151  50.392  65.821  1.00  0.00     0.019 C 
HETATM   22  C   UNL     1      39.824  49.325  64.307  1.00  0.00     0.019 C 
HETATM   23  C   UNL     1      39.937  48.977  66.796  1.00  0.00     0.019 C 
ENDBRANCH   1  20
TORSDOF 4
ENDMDL
