MODEL 1
REMARK VINA RESULT:      -9.1      0.000      0.000
REMARK  2 active torsions:
REMARK  status: ('A' for Active; 'I' for Inactive)
REMARK    1  A    between atoms: C_6  and  N_7 
REMARK    2  A    between atoms: N_7  and  C_8 
ROOT
HETATM    1  C   UNL     1      26.168  48.850  55.984  1.00  0.00     0.093 C 
HETATM    2  C   UNL     1      26.773  47.648  55.327  1.00  0.00     0.125 A 
HETATM    3  N   UNL     1      27.823  47.082  55.928  1.00  0.00    -0.226 NA
HETATM    4  C   UNL     1      28.297  46.020  55.261  1.00  0.00     0.114 A 
HETATM    5  C   UNL     1      27.803  45.502  54.062  1.00  0.00     0.053 A 
HETATM    6  C   UNL     1      26.695  46.175  53.504  1.00  0.00     0.143 A 
HETATM    7  N   UNL     1      26.206  47.246  54.174  1.00  0.00    -0.215 NA
HETATM    8  S   UNL     1      29.652  45.151  55.871  1.00  0.00    -0.073 SA
HETATM    9  C   UNL     1      29.582  44.098  54.578  1.00  0.00    -0.008 A 
HETATM   10  C   UNL     1      28.577  44.365  53.690  1.00  0.00    -0.028 A 
HETATM   11  C   UNL     1      28.581  43.374  52.583  1.00  0.00     0.041 C 
HETATM   12  C   UNL     1      29.531  42.262  53.128  1.00  0.00     0.010 C 
HETATM   13  C   UNL     1      30.413  42.922  54.228  1.00  0.00     0.047 C 
ENDROOT
BRANCH   6  14
HETATM   14  N   UNL     1      26.145  45.781  52.274  1.00  0.00    -0.340 N 
HETATM   15  H   UNL     1      26.177  44.785  52.118  1.00  0.00     0.167 HD
BRANCH  14  16
HETATM   16  C   UNL     1      25.610  46.522  51.206  1.00  0.00     0.036 A 
HETATM   17  C   UNL     1      26.369  47.578  50.674  1.00  0.00     0.069 A 
HETATM   18  C   UNL     1      25.874  48.370  49.636  1.00  0.00     0.104 A 
HETATM   19  C   UNL     1      24.595  48.136  49.127  1.00  0.00     0.102 A 
HETATM   20  O   UNL     1      26.695  49.368  49.177  1.00  0.00    -0.346 OA
HETATM   21  O   UNL     1      24.029  48.893  48.134  1.00  0.00    -0.346 OA
HETATM   22  C   UNL     1      23.834  47.088  49.630  1.00  0.00     0.042 A 
HETATM   23  C   UNL     1      24.729  50.131  47.967  1.00  0.00     0.202 C 
HETATM   24  C   UNL     1      26.230  49.896  47.929  1.00  0.00     0.202 C 
HETATM   25  C   UNL     1      24.338  46.294  50.667  1.00  0.00     0.032 A 
ENDBRANCH  14  16
ENDBRANCH   6  14
TORSDOF 2
ENDMDL
MODEL 2
REMARK VINA RESULT:      -9.0      2.103      3.987
REMARK  2 active torsions:
REMARK  status: ('A' for Active; 'I' for Inactive)
REMARK    1  A    between atoms: C_6  and  N_7 
REMARK    2  A    between atoms: N_7  and  C_8 
ROOT
HETATM    1  C   UNL     1      28.536  40.172  51.173  1.00  0.00     0.093 C 
HETATM    2  C   UNL     1      28.360  41.384  52.035  1.00  0.00     0.125 A 
HETATM    3  N   UNL     1      29.374  41.719  52.838  1.00  0.00    -0.226 NA
HETATM    4  C   UNL     1      29.118  42.810  53.574  1.00  0.00     0.114 A 
HETATM    5  C   UNL     1      27.945  43.567  53.561  1.00  0.00     0.053 A 
HETATM    6  C   UNL     1      26.931  43.127  52.683  1.00  0.00     0.143 A 
HETATM    7  N   UNL     1      27.183  42.028  51.931  1.00  0.00    -0.215 NA
HETATM    8  S   UNL     1      30.299  43.405  54.677  1.00  0.00    -0.073 SA
HETATM    9  C   UNL     1      29.282  44.652  55.122  1.00  0.00    -0.008 A 
HETATM   10  C   UNL     1      28.075  44.650  54.478  1.00  0.00    -0.028 A 
HETATM   11  C   UNL     1      27.243  45.797  54.924  1.00  0.00     0.041 C 
HETATM   12  C   UNL     1      28.275  46.688  55.684  1.00  0.00     0.010 C 
HETATM   13  C   UNL     1      29.460  45.761  56.087  1.00  0.00     0.047 C 
ENDROOT
BRANCH   6  14
HETATM   14  N   UNL     1      25.687  43.774  52.620  1.00  0.00    -0.340 N 
HETATM   15  H   UNL     1      25.137  43.675  53.459  1.00  0.00     0.167 HD
BRANCH  14  16
HETATM   16  C   UNL     1      25.051  44.483  51.586  1.00  0.00     0.036 A 
HETATM   17  C   UNL     1      25.271  45.867  51.485  1.00  0.00     0.069 A 
HETATM   18  C   UNL     1      24.638  46.627  50.499  1.00  0.00     0.104 A 
HETATM   19  C   UNL     1      23.749  46.020  49.611  1.00  0.00     0.102 A 
HETATM   20  O   UNL     1      24.928  47.968  50.475  1.00  0.00    -0.346 OA
HETATM   21  O   UNL     1      23.065  46.707  48.641  1.00  0.00    -0.346 OA
HETATM   22  C   UNL     1      23.529  44.650  49.685  1.00  0.00     0.042 A 
HETATM   23  C   UNL     1      23.083  48.116  48.898  1.00  0.00     0.202 C 
HETATM   24  C   UNL     1      24.486  48.576  49.255  1.00  0.00     0.202 C 
HETATM   25  C   UNL     1      24.170  43.892  50.672  1.00  0.00     0.032 A 
ENDBRANCH  14  16
ENDBRANCH   6  14
TORSDOF 2
ENDMDL
MODEL 3
REMARK VINA RESULT:      -8.9      3.698      5.178
REMARK  2 active torsions:
REMARK  status: ('A' for Active; 'I' for Inactive)
REMARK    1  A    between atoms: C_6  and  N_7 
REMARK    2  A    between atoms: N_7  and  C_8 
ROOT
HETATM    1  C   UNL     1      25.938  47.517  54.219  1.00  0.00     0.093 C 
HETATM    2  C   UNL     1      27.086  46.663  54.661  1.00  0.00     0.125 A 
HETATM    3  N   UNL     1      27.589  46.892  55.877  1.00  0.00    -0.226 NA
HETATM    4  C   UNL     1      28.616  46.083  56.178  1.00  0.00     0.114 A 
HETATM    5  C   UNL     1      29.158  45.089  55.362  1.00  0.00     0.053 A 
HETATM    6  C   UNL     1      28.560  44.930  54.093  1.00  0.00     0.143 A 
HETATM    7  N   UNL     1      27.518  45.738  53.783  1.00  0.00    -0.215 NA
HETATM    8  S   UNL     1      29.406  46.220  57.701  1.00  0.00    -0.073 SA
HETATM    9  C   UNL     1      30.443  44.976  57.296  1.00  0.00    -0.008 A 
HETATM   10  C   UNL     1      30.228  44.449  56.052  1.00  0.00    -0.028 A 
HETATM   11  C   UNL     1      31.183  43.343  55.782  1.00  0.00     0.041 C 
HETATM   12  C   UNL     1      31.780  43.059  57.196  1.00  0.00     0.010 C 
HETATM   13  C   UNL     1      31.549  44.341  58.049  1.00  0.00     0.047 C 
ENDROOT
BRANCH   6  14
HETATM   14  N   UNL     1      29.052  43.999  53.165  1.00  0.00    -0.340 N 
HETATM   15  H   UNL     1      30.037  44.102  52.972  1.00  0.00     0.167 HD
BRANCH  14  16
HETATM   16  C   UNL     1      28.414  42.993  52.418  1.00  0.00     0.036 A 
HETATM   17  C   UNL     1      27.912  43.315  51.147  1.00  0.00     0.069 A 
HETATM   18  C   UNL     1      27.239  42.365  50.376  1.00  0.00     0.104 A 
HETATM   19  C   UNL     1      27.032  41.078  50.876  1.00  0.00     0.102 A 
HETATM   20  O   UNL     1      26.798  42.773  49.142  1.00  0.00    -0.346 OA
HETATM   21  O   UNL     1      26.350  40.105  50.192  1.00  0.00    -0.346 OA
HETATM   22  C   UNL     1      27.533  40.736  52.125  1.00  0.00     0.042 A 
HETATM   23  C   UNL     1      25.582  40.667  49.123  1.00  0.00     0.202 C 
HETATM   24  C   UNL     1      26.417  41.658  48.328  1.00  0.00     0.202 C 
HETATM   25  C   UNL     1      28.211  41.691  52.892  1.00  0.00     0.032 A 
ENDBRANCH  14  16
ENDBRANCH   6  14
TORSDOF 2
ENDMDL
MODEL 4
REMARK VINA RESULT:      -8.9      6.408     10.124
REMARK  2 active torsions:
REMARK  status: ('A' for Active; 'I' for Inactive)
REMARK    1  A    between atoms: C_6  and  N_7 
REMARK    2  A    between atoms: N_7  and  C_8 
ROOT
HETATM    1  C   UNL     1      18.341  45.097  47.333  1.00  0.00     0.093 C 
HETATM    2  C   UNL     1      18.367  46.517  47.810  1.00  0.00     0.125 A 
HETATM    3  N   UNL     1      17.290  47.267  47.564  1.00  0.00    -0.226 NA
HETATM    4  C   UNL     1      17.413  48.522  48.023  1.00  0.00     0.114 A 
HETATM    5  C   UNL     1      18.514  49.060  48.691  1.00  0.00     0.053 A 
HETATM    6  C   UNL     1      19.604  48.187  48.897  1.00  0.00     0.143 A 
HETATM    7  N   UNL     1      19.487  46.916  48.443  1.00  0.00    -0.215 NA
HETATM    8  S   UNL     1      16.132  49.650  47.802  1.00  0.00    -0.073 SA
HETATM    9  C   UNL     1      17.011  50.831  48.589  1.00  0.00    -0.008 A 
HETATM   10  C   UNL     1      18.243  50.420  49.019  1.00  0.00    -0.028 A 
HETATM   11  C   UNL     1      18.948  51.525  49.718  1.00  0.00     0.041 C 
HETATM   12  C   UNL     1      17.806  52.565  49.945  1.00  0.00     0.010 C 
HETATM   13  C   UNL     1      16.689  52.240  48.909  1.00  0.00     0.047 C 
ENDROOT
BRANCH   6  14
HETATM   14  N   UNL     1      20.787  48.627  49.510  1.00  0.00    -0.340 N 
HETATM   15  H   UNL     1      20.721  48.696  50.514  1.00  0.00     0.167 HD
BRANCH  14  16
HETATM   16  C   UNL     1      22.021  49.040  48.977  1.00  0.00     0.036 A 
HETATM   17  C   UNL     1      23.202  48.548  49.556  1.00  0.00     0.069 A 
HETATM   18  C   UNL     1      24.455  48.950  49.091  1.00  0.00     0.104 A 
HETATM   19  C   UNL     1      24.550  49.877  48.051  1.00  0.00     0.102 A 
HETATM   20  O   UNL     1      25.549  48.404  49.713  1.00  0.00    -0.346 OA
HETATM   21  O   UNL     1      25.744  50.346  47.566  1.00  0.00    -0.346 OA
HETATM   22  C   UNL     1      23.394  50.366  47.456  1.00  0.00     0.042 A 
HETATM   23  C   UNL     1      26.814  50.071  48.476  1.00  0.00     0.202 C 
HETATM   24  C   UNL     1      26.747  48.633  48.962  1.00  0.00     0.202 C 
HETATM   25  C   UNL     1      22.140  49.955  47.923  1.00  0.00     0.032 A 
ENDBRANCH  14  16
ENDBRANCH   6  14
TORSDOF 2
ENDMDL
MODEL 5
REMARK VINA RESULT:      -8.8      4.008      5.577
REMARK  2 active torsions:
REMARK  status: ('A' for Active; 'I' for Inactive)
REMARK    1  A    between atoms: C_6  and  N_7 
REMARK    2  A    between atoms: N_7  and  C_8 
ROOT
HETATM    1  C   UNL     1      25.835  47.481  54.068  1.00  0.00     0.093 C 
HETATM    2  C   UNL     1      26.964  46.594  54.497  1.00  0.00     0.125 A 
HETATM    3  N   UNL     1      27.545  46.865  55.669  1.00  0.00    -0.226 NA
HETATM    4  C   UNL     1      28.547  46.022  55.961  1.00  0.00     0.114 A 
HETATM    5  C   UNL     1      28.993  44.956  55.177  1.00  0.00     0.053 A 
HETATM    6  C   UNL     1      28.317  44.757  53.955  1.00  0.00     0.143 A 
HETATM    7  N   UNL     1      27.300  45.600  53.654  1.00  0.00    -0.215 NA
HETATM    8  S   UNL     1      29.428  46.204  57.429  1.00  0.00    -0.073 SA
HETATM    9  C   UNL     1      30.378  44.886  57.043  1.00  0.00    -0.008 A 
HETATM   10  C   UNL     1      30.068  44.302  55.846  1.00  0.00    -0.028 A 
HETATM   11  C   UNL     1      30.951  43.135  55.590  1.00  0.00     0.041 C 
HETATM   12  C   UNL     1      31.613  42.899  56.985  1.00  0.00     0.010 C 
HETATM   13  C   UNL     1      31.492  44.238  57.772  1.00  0.00     0.047 C 
ENDROOT
BRANCH   6  14
HETATM   14  N   UNL     1      28.710  43.752  53.058  1.00  0.00    -0.340 N 
HETATM   15  H   UNL     1      29.710  43.661  52.965  1.00  0.00     0.167 HD
BRANCH  14  16
HETATM   16  C   UNL     1      27.967  42.892  52.229  1.00  0.00     0.036 A 
HETATM   17  C   UNL     1      28.586  41.732  51.736  1.00  0.00     0.069 A 
HETATM   18  C   UNL     1      27.907  40.860  50.883  1.00  0.00     0.104 A 
HETATM   19  C   UNL     1      26.602  41.148  50.483  1.00  0.00     0.102 A 
HETATM   20  O   UNL     1      28.593  39.748  50.466  1.00  0.00    -0.346 OA
HETATM   21  O   UNL     1      25.886  40.359  49.619  1.00  0.00    -0.346 OA
HETATM   22  C   UNL     1      25.966  42.284  50.970  1.00  0.00     0.042 A 
HETATM   23  C   UNL     1      26.745  39.457  48.913  1.00  0.00     0.202 C 
HETATM   24  C   UNL     1      27.716  38.785  49.870  1.00  0.00     0.202 C 
HETATM   25  C   UNL     1      26.650  43.151  51.830  1.00  0.00     0.032 A 
ENDBRANCH  14  16
ENDBRANCH   6  14
TORSDOF 2
ENDMDL
MODEL 6
REMARK VINA RESULT:      -8.8      4.190      6.983
REMARK  2 active torsions:
REMARK  status: ('A' for Active; 'I' for Inactive)
REMARK    1  A    between atoms: C_6  and  N_7 
REMARK    2  A    between atoms: N_7  and  C_8 
ROOT
HETATM    1  C   UNL     1      31.430  43.323  56.323  1.00  0.00     0.093 C 
HETATM    2  C   UNL     1      30.203  43.774  55.592  1.00  0.00     0.125 A 
HETATM    3  N   UNL     1      29.890  45.070  55.660  1.00  0.00    -0.226 NA
HETATM    4  C   UNL     1      28.774  45.374  54.981  1.00  0.00     0.114 A 
HETATM    5  C   UNL     1      27.972  44.488  54.260  1.00  0.00     0.053 A 
HETATM    6  C   UNL     1      28.385  43.139  54.255  1.00  0.00     0.143 A 
HETATM    7  N   UNL     1      29.515  42.823  54.933  1.00  0.00    -0.215 NA
HETATM    8  S   UNL     1      28.199  46.996  54.948  1.00  0.00    -0.073 SA
HETATM    9  C   UNL     1      26.914  46.540  53.984  1.00  0.00    -0.008 A 
HETATM   10  C   UNL     1      26.888  45.207  53.677  1.00  0.00    -0.028 A 
HETATM   11  C   UNL     1      25.724  44.893  52.809  1.00  0.00     0.041 C 
HETATM   12  C   UNL     1      25.248  46.310  52.357  1.00  0.00     0.010 C 
HETATM   13  C   UNL     1      25.804  47.326  53.398  1.00  0.00     0.047 C 
ENDROOT
BRANCH   6  14
HETATM   14  N   UNL     1      27.631  42.146  53.609  1.00  0.00    -0.340 N 
HETATM   15  H   UNL     1      26.823  41.847  54.134  1.00  0.00     0.167 HD
BRANCH  14  16
HETATM   16  C   UNL     1      27.826  41.460  52.398  1.00  0.00     0.036 A 
HETATM   17  C   UNL     1      28.670  40.336  52.391  1.00  0.00     0.069 A 
HETATM   18  C   UNL     1      28.928  39.637  51.210  1.00  0.00     0.104 A 
HETATM   19  C   UNL     1      28.367  40.066  50.006  1.00  0.00     0.102 A 
HETATM   20  O   UNL     1      29.754  38.546  51.308  1.00  0.00    -0.346 OA
HETATM   21  O   UNL     1      28.603  39.452  48.803  1.00  0.00    -0.346 OA
HETATM   22  C   UNL     1      27.519  41.166  49.995  1.00  0.00     0.042 A 
HETATM   23  C   UNL     1      29.748  38.596  48.878  1.00  0.00     0.202 C 
HETATM   24  C   UNL     1      29.693  37.735  50.129  1.00  0.00     0.202 C 
HETATM   25  C   UNL     1      27.260  41.860  51.182  1.00  0.00     0.032 A 
ENDBRANCH  14  16
ENDBRANCH   6  14
TORSDOF 2
ENDMDL
MODEL 7
REMARK VINA RESULT:      -8.5      4.074      6.181
REMARK  2 active torsions:
REMARK  status: ('A' for Active; 'I' for Inactive)
REMARK    1  A    between atoms: C_6  and  N_7 
REMARK    2  A    between atoms: N_7  and  C_8 
ROOT
HETATM    1  C   UNL     1      24.703  45.119  51.816  1.00  0.00     0.093 C 
HETATM    2  C   UNL     1      25.936  44.731  52.572  1.00  0.00     0.125 A 
HETATM    3  N   UNL     1      26.476  45.649  53.378  1.00  0.00    -0.226 NA
HETATM    4  C   UNL     1      27.578  45.211  54.005  1.00  0.00     0.114 A 
HETATM    5  C   UNL     1      28.160  43.949  53.878  1.00  0.00     0.053 A 
HETATM    6  C   UNL     1      27.518  43.053  52.997  1.00  0.00     0.143 A 
HETATM    7  N   UNL     1      26.400  43.485  52.364  1.00  0.00    -0.215 NA
HETATM    8  S   UNL     1      28.425  46.246  55.088  1.00  0.00    -0.073 SA
HETATM    9  C   UNL     1      29.540  45.042  55.396  1.00  0.00    -0.008 A 
HETATM   10  C   UNL     1      29.310  43.877  54.717  1.00  0.00    -0.028 A 
HETATM   11  C   UNL     1      30.338  42.861  55.060  1.00  0.00     0.041 C 
HETATM   12  C   UNL     1      31.022  43.484  56.318  1.00  0.00     0.010 C 
HETATM   13  C   UNL     1      30.727  45.012  56.280  1.00  0.00     0.047 C 
ENDROOT
BRANCH   6  14
HETATM   14  N   UNL     1      28.039  41.774  52.746  1.00  0.00    -0.340 N 
HETATM   15  H   UNL     1      28.369  41.302  53.574  1.00  0.00     0.167 HD
BRANCH  14  16
HETATM   16  C   UNL     1      28.235  41.060  51.551  1.00  0.00     0.036 A 
HETATM   17  C   UNL     1      27.818  41.643  50.342  1.00  0.00     0.069 A 
HETATM   18  C   UNL     1      27.956  40.965  49.130  1.00  0.00     0.104 A 
HETATM   19  C   UNL     1      28.490  39.675  49.106  1.00  0.00     0.102 A 
HETATM   20  O   UNL     1      27.531  41.623  48.004  1.00  0.00    -0.346 OA
HETATM   21  O   UNL     1      28.623  38.935  47.960  1.00  0.00    -0.346 OA
HETATM   22  C   UNL     1      28.921  39.086  50.288  1.00  0.00     0.042 A 
HETATM   23  C   UNL     1      27.825  39.476  46.901  1.00  0.00     0.202 C 
HETATM   24  C   UNL     1      28.005  40.983  46.813  1.00  0.00     0.202 C 
HETATM   25  C   UNL     1      28.785  39.773  51.501  1.00  0.00     0.032 A 
ENDBRANCH  14  16
ENDBRANCH   6  14
TORSDOF 2
ENDMDL
MODEL 8
REMARK VINA RESULT:      -8.5      1.527      2.313
REMARK  2 active torsions:
REMARK  status: ('A' for Active; 'I' for Inactive)
REMARK    1  A    between atoms: C_6  and  N_7 
REMARK    2  A    between atoms: N_7  and  C_8 
ROOT
HETATM    1  C   UNL     1      26.778  48.126  55.309  1.00  0.00     0.093 C 
HETATM    2  C   UNL     1      26.951  46.946  54.401  1.00  0.00     0.125 A 
HETATM    3  N   UNL     1      27.640  45.904  54.874  1.00  0.00    -0.226 NA
HETATM    4  C   UNL     1      27.747  44.904  53.987  1.00  0.00     0.114 A 
HETATM    5  C   UNL     1      27.224  44.880  52.693  1.00  0.00     0.053 A 
HETATM    6  C   UNL     1      26.518  46.032  52.286  1.00  0.00     0.143 A 
HETATM    7  N   UNL     1      26.400  47.045  53.178  1.00  0.00    -0.215 NA
HETATM    8  S   UNL     1      28.602  43.469  54.403  1.00  0.00    -0.073 SA
HETATM    9  C   UNL     1      28.277  42.818  52.901  1.00  0.00    -0.008 A 
HETATM   10  C   UNL     1      27.547  43.634  52.081  1.00  0.00    -0.028 A 
HETATM   11  C   UNL     1      27.294  42.972  50.775  1.00  0.00     0.041 C 
HETATM   12  C   UNL     1      27.692  41.490  51.064  1.00  0.00     0.010 C 
HETATM   13  C   UNL     1      28.636  41.511  52.303  1.00  0.00     0.047 C 
ENDROOT
BRANCH   6  14
HETATM   14  N   UNL     1      25.992  46.147  50.990  1.00  0.00    -0.340 N 
HETATM   15  H   UNL     1      25.922  45.267  50.502  1.00  0.00     0.167 HD
BRANCH  14  16
HETATM   16  C   UNL     1      25.602  47.266  50.233  1.00  0.00     0.036 A 
HETATM   17  C   UNL     1      24.231  47.546  50.106  1.00  0.00     0.069 A 
HETATM   18  C   UNL     1      23.784  48.624  49.338  1.00  0.00     0.104 A 
HETATM   19  C   UNL     1      24.702  49.426  48.659  1.00  0.00     0.102 A 
HETATM   20  O   UNL     1      22.428  48.823  49.287  1.00  0.00    -0.346 OA
HETATM   21  O   UNL     1      24.336  50.478  47.859  1.00  0.00    -0.346 OA
HETATM   22  C   UNL     1      26.062  49.174  48.782  1.00  0.00     0.042 A 
HETATM   23  C   UNL     1      22.947  50.408  47.518  1.00  0.00     0.202 C 
HETATM   24  C   UNL     1      22.108  50.112  48.750  1.00  0.00     0.202 C 
HETATM   25  C   UNL     1      26.505  48.096  49.558  1.00  0.00     0.032 A 
ENDBRANCH  14  16
ENDBRANCH   6  14
TORSDOF 2
ENDMDL
MODEL 9
REMARK VINA RESULT:      -8.2     12.147     14.134
REMARK  2 active torsions:
REMARK  status: ('A' for Active; 'I' for Inactive)
REMARK    1  A    between atoms: C_6  and  N_7 
REMARK    2  A    between atoms: N_7  and  C_8 
ROOT
HETATM    1  C   UNL     1      27.342  46.146  40.329  1.00  0.00     0.093 C 
HETATM    2  C   UNL     1      27.860  47.551  40.333  1.00  0.00     0.125 A 
HETATM    3  N   UNL     1      27.425  48.368  39.370  1.00  0.00    -0.226 NA
HETATM    4  C   UNL     1      27.949  49.599  39.453  1.00  0.00     0.114 A 
HETATM    5  C   UNL     1      28.858  50.053  40.410  1.00  0.00     0.053 A 
HETATM    6  C   UNL     1      29.261  49.112  41.382  1.00  0.00     0.143 A 
HETATM    7  N   UNL     1      28.732  47.867  41.309  1.00  0.00    -0.215 NA
HETATM    8  S   UNL     1      27.516  50.802  38.300  1.00  0.00    -0.073 SA
HETATM    9  C   UNL     1      28.504  51.913  39.060  1.00  0.00    -0.008 A 
HETATM   10  C   UNL     1      29.160  51.423  40.157  1.00  0.00    -0.028 A 
HETATM   11  C   UNL     1      30.003  52.478  40.776  1.00  0.00     0.041 C 
HETATM   12  C   UNL     1      29.483  53.777  40.082  1.00  0.00     0.010 C 
HETATM   13  C   UNL     1      28.790  53.334  38.759  1.00  0.00     0.047 C 
ENDROOT
BRANCH   6  14
HETATM   14  N   UNL     1      30.211  49.435  42.363  1.00  0.00    -0.340 N 
HETATM   15  H   UNL     1      29.818  49.546  43.285  1.00  0.00     0.167 HD
BRANCH  14  16
HETATM   16  C   UNL     1      31.592  49.685  42.284  1.00  0.00     0.036 A 
HETATM   17  C   UNL     1      32.125  50.756  43.021  1.00  0.00     0.069 A 
HETATM   18  C   UNL     1      33.483  51.072  42.954  1.00  0.00     0.104 A 
HETATM   19  C   UNL     1      34.332  50.336  42.125  1.00  0.00     0.102 A 
HETATM   20  O   UNL     1      33.910  52.127  43.720  1.00  0.00    -0.346 OA
HETATM   21  O   UNL     1      35.668  50.610  41.980  1.00  0.00    -0.346 OA
HETATM   22  C   UNL     1      33.828  49.265  41.398  1.00  0.00     0.042 A 
HETATM   23  C   UNL     1      35.981  51.920  42.464  1.00  0.00     0.202 C 
HETATM   24  C   UNL     1      35.338  52.157  43.820  1.00  0.00     0.202 C 
HETATM   25  C   UNL     1      32.466  48.950  41.474  1.00  0.00     0.032 A 
ENDBRANCH  14  16
ENDBRANCH   6  14
TORSDOF 2
ENDMDL
MODEL 10
REMARK VINA RESULT:      -8.1      2.379      3.304
REMARK  2 active torsions:
REMARK  status: ('A' for Active; 'I' for Inactive)
REMARK    1  A    between atoms: C_6  and  N_7 
REMARK    2  A    between atoms: N_7  and  C_8 
ROOT
HETATM    1  C   UNL     1      26.272  48.974  55.767  1.00  0.00     0.093 C 
HETATM    2  C   UNL     1      26.695  47.614  55.304  1.00  0.00     0.125 A 
HETATM    3  N   UNL     1      27.952  47.242  55.560  1.00  0.00    -0.226 NA
HETATM    4  C   UNL     1      28.237  46.014  55.102  1.00  0.00     0.114 A 
HETATM    5  C   UNL     1      27.370  45.158  54.421  1.00  0.00     0.053 A 
HETATM    6  C   UNL     1      26.065  45.646  54.194  1.00  0.00     0.143 A 
HETATM    7  N   UNL     1      25.767  46.883  54.659  1.00  0.00    -0.215 NA
HETATM    8  S   UNL     1      29.810  45.351  55.329  1.00  0.00    -0.073 SA
HETATM    9  C   UNL     1      29.351  43.948  54.551  1.00  0.00    -0.008 A 
HETATM   10  C   UNL     1      28.053  43.945  54.117  1.00  0.00    -0.028 A 
HETATM   11  C   UNL     1      27.728  42.658  53.450  1.00  0.00     0.041 C 
HETATM   12  C   UNL     1      28.932  41.752  53.858  1.00  0.00     0.010 C 
HETATM   13  C   UNL     1      30.099  42.705  54.254  1.00  0.00     0.047 C 
ENDROOT
BRANCH   6  14
HETATM   14  N   UNL     1      25.121  44.899  53.474  1.00  0.00    -0.340 N 
HETATM   15  H   UNL     1      24.637  44.213  54.032  1.00  0.00     0.167 HD
BRANCH  14  16
HETATM   16  C   UNL     1      24.769  44.896  52.113  1.00  0.00     0.036 A 
HETATM   17  C   UNL     1      24.322  43.696  51.536  1.00  0.00     0.069 A 
HETATM   18  C   UNL     1      23.991  43.626  50.181  1.00  0.00     0.104 A 
HETATM   19  C   UNL     1      24.129  44.753  49.369  1.00  0.00     0.102 A 
HETATM   20  O   UNL     1      23.552  42.413  49.715  1.00  0.00    -0.346 OA
HETATM   21  O   UNL     1      23.859  44.751  48.025  1.00  0.00    -0.346 OA
HETATM   22  C   UNL     1      24.557  45.953  49.923  1.00  0.00     0.042 A 
HETATM   23  C   UNL     1      23.794  43.415  47.514  1.00  0.00     0.202 C 
HETATM   24  C   UNL     1      22.951  42.535  48.421  1.00  0.00     0.202 C 
HETATM   25  C   UNL     1      24.881  46.019  51.283  1.00  0.00     0.032 A 
ENDBRANCH  14  16
ENDBRANCH   6  14
TORSDOF 2
ENDMDL
