MODEL 1
REMARK VINA RESULT:      -7.9      0.000      0.000
REMARK  4 active torsions:
REMARK  status: ('A' for Active; 'I' for Inactive)
REMARK    1  A    between atoms: C_2  and  C_3 
REMARK    2  A    between atoms: C_3  and  N_4 
REMARK    3  A    between atoms: N_4  and  N_5 
REMARK    4  A    between atoms: C_10  and  C_11 
ROOT
HETATM    1  N   UNL     1      27.543  41.149  50.739  1.00  0.00    -0.231 N 
HETATM    2  C   UNL     1      28.105  40.256  49.844  1.00  0.00     0.211 A 
HETATM    3  S   UNL     1      28.796  38.774  50.119  1.00  0.00    -0.038 SA
HETATM    4  N   UNL     1      27.976  40.852  48.598  1.00  0.00    -0.250 N 
HETATM    5  N   UNL     1      27.332  42.055  48.705  1.00  0.00    -0.152 NA
HETATM    6  C   UNL     1      27.075  42.197  49.983  1.00  0.00     0.177 A 
HETATM    7  H   UNL     1      28.264  40.470  47.705  1.00  0.00     0.191 HD
ENDROOT
BRANCH   1   8
HETATM    8  N   UNL     1      27.460  40.950  52.121  1.00  0.00    -0.225 NA
HETATM    9  H   UNL     1      27.209  39.966  52.264  1.00  0.00     0.147 HD
BRANCH   8  10
HETATM   10  C   UNL     1      28.755  41.175  52.779  1.00  0.00     0.149 C 
BRANCH  10  11
HETATM   11  C   UNL     1      28.714  42.420  53.641  1.00  0.00    -0.041 A 
HETATM   12  C   UNL     1      27.504  43.139  53.792  1.00  0.00     0.011 A 
HETATM   13  C   UNL     1      27.445  44.295  54.578  1.00  0.00     0.040 A 
HETATM   14  C   UNL     1      28.604  44.711  55.196  1.00  0.00     0.105 A 
HETATM   15  C   UNL     1      29.783  44.018  55.063  1.00  0.00     0.105 A 
HETATM   16  O   UNL     1      28.734  45.812  55.983  1.00  0.00    -0.323 OA
HETATM   17  C   UNL     1      29.869  42.871  54.304  1.00  0.00     0.048 A 
HETATM   18  O   UNL     1      30.805  44.596  55.748  1.00  0.00    -0.323 OA
HETATM   19  C   UNL     1      30.137  45.742  56.316  1.00  0.00     0.352 A 
ENDBRANCH  10  11
ENDBRANCH   8  10
ENDBRANCH   1   8
BRANCH   6  20
HETATM   20  C   UNL     1      26.369  43.387  50.512  1.00  0.00     0.016 A 
HETATM   21  C   UNL     1      27.043  44.611  50.466  1.00  0.00     0.034 A 
HETATM   22  C   UNL     1      26.402  45.741  50.942  1.00  0.00     0.117 A 
HETATM   23  N   UNL     1      25.154  45.729  51.452  1.00  0.00    -0.273 NA
HETATM   24  C   UNL     1      24.514  44.541  51.468  1.00  0.00     0.117 A 
HETATM   25  C   UNL     1      25.067  43.358  51.005  1.00  0.00     0.034 A 
ENDBRANCH   6  20
TORSDOF 4
ENDMDL
MODEL 2
REMARK VINA RESULT:      -7.8      1.871      2.452
REMARK  4 active torsions:
REMARK  status: ('A' for Active; 'I' for Inactive)
REMARK    1  A    between atoms: C_2  and  C_3 
REMARK    2  A    between atoms: C_3  and  N_4 
REMARK    3  A    between atoms: N_4  and  N_5 
REMARK    4  A    between atoms: C_10  and  C_11 
ROOT
HETATM    1  N   UNL     1      27.632  42.886  51.811  1.00  0.00    -0.231 N 
HETATM    2  C   UNL     1      27.377  41.637  51.274  1.00  0.00     0.211 A 
HETATM    3  S   UNL     1      28.417  40.386  50.958  1.00  0.00    -0.038 SA
HETATM    4  N   UNL     1      26.010  41.611  51.035  1.00  0.00    -0.250 N 
HETATM    5  N   UNL     1      25.430  42.785  51.434  1.00  0.00    -0.152 NA
HETATM    6  C   UNL     1      26.414  43.514  51.903  1.00  0.00     0.177 A 
HETATM    7  H   UNL     1      25.469  40.841  50.659  1.00  0.00     0.191 HD
ENDROOT
BRANCH   1   8
HETATM    8  N   UNL     1      28.896  43.344  52.200  1.00  0.00    -0.225 NA
HETATM    9  H   UNL     1      28.776  44.315  52.510  1.00  0.00     0.147 HD
BRANCH   8  10
HETATM   10  C   UNL     1      29.422  42.580  53.339  1.00  0.00     0.149 C 
BRANCH  10  11
HETATM   11  C   UNL     1      29.706  43.491  54.516  1.00  0.00    -0.041 A 
HETATM   12  C   UNL     1      29.070  44.752  54.607  1.00  0.00     0.011 A 
HETATM   13  C   UNL     1      29.323  45.612  55.682  1.00  0.00     0.040 A 
HETATM   14  C   UNL     1      30.215  45.191  56.645  1.00  0.00     0.105 A 
HETATM   15  C   UNL     1      30.834  43.967  56.571  1.00  0.00     0.105 A 
HETATM   16  O   UNL     1      30.588  45.897  57.745  1.00  0.00    -0.323 OA
HETATM   17  C   UNL     1      30.597  43.095  55.530  1.00  0.00     0.048 A 
HETATM   18  O   UNL     1      31.677  43.747  57.615  1.00  0.00    -0.323 OA
HETATM   19  C   UNL     1      31.527  44.982  58.347  1.00  0.00     0.352 A 
ENDBRANCH  10  11
ENDBRANCH   8  10
ENDBRANCH   1   8
BRANCH   6  20
HETATM   20  C   UNL     1      26.190  44.873  52.449  1.00  0.00     0.016 A 
HETATM   21  C   UNL     1      26.218  45.942  51.548  1.00  0.00     0.034 A 
HETATM   22  C   UNL     1      25.999  47.221  52.028  1.00  0.00     0.117 A 
HETATM   23  N   UNL     1      25.759  47.498  53.325  1.00  0.00    -0.273 NA
HETATM   24  C   UNL     1      25.716  46.449  54.174  1.00  0.00     0.117 A 
HETATM   25  C   UNL     1      25.912  45.133  53.788  1.00  0.00     0.034 A 
ENDBRANCH   6  20
TORSDOF 4
ENDMDL
MODEL 3
REMARK VINA RESULT:      -7.8     12.700     14.329
REMARK  4 active torsions:
REMARK  status: ('A' for Active; 'I' for Inactive)
REMARK    1  A    between atoms: C_2  and  C_3 
REMARK    2  A    between atoms: C_3  and  N_4 
REMARK    3  A    between atoms: N_4  and  N_5 
REMARK    4  A    between atoms: C_10  and  C_11 
ROOT
HETATM    1  N   UNL     1      28.441  50.044  40.447  1.00  0.00    -0.231 N 
HETATM    2  C   UNL     1      27.492  49.327  39.741  1.00  0.00     0.211 A 
HETATM    3  S   UNL     1      26.373  48.231  40.282  1.00  0.00    -0.038 SA
HETATM    4  N   UNL     1      27.647  49.714  38.417  1.00  0.00    -0.250 N 
HETATM    5  N   UNL     1      28.633  50.657  38.305  1.00  0.00    -0.152 NA
HETATM    6  C   UNL     1      29.074  50.843  39.525  1.00  0.00     0.177 A 
HETATM    7  H   UNL     1      27.104  49.402  37.621  1.00  0.00     0.191 HD
ENDROOT
BRANCH   1   8
HETATM    8  N   UNL     1      28.641  49.959  41.829  1.00  0.00    -0.225 NA
HETATM    9  H   UNL     1      27.722  49.782  42.251  1.00  0.00     0.147 HD
BRANCH   8  10
HETATM   10  C   UNL     1      29.513  48.831  42.182  1.00  0.00     0.149 C 
BRANCH  10  11
HETATM   11  C   UNL     1      30.971  49.238  42.127  1.00  0.00    -0.041 A 
HETATM   12  C   UNL     1      31.898  48.464  41.390  1.00  0.00     0.011 A 
HETATM   13  C   UNL     1      33.251  48.819  41.331  1.00  0.00     0.040 A 
HETATM   14  C   UNL     1      33.649  49.945  42.018  1.00  0.00     0.105 A 
HETATM   15  C   UNL     1      32.758  50.709  42.732  1.00  0.00     0.105 A 
HETATM   16  O   UNL     1      34.918  50.429  42.083  1.00  0.00    -0.323 OA
HETATM   17  C   UNL     1      31.419  50.389  42.800  1.00  0.00     0.048 A 
HETATM   18  O   UNL     1      33.353  51.770  43.338  1.00  0.00    -0.323 OA
HETATM   19  C   UNL     1      34.725  51.578  42.935  1.00  0.00     0.352 A 
ENDBRANCH  10  11
ENDBRANCH   8  10
ENDBRANCH   1   8
BRANCH   6  20
HETATM   20  C   UNL     1      30.156  51.809  39.829  1.00  0.00     0.016 A 
HETATM   21  C   UNL     1      31.418  51.557  39.283  1.00  0.00     0.034 A 
HETATM   22  C   UNL     1      32.443  52.451  39.540  1.00  0.00     0.117 A 
HETATM   23  N   UNL     1      32.293  53.559  40.292  1.00  0.00    -0.273 NA
HETATM   24  C   UNL     1      31.061  53.794  40.792  1.00  0.00     0.117 A 
HETATM   25  C   UNL     1      29.970  52.966  40.583  1.00  0.00     0.034 A 
ENDBRANCH   6  20
TORSDOF 4
ENDMDL
MODEL 4
REMARK VINA RESULT:      -7.7     12.803     14.296
REMARK  4 active torsions:
REMARK  status: ('A' for Active; 'I' for Inactive)
REMARK    1  A    between atoms: C_2  and  C_3 
REMARK    2  A    between atoms: C_3  and  N_4 
REMARK    3  A    between atoms: N_4  and  N_5 
REMARK    4  A    between atoms: C_10  and  C_11 
ROOT
HETATM    1  N   UNL     1      29.553  49.278  40.613  1.00  0.00    -0.231 N 
HETATM    2  C   UNL     1      28.838  48.309  39.932  1.00  0.00     0.211 A 
HETATM    3  S   UNL     1      28.061  46.963  40.508  1.00  0.00    -0.038 SA
HETATM    4  N   UNL     1      28.882  48.688  38.598  1.00  0.00    -0.250 N 
HETATM    5  N   UNL     1      29.572  49.862  38.454  1.00  0.00    -0.152 NA
HETATM    6  C   UNL     1      29.943  50.194  39.667  1.00  0.00     0.177 A 
HETATM    7  H   UNL     1      28.447  48.218  37.813  1.00  0.00     0.191 HD
ENDROOT
BRANCH   1   8
HETATM    8  N   UNL     1      29.766  49.288  41.996  1.00  0.00    -0.225 NA
HETATM    9  H   UNL     1      28.989  48.769  42.420  1.00  0.00     0.147 HD
BRANCH   8  10
HETATM   10  C   UNL     1      31.010  48.593  42.357  1.00  0.00     0.149 C 
BRANCH  10  11
HETATM   11  C   UNL     1      32.151  49.576  42.516  1.00  0.00    -0.041 A 
HETATM   12  C   UNL     1      32.009  50.697  43.369  1.00  0.00     0.011 A 
HETATM   13  C   UNL     1      33.048  51.621  43.525  1.00  0.00     0.040 A 
HETATM   14  C   UNL     1      34.211  51.405  42.819  1.00  0.00     0.105 A 
HETATM   15  C   UNL     1      34.364  50.317  41.993  1.00  0.00     0.105 A 
HETATM   16  O   UNL     1      35.313  52.201  42.839  1.00  0.00    -0.323 OA
HETATM   17  C   UNL     1      33.362  49.385  41.827  1.00  0.00     0.048 A 
HETATM   18  O   UNL     1      35.581  50.292  41.388  1.00  0.00    -0.323 OA
HETATM   19  C   UNL     1      36.172  51.498  41.917  1.00  0.00     0.352 A 
ENDBRANCH  10  11
ENDBRANCH   8  10
ENDBRANCH   1   8
BRANCH   6  20
HETATM   20  C   UNL     1      30.718  51.428  39.938  1.00  0.00     0.016 A 
HETATM   21  C   UNL     1      32.000  51.519  39.388  1.00  0.00     0.034 A 
HETATM   22  C   UNL     1      32.740  52.666  39.614  1.00  0.00     0.117 A 
HETATM   23  N   UNL     1      32.292  53.708  40.342  1.00  0.00    -0.273 NA
HETATM   24  C   UNL     1      31.044  53.608  40.847  1.00  0.00     0.117 A 
HETATM   25  C   UNL     1      30.223  52.507  40.667  1.00  0.00     0.034 A 
ENDBRANCH   6  20
TORSDOF 4
ENDMDL
MODEL 5
REMARK VINA RESULT:      -7.6      3.235      5.652
REMARK  4 active torsions:
REMARK  status: ('A' for Active; 'I' for Inactive)
REMARK    1  A    between atoms: C_2  and  C_3 
REMARK    2  A    between atoms: C_3  and  N_4 
REMARK    3  A    between atoms: N_4  and  N_5 
REMARK    4  A    between atoms: C_10  and  C_11 
ROOT
HETATM    1  N   UNL     1      28.049  42.600  51.861  1.00  0.00    -0.231 N 
HETATM    2  C   UNL     1      27.864  41.375  51.248  1.00  0.00     0.211 A 
HETATM    3  S   UNL     1      27.285  41.023  49.735  1.00  0.00    -0.038 SA
HETATM    4  N   UNL     1      28.277  40.431  52.177  1.00  0.00    -0.250 N 
HETATM    5  N   UNL     1      28.730  41.043  53.315  1.00  0.00    -0.152 NA
HETATM    6  C   UNL     1      28.597  42.328  53.091  1.00  0.00     0.177 A 
HETATM    7  H   UNL     1      28.297  39.425  52.060  1.00  0.00     0.191 HD
ENDROOT
BRANCH   1   8
HETATM    8  N   UNL     1      27.756  43.838  51.278  1.00  0.00    -0.225 NA
HETATM    9  H   UNL     1      28.019  43.769  50.289  1.00  0.00     0.147 HD
BRANCH   8  10
HETATM   10  C   UNL     1      26.317  44.135  51.332  1.00  0.00     0.149 C 
BRANCH  10  11
HETATM   11  C   UNL     1      26.028  45.507  50.760  1.00  0.00    -0.041 A 
HETATM   12  C   UNL     1      24.757  46.102  50.947  1.00  0.00     0.011 A 
HETATM   13  C   UNL     1      24.467  47.366  50.421  1.00  0.00     0.040 A 
HETATM   14  C   UNL     1      25.458  48.010  49.714  1.00  0.00     0.105 A 
HETATM   15  C   UNL     1      26.698  47.447  49.531  1.00  0.00     0.105 A 
HETATM   16  O   UNL     1      25.350  49.231  49.126  1.00  0.00    -0.323 OA
HETATM   17  C   UNL     1      27.016  46.208  50.045  1.00  0.00     0.048 A 
HETATM   18  O   UNL     1      27.527  48.242  48.803  1.00  0.00    -0.323 OA
HETATM   19  C   UNL     1      26.660  49.364  48.536  1.00  0.00     0.352 A 
ENDBRANCH  10  11
ENDBRANCH   8  10
ENDBRANCH   1   8
BRANCH   6  20
HETATM   20  C   UNL     1      28.992  43.343  54.097  1.00  0.00     0.016 A 
HETATM   21  C   UNL     1      30.254  43.212  54.683  1.00  0.00     0.034 A 
HETATM   22  C   UNL     1      30.654  44.154  55.616  1.00  0.00     0.117 A 
HETATM   23  N   UNL     1      29.889  45.197  55.994  1.00  0.00    -0.273 NA
HETATM   24  C   UNL     1      28.683  45.315  55.401  1.00  0.00     0.117 A 
HETATM   25  C   UNL     1      28.198  44.431  54.450  1.00  0.00     0.034 A 
ENDBRANCH   6  20
TORSDOF 4
ENDMDL
MODEL 6
REMARK VINA RESULT:      -7.6     12.651     14.318
REMARK  4 active torsions:
REMARK  status: ('A' for Active; 'I' for Inactive)
REMARK    1  A    between atoms: C_2  and  C_3 
REMARK    2  A    between atoms: C_3  and  N_4 
REMARK    3  A    between atoms: N_4  and  N_5 
REMARK    4  A    between atoms: C_10  and  C_11 
ROOT
HETATM    1  N   UNL     1      26.704  49.729  39.845  1.00  0.00    -0.231 N 
HETATM    2  C   UNL     1      25.634  49.283  39.091  1.00  0.00     0.211 A 
HETATM    3  S   UNL     1      24.427  48.219  39.489  1.00  0.00    -0.038 SA
HETATM    4  N   UNL     1      25.753  49.926  37.867  1.00  0.00    -0.250 N 
HETATM    5  N   UNL     1      26.836  50.763  37.867  1.00  0.00    -0.152 NA
HETATM    6  C   UNL     1      27.371  50.635  39.057  1.00  0.00     0.177 A 
HETATM    7  H   UNL     1      25.128  49.850  37.073  1.00  0.00     0.191 HD
ENDROOT
BRANCH   1   8
HETATM    8  N   UNL     1      26.978  49.329  41.158  1.00  0.00    -0.225 NA
HETATM    9  H   UNL     1      26.074  49.138  41.604  1.00  0.00     0.147 HD
BRANCH   8  10
HETATM   10  C   UNL     1      27.759  48.085  41.194  1.00  0.00     0.149 C 
BRANCH  10  11
HETATM   11  C   UNL     1      29.244  48.380  41.184  1.00  0.00    -0.041 A 
HETATM   12  C   UNL     1      30.094  47.716  40.267  1.00  0.00     0.011 A 
HETATM   13  C   UNL     1      31.471  47.969  40.245  1.00  0.00     0.040 A 
HETATM   14  C   UNL     1      31.970  48.883  41.147  1.00  0.00     0.105 A 
HETATM   15  C   UNL     1      31.155  49.538  42.038  1.00  0.00     0.105 A 
HETATM   16  O   UNL     1      33.275  49.241  41.276  1.00  0.00    -0.323 OA
HETATM   17  C   UNL     1      29.795  49.317  42.076  1.00  0.00     0.048 A 
HETATM   18  O   UNL     1      31.844  50.392  42.841  1.00  0.00    -0.323 OA
HETATM   19  C   UNL     1      33.190  50.186  42.363  1.00  0.00     0.352 A 
ENDBRANCH  10  11
ENDBRANCH   8  10
ENDBRANCH   1   8
BRANCH   6  20
HETATM   20  C   UNL     1      28.578  51.396  39.459  1.00  0.00     0.016 A 
HETATM   21  C   UNL     1      29.762  51.140  38.762  1.00  0.00     0.034 A 
HETATM   22  C   UNL     1      30.901  51.846  39.108  1.00  0.00     0.117 A 
HETATM   23  N   UNL     1      30.934  52.772  40.086  1.00  0.00    -0.273 NA
HETATM   24  C   UNL     1      29.774  53.018  40.732  1.00  0.00     0.117 A 
HETATM   25  C   UNL     1      28.581  52.373  40.452  1.00  0.00     0.034 A 
ENDBRANCH   6  20
TORSDOF 4
ENDMDL
MODEL 7
REMARK VINA RESULT:      -7.6      3.425      5.710
REMARK  4 active torsions:
REMARK  status: ('A' for Active; 'I' for Inactive)
REMARK    1  A    between atoms: C_2  and  C_3 
REMARK    2  A    between atoms: C_3  and  N_4 
REMARK    3  A    between atoms: N_4  and  N_5 
REMARK    4  A    between atoms: C_10  and  C_11 
ROOT
HETATM    1  N   UNL     1      27.619  43.403  52.388  1.00  0.00    -0.231 N 
HETATM    2  C   UNL     1      27.664  42.021  52.432  1.00  0.00     0.211 A 
HETATM    3  S   UNL     1      27.957  40.931  51.218  1.00  0.00    -0.038 SA
HETATM    4  N   UNL     1      27.410  41.686  53.754  1.00  0.00    -0.250 N 
HETATM    5  N   UNL     1      27.243  42.813  54.512  1.00  0.00    -0.152 NA
HETATM    6  C   UNL     1      27.387  43.814  53.678  1.00  0.00     0.177 A 
HETATM    7  H   UNL     1      27.384  40.756  54.155  1.00  0.00     0.191 HD
ENDROOT
BRANCH   1   8
HETATM    8  N   UNL     1      27.819  44.172  51.237  1.00  0.00    -0.225 NA
HETATM    9  H   UNL     1      28.544  43.700  50.686  1.00  0.00     0.147 HD
BRANCH   8  10
HETATM   10  C   UNL     1      26.606  44.232  50.408  1.00  0.00     0.149 C 
BRANCH  10  11
HETATM   11  C   UNL     1      26.241  45.667  50.089  1.00  0.00    -0.041 A 
HETATM   12  C   UNL     1      24.921  46.129  50.304  1.00  0.00     0.011 A 
HETATM   13  C   UNL     1      24.561  47.449  50.010  1.00  0.00     0.040 A 
HETATM   14  C   UNL     1      25.534  48.281  49.500  1.00  0.00     0.105 A 
HETATM   15  C   UNL     1      26.820  47.847  49.292  1.00  0.00     0.105 A 
HETATM   16  O   UNL     1      25.361  49.583  49.147  1.00  0.00    -0.323 OA
HETATM   17  C   UNL     1      27.206  46.556  49.582  1.00  0.00     0.048 A 
HETATM   18  O   UNL     1      27.621  48.820  48.781  1.00  0.00    -0.323 OA
HETATM   19  C   UNL     1      26.685  49.913  48.677  1.00  0.00     0.352 A 
ENDBRANCH  10  11
ENDBRANCH   8  10
ENDBRANCH   1   8
BRANCH   6  20
HETATM   20  C   UNL     1      27.284  45.225  54.122  1.00  0.00     0.016 A 
HETATM   21  C   UNL     1      26.096  45.904  53.841  1.00  0.00     0.034 A 
HETATM   22  C   UNL     1      25.968  47.218  54.256  1.00  0.00     0.117 A 
HETATM   23  N   UNL     1      26.931  47.885  54.921  1.00  0.00    -0.273 NA
HETATM   24  C   UNL     1      28.062  47.204  55.200  1.00  0.00     0.117 A 
HETATM   25  C   UNL     1      28.281  45.885  54.837  1.00  0.00     0.034 A 
ENDBRANCH   6  20
TORSDOF 4
ENDMDL
MODEL 8
REMARK VINA RESULT:      -7.5     13.136     14.598
REMARK  4 active torsions:
REMARK  status: ('A' for Active; 'I' for Inactive)
REMARK    1  A    between atoms: C_2  and  C_3 
REMARK    2  A    between atoms: C_3  and  N_4 
REMARK    3  A    between atoms: N_4  and  N_5 
REMARK    4  A    between atoms: C_10  and  C_11 
ROOT
HETATM    1  N   UNL     1      27.812  48.934  38.747  1.00  0.00    -0.231 N 
HETATM    2  C   UNL     1      27.029  48.237  37.845  1.00  0.00     0.211 A 
HETATM    3  S   UNL     1      26.957  46.608  37.541  1.00  0.00    -0.038 SA
HETATM    4  N   UNL     1      26.263  49.198  37.202  1.00  0.00    -0.250 N 
HETATM    5  N   UNL     1      26.534  50.442  37.702  1.00  0.00    -0.152 NA
HETATM    6  C   UNL     1      27.444  50.252  38.626  1.00  0.00     0.177 A 
HETATM    7  H   UNL     1      25.561  49.043  36.488  1.00  0.00     0.191 HD
ENDROOT
BRANCH   1   8
HETATM    8  N   UNL     1      28.745  48.352  39.612  1.00  0.00    -0.225 NA
HETATM    9  H   UNL     1      28.543  47.346  39.633  1.00  0.00     0.147 HD
BRANCH   8  10
HETATM   10  C   UNL     1      30.119  48.514  39.115  1.00  0.00     0.149 C 
BRANCH  10  11
HETATM   11  C   UNL     1      30.899  49.474  39.990  1.00  0.00    -0.041 A 
HETATM   12  C   UNL     1      31.626  50.539  39.404  1.00  0.00     0.011 A 
HETATM   13  C   UNL     1      32.358  51.433  40.193  1.00  0.00     0.040 A 
HETATM   14  C   UNL     1      32.350  51.240  41.557  1.00  0.00     0.105 A 
HETATM   15  C   UNL     1      31.644  50.215  42.138  1.00  0.00     0.105 A 
HETATM   16  O   UNL     1      33.011  51.999  42.471  1.00  0.00    -0.323 OA
HETATM   17  C   UNL     1      30.906  49.325  41.388  1.00  0.00     0.048 A 
HETATM   18  O   UNL     1      31.772  50.198  43.492  1.00  0.00    -0.323 OA
HETATM   19  C   UNL     1      32.653  51.323  43.694  1.00  0.00     0.352 A 
ENDBRANCH  10  11
ENDBRANCH   8  10
ENDBRANCH   1   8
BRANCH   6  20
HETATM   20  C   UNL     1      28.002  51.373  39.419  1.00  0.00     0.016 A 
HETATM   21  C   UNL     1      28.660  52.391  38.722  1.00  0.00     0.034 A 
HETATM   22  C   UNL     1      29.179  53.457  39.436  1.00  0.00     0.117 A 
HETATM   23  N   UNL     1      29.086  53.570  40.775  1.00  0.00    -0.273 NA
HETATM   24  C   UNL     1      28.429  52.587  41.426  1.00  0.00     0.117 A 
HETATM   25  C   UNL     1      27.867  51.487  40.800  1.00  0.00     0.034 A 
ENDBRANCH   6  20
TORSDOF 4
ENDMDL
MODEL 9
REMARK VINA RESULT:      -7.5      5.128      7.188
REMARK  4 active torsions:
REMARK  status: ('A' for Active; 'I' for Inactive)
REMARK    1  A    between atoms: C_2  and  C_3 
REMARK    2  A    between atoms: C_3  and  N_4 
REMARK    3  A    between atoms: N_4  and  N_5 
REMARK    4  A    between atoms: C_10  and  C_11 
ROOT
HETATM    1  N   UNL     1      24.594  49.062  49.171  1.00  0.00    -0.231 N 
HETATM    2  C   UNL     1      25.908  49.236  48.774  1.00  0.00     0.211 A 
HETATM    3  S   UNL     1      27.300  48.594  49.407  1.00  0.00    -0.038 SA
HETATM    4  N   UNL     1      25.854  50.090  47.683  1.00  0.00    -0.250 N 
HETATM    5  N   UNL     1      24.557  50.415  47.390  1.00  0.00    -0.152 NA
HETATM    6  C   UNL     1      23.833  49.779  48.279  1.00  0.00     0.177 A 
HETATM    7  H   UNL     1      26.633  50.421  47.126  1.00  0.00     0.191 HD
ENDROOT
BRANCH   1   8
HETATM    8  N   UNL     1      24.183  48.270  50.249  1.00  0.00    -0.225 NA
HETATM    9  H   UNL     1      23.230  48.566  50.487  1.00  0.00     0.147 HD
BRANCH   8  10
HETATM   10  C   UNL     1      24.126  46.847  49.884  1.00  0.00     0.149 C 
BRANCH  10  11
HETATM   11  C   UNL     1      24.741  45.988  50.969  1.00  0.00    -0.041 A 
HETATM   12  C   UNL     1      24.532  44.588  50.970  1.00  0.00     0.011 A 
HETATM   13  C   UNL     1      25.086  43.776  51.967  1.00  0.00     0.040 A 
HETATM   14  C   UNL     1      25.838  44.386  52.947  1.00  0.00     0.105 A 
HETATM   15  C   UNL     1      26.054  45.742  52.953  1.00  0.00     0.105 A 
HETATM   16  O   UNL     1      26.438  43.759  53.993  1.00  0.00    -0.323 OA
HETATM   17  C   UNL     1      25.529  46.566  51.980  1.00  0.00     0.048 A 
HETATM   18  O   UNL     1      26.816  46.142  54.006  1.00  0.00    -0.323 OA
HETATM   19  C   UNL     1      27.043  44.881  54.670  1.00  0.00     0.352 A 
ENDBRANCH  10  11
ENDBRANCH   8  10
ENDBRANCH   1   8
BRANCH   6  20
HETATM   20  C   UNL     1      22.354  49.868  48.294  1.00  0.00     0.016 A 
HETATM   21  C   UNL     1      21.785  51.093  48.654  1.00  0.00     0.034 A 
HETATM   22  C   UNL     1      20.406  51.208  48.662  1.00  0.00     0.117 A 
HETATM   23  N   UNL     1      19.573  50.197  48.343  1.00  0.00    -0.273 NA
HETATM   24  C   UNL     1      20.144  49.030  47.978  1.00  0.00     0.117 A 
HETATM   25  C   UNL     1      21.512  48.820  47.928  1.00  0.00     0.034 A 
ENDBRANCH   6  20
TORSDOF 4
ENDMDL
MODEL 10
REMARK VINA RESULT:      -7.5     14.407     16.270
REMARK  4 active torsions:
REMARK  status: ('A' for Active; 'I' for Inactive)
REMARK    1  A    between atoms: C_2  and  C_3 
REMARK    2  A    between atoms: C_3  and  N_4 
REMARK    3  A    between atoms: N_4  and  N_5 
REMARK    4  A    between atoms: C_10  and  C_11 
ROOT
HETATM    1  N   UNL     1      35.564  51.011  39.961  1.00  0.00    -0.231 N 
HETATM    2  C   UNL     1      36.922  51.055  39.702  1.00  0.00     0.211 A 
HETATM    3  S   UNL     1      37.723  51.471  38.311  1.00  0.00    -0.038 SA
HETATM    4  N   UNL     1      37.536  50.671  40.885  1.00  0.00    -0.250 N 
HETATM    5  N   UNL     1      36.601  50.426  41.854  1.00  0.00    -0.152 NA
HETATM    6  C   UNL     1      35.443  50.650  41.281  1.00  0.00     0.177 A 
HETATM    7  H   UNL     1      38.530  50.607  41.066  1.00  0.00     0.191 HD
ENDROOT
BRANCH   1   8
HETATM    8  N   UNL     1      34.564  51.323  39.034  1.00  0.00    -0.225 NA
HETATM    9  H   UNL     1      33.855  50.584  39.103  1.00  0.00     0.147 HD
BRANCH   8  10
HETATM   10  C   UNL     1      33.905  52.597  39.354  1.00  0.00     0.149 C 
BRANCH  10  11
HETATM   11  C   UNL     1      32.403  52.421  39.440  1.00  0.00    -0.041 A 
HETATM   12  C   UNL     1      31.678  53.016  40.500  1.00  0.00     0.011 A 
HETATM   13  C   UNL     1      30.291  52.860  40.602  1.00  0.00     0.040 A 
HETATM   14  C   UNL     1      29.657  52.107  39.638  1.00  0.00     0.105 A 
HETATM   15  C   UNL     1      30.348  51.531  38.601  1.00  0.00     0.105 A 
HETATM   16  O   UNL     1      28.324  51.842  39.586  1.00  0.00    -0.323 OA
HETATM   17  C   UNL     1      31.713  51.675  38.469  1.00  0.00     0.048 A 
HETATM   18  O   UNL     1      29.539  50.828  37.764  1.00  0.00    -0.323 OA
HETATM   19  C   UNL     1      28.259  51.017  38.404  1.00  0.00     0.352 A 
ENDBRANCH  10  11
ENDBRANCH   8  10
ENDBRANCH   1   8
BRANCH   6  20
HETATM   20  C   UNL     1      34.164  50.499  42.014  1.00  0.00     0.016 A 
HETATM   21  C   UNL     1      33.886  51.424  43.024  1.00  0.00     0.034 A 
HETATM   22  C   UNL     1      32.693  51.315  43.716  1.00  0.00     0.117 A 
HETATM   23  N   UNL     1      31.775  50.359  43.469  1.00  0.00    -0.273 NA
HETATM   24  C   UNL     1      32.054  49.489  42.476  1.00  0.00     0.117 A 
HETATM   25  C   UNL     1      33.215  49.523  41.721  1.00  0.00     0.034 A 
ENDBRANCH   6  20
TORSDOF 4
ENDMDL
