MODEL 1
REMARK VINA RESULT:      -8.7      0.000      0.000
REMARK  6 active torsions:
REMARK  status: ('A' for Active; 'I' for Inactive)
REMARK    1  A    between atoms: N_2  and  C_4 
REMARK    2  A    between atoms: N_2  and  C_16 
REMARK    3  A    between atoms: C_4  and  C_5 
REMARK       I    between atoms: C_5  and  N_6 
REMARK    4  A    between atoms: N_6  and  C_7 
REMARK    5  A    between atoms: C_16  and  C_17 
REMARK    6  A    between atoms: C_18  and  C_19 
ROOT
HETATM    1  C   UNL     1      25.775  47.071  52.778  1.00  0.00     0.270 C 
HETATM    2  N   UNL     1      26.050  46.706  51.346  1.00  0.00    -0.063 N 
HETATM    3  H   UNL     1      26.959  47.119  51.104  1.00  0.00     0.280 HD
ENDROOT
BRANCH   2   4
HETATM    4  C   UNL     1      26.212  45.190  51.149  1.00  0.00     0.337 C 
BRANCH   4   5
HETATM    5  C   UNL     1      25.499  44.306  52.169  1.00  0.00     0.248 C 
HETATM    6  N   UNL     1      26.160  43.701  53.196  1.00  0.00    -0.326 N 
HETATM    7  H   UNL     1      25.506  43.175  53.773  1.00  0.00     0.169 HD
HETATM    8  O   UNL     1      24.281  44.119  52.085  1.00  0.00    -0.271 OA
BRANCH   6   9
HETATM    9  C   UNL     1      27.502  43.657  53.624  1.00  0.00     0.040 A 
HETATM   10  C   UNL     1      28.508  42.850  53.095  1.00  0.00     0.072 A 
HETATM   11  C   UNL     1      29.807  42.919  53.611  1.00  0.00     0.121 A 
HETATM   12  F   UNL     1      30.753  42.135  53.075  1.00  0.00    -0.206 F 
HETATM   13  C   UNL     1      30.136  43.768  54.653  1.00  0.00     0.084 A 
HETATM   14  C   UNL     1      29.136  44.559  55.187  1.00  0.00     0.121 A 
HETATM   15  F   UNL     1      29.417  45.389  56.198  1.00  0.00    -0.206 F 
HETATM   16  C   UNL     1      27.833  44.510  54.688  1.00  0.00     0.072 A 
ENDBRANCH   6   9
ENDBRANCH   4   5
ENDBRANCH   2   4
BRANCH   2  17
HETATM   17  C   UNL     1      25.055  47.329  50.387  1.00  0.00     0.277 C 
BRANCH  17  18
HETATM   18  C   UNL     1      25.684  48.315  49.467  1.00  0.00     0.016 A 
HETATM   19  C   UNL     1      25.093  49.330  48.656  1.00  0.00     0.103 A 
HETATM   20  N   UNL     1      26.027  50.000  47.969  1.00  0.00    -0.173 NA
HETATM   21  N   UNL     1      27.192  49.474  48.354  1.00  0.00    -0.288 N 
HETATM   22  H   UNL     1      28.050  49.865  47.969  1.00  0.00     0.188 HD
HETATM   23  C   UNL     1      27.044  48.446  49.235  1.00  0.00     0.120 A 
BRANCH  19  24
HETATM   24  C   UNL     1      23.639  49.698  48.476  1.00  0.00     0.035 A 
HETATM   25  S   UNL     1      22.370  48.626  48.078  1.00  0.00    -0.100 SA
HETATM   26  C   UNL     1      21.200  49.870  48.112  1.00  0.00     0.050 A 
HETATM   27  C   UNL     1      21.763  51.090  48.409  1.00  0.00     0.008 A 
HETATM   28  C   UNL     1      23.169  50.991  48.614  1.00  0.00     0.022 A 
ENDBRANCH  19  24
ENDBRANCH  17  18
ENDBRANCH   2  17
TORSDOF 6
ENDMDL
MODEL 2
REMARK VINA RESULT:      -8.4      1.589      1.884
REMARK  6 active torsions:
REMARK  status: ('A' for Active; 'I' for Inactive)
REMARK    1  A    between atoms: N_2  and  C_4 
REMARK    2  A    between atoms: N_2  and  C_16 
REMARK    3  A    between atoms: C_4  and  C_5 
REMARK       I    between atoms: C_5  and  N_6 
REMARK    4  A    between atoms: N_6  and  C_7 
REMARK    5  A    between atoms: C_16  and  C_17 
REMARK    6  A    between atoms: C_18  and  C_19 
ROOT
HETATM    1  C   UNL     1      24.796  45.499  51.625  1.00  0.00     0.270 C 
HETATM    2  N   UNL     1      25.508  46.763  51.230  1.00  0.00    -0.063 N 
HETATM    3  H   UNL     1      24.800  47.508  51.212  1.00  0.00     0.280 HD
ENDROOT
BRANCH   2   4
HETATM    4  C   UNL     1      26.551  47.199  52.271  1.00  0.00     0.337 C 
BRANCH   4   5
HETATM    5  C   UNL     1      26.076  47.218  53.722  1.00  0.00     0.248 C 
HETATM    6  N   UNL     1      26.486  46.291  54.634  1.00  0.00    -0.326 N 
HETATM    7  H   UNL     1      26.074  46.489  55.544  1.00  0.00     0.169 HD
HETATM    8  O   UNL     1      25.296  48.094  54.108  1.00  0.00    -0.271 OA
BRANCH   6   9
HETATM    9  C   UNL     1      27.335  45.168  54.595  1.00  0.00     0.040 A 
HETATM   10  C   UNL     1      26.989  43.890  54.156  1.00  0.00     0.072 A 
HETATM   11  C   UNL     1      27.942  42.865  54.159  1.00  0.00     0.121 A 
HETATM   12  F   UNL     1      27.580  41.651  53.724  1.00  0.00    -0.206 F 
HETATM   13  C   UNL     1      29.238  43.072  54.599  1.00  0.00     0.084 A 
HETATM   14  C   UNL     1      29.578  44.336  55.047  1.00  0.00     0.121 A 
HETATM   15  F   UNL     1      30.821  44.571  55.482  1.00  0.00    -0.206 F 
HETATM   16  C   UNL     1      28.646  45.375  55.050  1.00  0.00     0.072 A 
ENDBRANCH   6   9
ENDBRANCH   4   5
ENDBRANCH   2   4
BRANCH   2  17
HETATM   17  C   UNL     1      26.063  46.698  49.820  1.00  0.00     0.277 C 
BRANCH  17  18
HETATM   18  C   UNL     1      26.484  48.030  49.308  1.00  0.00     0.016 A 
HETATM   19  C   UNL     1      25.702  49.147  48.884  1.00  0.00     0.103 A 
HETATM   20  N   UNL     1      26.485  50.159  48.488  1.00  0.00    -0.173 NA
HETATM   21  N   UNL     1      27.735  49.737  48.692  1.00  0.00    -0.288 N 
HETATM   22  H   UNL     1      28.501  50.375  48.482  1.00  0.00     0.188 HD
HETATM   23  C   UNL     1      27.793  48.461  49.162  1.00  0.00     0.120 A 
BRANCH  19  24
HETATM   24  C   UNL     1      24.201  49.303  48.812  1.00  0.00     0.035 A 
HETATM   25  S   UNL     1      23.055  48.037  48.809  1.00  0.00    -0.100 SA
HETATM   26  C   UNL     1      21.738  49.121  48.725  1.00  0.00     0.050 A 
HETATM   27  C   UNL     1      22.157  50.431  48.687  1.00  0.00     0.008 A 
HETATM   28  C   UNL     1      23.578  50.535  48.733  1.00  0.00     0.022 A 
ENDBRANCH  19  24
ENDBRANCH  17  18
ENDBRANCH   2  17
TORSDOF 6
ENDMDL
MODEL 3
REMARK VINA RESULT:      -8.2      0.900      1.965
REMARK  6 active torsions:
REMARK  status: ('A' for Active; 'I' for Inactive)
REMARK    1  A    between atoms: N_2  and  C_4 
REMARK    2  A    between atoms: N_2  and  C_16 
REMARK    3  A    between atoms: C_4  and  C_5 
REMARK       I    between atoms: C_5  and  N_6 
REMARK    4  A    between atoms: N_6  and  C_7 
REMARK    5  A    between atoms: C_16  and  C_17 
REMARK    6  A    between atoms: C_18  and  C_19 
ROOT
HETATM    1  C   UNL     1      25.827  47.300  53.085  1.00  0.00     0.270 C 
HETATM    2  N   UNL     1      26.208  46.833  51.708  1.00  0.00    -0.063 N 
HETATM    3  H   UNL     1      27.088  47.307  51.468  1.00  0.00     0.280 HD
ENDROOT
BRANCH   2   4
HETATM    4  C   UNL     1      26.516  45.327  51.663  1.00  0.00     0.337 C 
BRANCH   4   5
HETATM    5  C   UNL     1      25.794  44.470  52.698  1.00  0.00     0.248 C 
HETATM    6  N   UNL     1      26.382  44.089  53.867  1.00  0.00    -0.326 N 
HETATM    7  H   UNL     1      25.731  43.541  54.426  1.00  0.00     0.169 HD
HETATM    8  O   UNL     1      24.633  44.096  52.495  1.00  0.00    -0.271 OA
BRANCH   6   9
HETATM    9  C   UNL     1      27.647  44.293  54.454  1.00  0.00     0.040 A 
HETATM   10  C   UNL     1      27.978  45.292  55.369  1.00  0.00     0.072 A 
HETATM   11  C   UNL     1      29.276  45.370  55.884  1.00  0.00     0.121 A 
HETATM   12  F   UNL     1      29.560  46.338  56.767  1.00  0.00    -0.206 F 
HETATM   13  C   UNL     1      30.267  44.480  55.508  1.00  0.00     0.084 A 
HETATM   14  C   UNL     1      29.943  43.497  54.591  1.00  0.00     0.121 A 
HETATM   15  F   UNL     1      30.877  42.622  54.201  1.00  0.00    -0.206 F 
HETATM   16  C   UNL     1      28.655  43.398  54.065  1.00  0.00     0.072 A 
ENDBRANCH   6   9
ENDBRANCH   4   5
ENDBRANCH   2   4
BRANCH   2  17
HETATM   17  C   UNL     1      25.212  47.270  50.651  1.00  0.00     0.277 C 
BRANCH  17  18
HETATM   18  C   UNL     1      25.799  48.220  49.668  1.00  0.00     0.016 A 
HETATM   19  C   UNL     1      25.164  49.149  48.788  1.00  0.00     0.103 A 
HETATM   20  N   UNL     1      26.069  49.815  48.059  1.00  0.00    -0.173 NA
HETATM   21  N   UNL     1      27.256  49.372  48.481  1.00  0.00    -0.288 N 
HETATM   22  H   UNL     1      28.096  49.777  48.073  1.00  0.00     0.188 HD
HETATM   23  C   UNL     1      27.152  48.401  49.430  1.00  0.00     0.120 A 
BRANCH  19  24
HETATM   24  C   UNL     1      23.695  49.433  48.580  1.00  0.00     0.035 A 
HETATM   25  S   UNL     1      22.916  50.934  48.814  1.00  0.00    -0.100 SA
HETATM   26  C   UNL     1      21.396  50.310  48.348  1.00  0.00     0.050 A 
HETATM   27  C   UNL     1      21.471  48.973  48.030  1.00  0.00     0.008 A 
HETATM   28  C   UNL     1      22.796  48.467  48.167  1.00  0.00     0.022 A 
ENDBRANCH  19  24
ENDBRANCH  17  18
ENDBRANCH   2  17
TORSDOF 6
ENDMDL
MODEL 4
REMARK VINA RESULT:      -8.1     11.550     13.591
REMARK  6 active torsions:
REMARK  status: ('A' for Active; 'I' for Inactive)
REMARK    1  A    between atoms: N_2  and  C_4 
REMARK    2  A    between atoms: N_2  and  C_16 
REMARK    3  A    between atoms: C_4  and  C_5 
REMARK       I    between atoms: C_5  and  N_6 
REMARK    4  A    between atoms: N_6  and  C_7 
REMARK    5  A    between atoms: C_16  and  C_17 
REMARK    6  A    between atoms: C_18  and  C_19 
ROOT
HETATM    1  C   UNL     1      29.553  46.598  39.764  1.00  0.00     0.270 C 
HETATM    2  N   UNL     1      29.367  47.959  40.373  1.00  0.00    -0.063 N 
HETATM    3  H   UNL     1      29.129  48.598  39.605  1.00  0.00     0.280 HD
ENDROOT
BRANCH   2   4
HETATM    4  C   UNL     1      28.177  48.009  41.345  1.00  0.00     0.337 C 
BRANCH   4   5
HETATM    5  C   UNL     1      26.845  48.448  40.744  1.00  0.00     0.248 C 
HETATM    6  N   UNL     1      26.668  49.679  40.186  1.00  0.00    -0.326 N 
HETATM    7  H   UNL     1      25.720  49.768  39.826  1.00  0.00     0.169 HD
HETATM    8  O   UNL     1      25.878  47.678  40.749  1.00  0.00    -0.271 OA
BRANCH   6   9
HETATM    9  C   UNL     1      27.488  50.808  39.995  1.00  0.00     0.040 A 
HETATM   10  C   UNL     1      27.838  51.372  38.769  1.00  0.00     0.072 A 
HETATM   11  C   UNL     1      28.653  52.510  38.726  1.00  0.00     0.121 A 
HETATM   12  F   UNL     1      28.965  53.031  37.532  1.00  0.00    -0.206 F 
HETATM   13  C   UNL     1      29.141  53.103  39.877  1.00  0.00     0.084 A 
HETATM   14  C   UNL     1      28.805  52.537  41.093  1.00  0.00     0.121 A 
HETATM   15  F   UNL     1      29.262  53.082  42.226  1.00  0.00    -0.206 F 
HETATM   16  C   UNL     1      27.992  51.405  41.161  1.00  0.00     0.072 A 
ENDBRANCH   6   9
ENDBRANCH   4   5
ENDBRANCH   2   4
BRANCH   2  17
HETATM   17  C   UNL     1      30.649  48.506  40.971  1.00  0.00     0.277 C 
BRANCH  17  18
HETATM   18  C   UNL     1      31.252  49.586  40.145  1.00  0.00     0.016 A 
HETATM   19  C   UNL     1      32.083  50.684  40.524  1.00  0.00     0.103 A 
HETATM   20  N   UNL     1      32.405  51.431  39.460  1.00  0.00    -0.173 NA
HETATM   21  N   UNL     1      31.844  50.817  38.416  1.00  0.00    -0.288 N 
HETATM   22  H   UNL     1      31.993  51.208  37.487  1.00  0.00     0.188 HD
HETATM   23  C   UNL     1      31.124  49.718  38.772  1.00  0.00     0.120 A 
BRANCH  19  24
HETATM   24  C   UNL     1      32.588  51.088  41.889  1.00  0.00     0.035 A 
HETATM   25  S   UNL     1      34.222  51.299  42.337  1.00  0.00    -0.100 SA
HETATM   26  C   UNL     1      33.812  51.733  43.937  1.00  0.00     0.050 A 
HETATM   27  C   UNL     1      32.451  51.707  44.139  1.00  0.00     0.008 A 
HETATM   28  C   UNL     1      31.746  51.331  42.959  1.00  0.00     0.022 A 
ENDBRANCH  19  24
ENDBRANCH  17  18
ENDBRANCH   2  17
TORSDOF 6
ENDMDL
MODEL 5
REMARK VINA RESULT:      -7.9      4.382      8.022
REMARK  6 active torsions:
REMARK  status: ('A' for Active; 'I' for Inactive)
REMARK    1  A    between atoms: N_2  and  C_4 
REMARK    2  A    between atoms: N_2  and  C_16 
REMARK    3  A    between atoms: C_4  and  C_5 
REMARK       I    between atoms: C_5  and  N_6 
REMARK    4  A    between atoms: N_6  and  C_7 
REMARK    5  A    between atoms: C_16  and  C_17 
REMARK    6  A    between atoms: C_18  and  C_19 
ROOT
HETATM    1  C   UNL     1      29.236  43.161  52.299  1.00  0.00     0.270 C 
HETATM    2  N   UNL     1      27.809  43.614  52.433  1.00  0.00    -0.063 N 
HETATM    3  H   UNL     1      27.745  44.532  51.975  1.00  0.00     0.280 HD
ENDROOT
BRANCH   2   4
HETATM    4  C   UNL     1      26.830  42.699  51.678  1.00  0.00     0.337 C 
BRANCH   4   5
HETATM    5  C   UNL     1      27.026  42.618  50.166  1.00  0.00     0.248 C 
HETATM    6  N   UNL     1      26.575  43.588  49.321  1.00  0.00    -0.326 N 
HETATM    7  H   UNL     1      26.822  43.357  48.360  1.00  0.00     0.169 HD
HETATM    8  O   UNL     1      27.612  41.652  49.667  1.00  0.00    -0.271 OA
BRANCH   6   9
HETATM    9  C   UNL     1      25.879  44.801  49.483  1.00  0.00     0.040 A 
HETATM   10  C   UNL     1      24.525  45.014  49.226  1.00  0.00     0.072 A 
HETATM   11  C   UNL     1      23.958  46.274  49.446  1.00  0.00     0.121 A 
HETATM   12  F   UNL     1      22.652  46.443  49.195  1.00  0.00    -0.206 F 
HETATM   13  C   UNL     1      24.706  47.342  49.909  1.00  0.00     0.084 A 
HETATM   14  C   UNL     1      26.051  47.136  50.152  1.00  0.00     0.121 A 
HETATM   15  F   UNL     1      26.806  48.147  50.598  1.00  0.00    -0.206 F 
HETATM   16  C   UNL     1      26.639  45.887  49.944  1.00  0.00     0.072 A 
ENDBRANCH   6   9
ENDBRANCH   4   5
ENDBRANCH   2   4
BRANCH   2  17
HETATM   17  C   UNL     1      27.410  43.852  53.876  1.00  0.00     0.277 C 
BRANCH  17  18
HETATM   18  C   UNL     1      27.574  45.272  54.289  1.00  0.00     0.016 A 
HETATM   19  C   UNL     1      28.493  45.868  55.205  1.00  0.00     0.103 A 
HETATM   20  N   UNL     1      28.297  47.190  55.291  1.00  0.00    -0.173 NA
HETATM   21  N   UNL     1      27.316  47.457  54.426  1.00  0.00    -0.288 N 
HETATM   22  H   UNL     1      27.025  48.426  54.307  1.00  0.00     0.188 HD
HETATM   23  C   UNL     1      26.831  46.341  53.813  1.00  0.00     0.120 A 
BRANCH  19  24
HETATM   24  C   UNL     1      29.570  45.226  56.047  1.00  0.00     0.035 A 
HETATM   25  S   UNL     1      30.039  45.702  57.619  1.00  0.00    -0.100 SA
HETATM   26  C   UNL     1      31.215  44.469  57.730  1.00  0.00     0.050 A 
HETATM   27  C   UNL     1      31.265  43.709  56.584  1.00  0.00     0.008 A 
HETATM   28  C   UNL     1      30.319  44.148  55.613  1.00  0.00     0.022 A 
ENDBRANCH  19  24
ENDBRANCH  17  18
ENDBRANCH   2  17
TORSDOF 6
ENDMDL
MODEL 6
REMARK VINA RESULT:      -7.8      2.682      3.961
REMARK  6 active torsions:
REMARK  status: ('A' for Active; 'I' for Inactive)
REMARK    1  A    between atoms: N_2  and  C_4 
REMARK    2  A    between atoms: N_2  and  C_16 
REMARK    3  A    between atoms: C_4  and  C_5 
REMARK       I    between atoms: C_5  and  N_6 
REMARK    4  A    between atoms: N_6  and  C_7 
REMARK    5  A    between atoms: C_16  and  C_17 
REMARK    6  A    between atoms: C_18  and  C_19 
ROOT
HETATM    1  C   UNL     1      26.422  42.446  49.982  1.00  0.00     0.270 C 
HETATM    2  N   UNL     1      27.041  43.408  50.957  1.00  0.00    -0.063 N 
HETATM    3  H   UNL     1      26.470  43.373  51.811  1.00  0.00     0.280 HD
ENDROOT
BRANCH   2   4
HETATM    4  C   UNL     1      28.457  42.985  51.380  1.00  0.00     0.337 C 
BRANCH   4   5
HETATM    5  C   UNL     1      28.536  41.846  52.394  1.00  0.00     0.248 C 
HETATM    6  N   UNL     1      28.888  42.052  53.694  1.00  0.00    -0.326 N 
HETATM    7  H   UNL     1      28.862  41.173  54.208  1.00  0.00     0.169 HD
HETATM    8  O   UNL     1      28.274  40.689  52.049  1.00  0.00    -0.271 OA
BRANCH   6   9
HETATM    9  C   UNL     1      29.255  43.178  54.457  1.00  0.00     0.040 A 
HETATM   10  C   UNL     1      28.553  44.380  54.540  1.00  0.00     0.072 A 
HETATM   11  C   UNL     1      29.029  45.416  55.352  1.00  0.00     0.121 A 
HETATM   12  F   UNL     1      28.327  46.555  55.414  1.00  0.00    -0.206 F 
HETATM   13  C   UNL     1      30.196  45.294  56.084  1.00  0.00     0.084 A 
HETATM   14  C   UNL     1      30.900  44.107  55.992  1.00  0.00     0.121 A 
HETATM   15  F   UNL     1      32.036  43.956  56.684  1.00  0.00    -0.206 F 
HETATM   16  C   UNL     1      30.445  43.059  55.192  1.00  0.00     0.072 A 
ENDBRANCH   6   9
ENDBRANCH   4   5
ENDBRANCH   2   4
BRANCH   2  17
HETATM   17  C   UNL     1      26.965  44.845  50.479  1.00  0.00     0.277 C 
BRANCH  17  18
HETATM   18  C   UNL     1      26.328  45.748  51.476  1.00  0.00     0.016 A 
HETATM   19  C   UNL     1      25.896  47.104  51.351  1.00  0.00     0.103 A 
HETATM   20  N   UNL     1      25.373  47.548  52.501  1.00  0.00    -0.173 NA
HETATM   21  N   UNL     1      25.418  46.506  53.334  1.00  0.00    -0.288 N 
HETATM   22  H   UNL     1      25.035  46.619  54.271  1.00  0.00     0.188 HD
HETATM   23  C   UNL     1      26.000  45.408  52.778  1.00  0.00     0.120 A 
BRANCH  19  24
HETATM   24  C   UNL     1      25.974  48.037  50.166  1.00  0.00     0.035 A 
HETATM   25  S   UNL     1      24.653  48.613  49.249  1.00  0.00    -0.100 SA
HETATM   26  C   UNL     1      25.662  49.537  48.226  1.00  0.00     0.050 A 
HETATM   27  C   UNL     1      26.989  49.403  48.565  1.00  0.00     0.008 A 
HETATM   28  C   UNL     1      27.168  48.535  49.680  1.00  0.00     0.022 A 
ENDBRANCH  19  24
ENDBRANCH  17  18
ENDBRANCH   2  17
TORSDOF 6
ENDMDL
MODEL 7
REMARK VINA RESULT:      -7.8      3.671      7.807
REMARK  6 active torsions:
REMARK  status: ('A' for Active; 'I' for Inactive)
REMARK    1  A    between atoms: N_2  and  C_4 
REMARK    2  A    between atoms: N_2  and  C_16 
REMARK    3  A    between atoms: C_4  and  C_5 
REMARK       I    between atoms: C_5  and  N_6 
REMARK    4  A    between atoms: N_6  and  C_7 
REMARK    5  A    between atoms: C_16  and  C_17 
REMARK    6  A    between atoms: C_18  and  C_19 
ROOT
HETATM    1  C   UNL     1      25.351  42.041  50.442  1.00  0.00     0.270 C 
HETATM    2  N   UNL     1      26.261  43.200  50.739  1.00  0.00    -0.063 N 
HETATM    3  H   UNL     1      27.169  42.981  50.311  1.00  0.00     0.280 HD
ENDROOT
BRANCH   2   4
HETATM    4  C   UNL     1      25.787  44.503  50.075  1.00  0.00     0.337 C 
BRANCH   4   5
HETATM    5  C   UNL     1      24.651  45.236  50.784  1.00  0.00     0.248 C 
HETATM    6  N   UNL     1      24.452  46.578  50.645  1.00  0.00    -0.326 N 
HETATM    7  H   UNL     1      23.635  46.868  51.180  1.00  0.00     0.169 HD
HETATM    8  O   UNL     1      23.870  44.615  51.511  1.00  0.00    -0.271 OA
BRANCH   6   9
HETATM    9  C   UNL     1      25.100  47.610  49.939  1.00  0.00     0.040 A 
HETATM   10  C   UNL     1      26.472  47.858  49.919  1.00  0.00     0.072 A 
HETATM   11  C   UNL     1      26.983  48.916  49.158  1.00  0.00     0.121 A 
HETATM   12  F   UNL     1      28.307  49.123  49.155  1.00  0.00    -0.206 F 
HETATM   13  C   UNL     1      26.162  49.747  48.417  1.00  0.00     0.084 A 
HETATM   14  C   UNL     1      24.800  49.510  48.446  1.00  0.00     0.121 A 
HETATM   15  F   UNL     1      23.975  50.296  47.744  1.00  0.00    -0.206 F 
HETATM   16  C   UNL     1      24.267  48.459  49.195  1.00  0.00     0.072 A 
ENDBRANCH   6   9
ENDBRANCH   4   5
ENDBRANCH   2   4
BRANCH   2  17
HETATM   17  C   UNL     1      26.539  43.354  52.222  1.00  0.00     0.277 C 
BRANCH  17  18
HETATM   18  C   UNL     1      27.949  43.037  52.576  1.00  0.00     0.016 A 
HETATM   19  C   UNL     1      28.823  43.651  53.525  1.00  0.00     0.103 A 
HETATM   20  N   UNL     1      30.023  43.055  53.527  1.00  0.00    -0.173 NA
HETATM   21  N   UNL     1      29.921  42.057  52.646  1.00  0.00    -0.288 N 
HETATM   22  H   UNL     1      30.725  41.446  52.512  1.00  0.00     0.188 HD
HETATM   23  C   UNL     1      28.707  42.013  52.032  1.00  0.00     0.120 A 
BRANCH  19  24
HETATM   24  C   UNL     1      28.580  44.824  54.444  1.00  0.00     0.035 A 
HETATM   25  S   UNL     1      27.396  46.037  54.239  1.00  0.00    -0.100 SA
HETATM   26  C   UNL     1      27.855  46.841  55.674  1.00  0.00     0.050 A 
HETATM   27  C   UNL     1      28.904  46.208  56.300  1.00  0.00     0.008 A 
HETATM   28  C   UNL     1      29.325  45.047  55.588  1.00  0.00     0.022 A 
ENDBRANCH  19  24
ENDBRANCH  17  18
ENDBRANCH   2  17
TORSDOF 6
ENDMDL
MODEL 8
REMARK VINA RESULT:      -7.7     11.220     12.602
REMARK  6 active torsions:
REMARK  status: ('A' for Active; 'I' for Inactive)
REMARK    1  A    between atoms: N_2  and  C_4 
REMARK    2  A    between atoms: N_2  and  C_16 
REMARK    3  A    between atoms: C_4  and  C_5 
REMARK       I    between atoms: C_5  and  N_6 
REMARK    4  A    between atoms: N_6  and  C_7 
REMARK    5  A    between atoms: C_16  and  C_17 
REMARK    6  A    between atoms: C_18  and  C_19 
ROOT
HETATM    1  C   UNL     1      27.645  47.209  41.111  1.00  0.00     0.270 C 
HETATM    2  N   UNL     1      28.521  48.423  41.244  1.00  0.00    -0.063 N 
HETATM    3  H   UNL     1      29.013  48.337  42.142  1.00  0.00     0.280 HD
ENDROOT
BRANCH   2   4
HETATM    4  C   UNL     1      29.616  48.477  40.167  1.00  0.00     0.337 C 
BRANCH   4   5
HETATM    5  C   UNL     1      30.748  47.464  40.318  1.00  0.00     0.248 C 
HETATM    6  N   UNL     1      31.907  47.760  40.971  1.00  0.00    -0.326 N 
HETATM    7  H   UNL     1      32.522  46.948  40.979  1.00  0.00     0.169 HD
HETATM    8  O   UNL     1      30.633  46.330  39.842  1.00  0.00    -0.271 OA
BRANCH   6   9
HETATM    9  C   UNL     1      32.415  48.899  41.625  1.00  0.00     0.040 A 
HETATM   10  C   UNL     1      31.793  49.602  42.656  1.00  0.00     0.072 A 
HETATM   11  C   UNL     1      32.422  50.714  43.227  1.00  0.00     0.121 A 
HETATM   12  F   UNL     1      31.799  51.363  44.221  1.00  0.00    -0.206 F 
HETATM   13  C   UNL     1      33.658  51.158  42.793  1.00  0.00     0.084 A 
HETATM   14  C   UNL     1      34.271  50.469  41.762  1.00  0.00     0.121 A 
HETATM   15  F   UNL     1      35.466  50.872  41.315  1.00  0.00    -0.206 F 
HETATM   16  C   UNL     1      33.665  49.356  41.179  1.00  0.00     0.072 A 
ENDBRANCH   6   9
ENDBRANCH   4   5
ENDBRANCH   2   4
BRANCH   2  17
HETATM   17  C   UNL     1      27.720  49.707  41.344  1.00  0.00     0.277 C 
BRANCH  17  18
HETATM   18  C   UNL     1      27.512  50.358  40.023  1.00  0.00     0.016 A 
HETATM   19  C   UNL     1      28.294  51.343  39.345  1.00  0.00     0.103 A 
HETATM   20  N   UNL     1      27.744  51.663  38.166  1.00  0.00    -0.173 NA
HETATM   21  N   UNL     1      26.668  50.881  38.056  1.00  0.00    -0.288 N 
HETATM   22  H   UNL     1      26.112  50.942  37.204  1.00  0.00     0.188 HD
HETATM   23  C   UNL     1      26.470  50.095  39.149  1.00  0.00     0.120 A 
BRANCH  19  24
HETATM   24  C   UNL     1      29.564  52.034  39.779  1.00  0.00     0.035 A 
HETATM   25  S   UNL     1      31.132  51.734  39.173  1.00  0.00    -0.100 SA
HETATM   26  C   UNL     1      31.837  52.917  40.184  1.00  0.00     0.050 A 
HETATM   27  C   UNL     1      30.899  53.527  40.984  1.00  0.00     0.008 A 
HETATM   28  C   UNL     1      29.590  53.015  40.753  1.00  0.00     0.022 A 
ENDBRANCH  19  24
ENDBRANCH  17  18
ENDBRANCH   2  17
TORSDOF 6
ENDMDL
MODEL 9
REMARK VINA RESULT:      -7.6     11.794     14.089
REMARK  6 active torsions:
REMARK  status: ('A' for Active; 'I' for Inactive)
REMARK    1  A    between atoms: N_2  and  C_4 
REMARK    2  A    between atoms: N_2  and  C_16 
REMARK    3  A    between atoms: C_4  and  C_5 
REMARK       I    between atoms: C_5  and  N_6 
REMARK    4  A    between atoms: N_6  and  C_7 
REMARK    5  A    between atoms: C_16  and  C_17 
REMARK    6  A    between atoms: C_18  and  C_19 
ROOT
HETATM    1  C   UNL     1      27.525  48.652  41.563  1.00  0.00     0.270 C 
HETATM    2  N   UNL     1      28.448  49.480  40.714  1.00  0.00    -0.063 N 
HETATM    3  H   UNL     1      28.788  48.867  39.963  1.00  0.00     0.280 HD
ENDROOT
BRANCH   2   4
HETATM    4  C   UNL     1      27.720  50.639  40.014  1.00  0.00     0.337 C 
BRANCH   4   5
HETATM    5  C   UNL     1      27.988  50.786  38.518  1.00  0.00     0.248 C 
HETATM    6  N   UNL     1      29.169  51.263  38.034  1.00  0.00    -0.326 N 
HETATM    7  H   UNL     1      29.156  51.264  37.015  1.00  0.00     0.169 HD
HETATM    8  O   UNL     1      27.121  50.466  37.698  1.00  0.00    -0.271 OA
BRANCH   6   9
HETATM    9  C   UNL     1      30.366  51.725  38.614  1.00  0.00     0.040 A 
HETATM   10  C   UNL     1      31.652  51.278  38.314  1.00  0.00     0.072 A 
HETATM   11  C   UNL     1      32.760  51.838  38.962  1.00  0.00     0.121 A 
HETATM   12  F   UNL     1      33.982  51.391  38.646  1.00  0.00    -0.206 F 
HETATM   13  C   UNL     1      32.624  52.833  39.913  1.00  0.00     0.084 A 
HETATM   14  C   UNL     1      31.348  53.269  40.221  1.00  0.00     0.121 A 
HETATM   15  F   UNL     1      31.178  54.227  41.139  1.00  0.00    -0.206 F 
HETATM   16  C   UNL     1      30.228  52.727  39.587  1.00  0.00     0.072 A 
ENDBRANCH   6   9
ENDBRANCH   4   5
ENDBRANCH   2   4
BRANCH   2  17
HETATM   17  C   UNL     1      29.688  49.922  41.467  1.00  0.00     0.277 C 
BRANCH  17  18
HETATM   18  C   UNL     1      30.865  49.055  41.193  1.00  0.00     0.016 A 
HETATM   19  C   UNL     1      32.220  49.171  41.629  1.00  0.00     0.103 A 
HETATM   20  N   UNL     1      32.967  48.170  41.146  1.00  0.00    -0.173 NA
HETATM   21  N   UNL     1      32.122  47.401  40.457  1.00  0.00    -0.288 N 
HETATM   22  H   UNL     1      32.483  46.552  40.024  1.00  0.00     0.188 HD
HETATM   23  C   UNL     1      30.854  47.895  40.435  1.00  0.00     0.120 A 
BRANCH  19  24
HETATM   24  C   UNL     1      32.870  50.227  42.493  1.00  0.00     0.035 A 
HETATM   25  S   UNL     1      34.461  50.824  42.328  1.00  0.00    -0.100 SA
HETATM   26  C   UNL     1      34.278  51.904  43.639  1.00  0.00     0.050 A 
HETATM   27  C   UNL     1      33.028  51.807  44.207  1.00  0.00     0.008 A 
HETATM   28  C   UNL     1      32.218  50.837  43.549  1.00  0.00     0.022 A 
ENDBRANCH  19  24
ENDBRANCH  17  18
ENDBRANCH   2  17
TORSDOF 6
ENDMDL
MODEL 10
REMARK VINA RESULT:      -7.6      4.106      8.801
REMARK  6 active torsions:
REMARK  status: ('A' for Active; 'I' for Inactive)
REMARK    1  A    between atoms: N_2  and  C_4 
REMARK    2  A    between atoms: N_2  and  C_16 
REMARK    3  A    between atoms: C_4  and  C_5 
REMARK       I    between atoms: C_5  and  N_6 
REMARK    4  A    between atoms: N_6  and  C_7 
REMARK    5  A    between atoms: C_16  and  C_17 
REMARK    6  A    between atoms: C_18  and  C_19 
ROOT
HETATM    1  C   UNL     1      25.676  45.562  52.909  1.00  0.00     0.270 C 
HETATM    2  N   UNL     1      25.956  44.759  51.670  1.00  0.00    -0.063 N 
HETATM    3  H   UNL     1      25.399  43.899  51.742  1.00  0.00     0.280 HD
ENDROOT
BRANCH   2   4
HETATM    4  C   UNL     1      25.476  45.466  50.392  1.00  0.00     0.337 C 
BRANCH   4   5
HETATM    5  C   UNL     1      23.979  45.382  50.108  1.00  0.00     0.248 C 
HETATM    6  N   UNL     1      23.288  46.406  49.532  1.00  0.00    -0.326 N 
HETATM    7  H   UNL     1      22.311  46.145  49.409  1.00  0.00     0.169 HD
HETATM    8  O   UNL     1      23.349  44.359  50.397  1.00  0.00    -0.271 OA
BRANCH   6   9
HETATM    9  C   UNL     1      23.623  47.695  49.074  1.00  0.00     0.040 A 
HETATM   10  C   UNL     1      24.867  48.314  49.194  1.00  0.00     0.072 A 
HETATM   11  C   UNL     1      25.064  49.600  48.679  1.00  0.00     0.121 A 
HETATM   12  F   UNL     1      26.274  50.163  48.804  1.00  0.00    -0.206 F 
HETATM   13  C   UNL     1      24.049  50.299  48.050  1.00  0.00     0.084 A 
HETATM   14  C   UNL     1      22.812  49.692  47.943  1.00  0.00     0.121 A 
HETATM   15  F   UNL     1      21.806  50.341  47.344  1.00  0.00    -0.206 F 
HETATM   16  C   UNL     1      22.591  48.410  48.446  1.00  0.00     0.072 A 
ENDBRANCH   6   9
ENDBRANCH   4   5
ENDBRANCH   2   4
BRANCH   2  17
HETATM   17  C   UNL     1      27.400  44.300  51.591  1.00  0.00     0.277 C 
BRANCH  17  18
HETATM   18  C   UNL     1      27.605  42.949  52.180  1.00  0.00     0.016 A 
HETATM   19  C   UNL     1      28.317  42.550  53.352  1.00  0.00     0.103 A 
HETATM   20  N   UNL     1      28.257  41.223  53.521  1.00  0.00    -0.173 NA
HETATM   21  N   UNL     1      27.493  40.775  52.523  1.00  0.00    -0.288 N 
HETATM   22  H   UNL     1      27.289  39.778  52.479  1.00  0.00     0.188 HD
HETATM   23  C   UNL     1      27.092  41.765  51.677  1.00  0.00     0.120 A 
BRANCH  19  24
HETATM   24  C   UNL     1      29.095  43.386  54.340  1.00  0.00     0.035 A 
HETATM   25  S   UNL     1      28.576  44.850  55.051  1.00  0.00    -0.100 SA
HETATM   26  C   UNL     1      30.012  45.012  55.961  1.00  0.00     0.050 A 
HETATM   27  C   UNL     1      30.886  43.976  55.722  1.00  0.00     0.008 A 
HETATM   28  C   UNL     1      30.358  43.041  54.785  1.00  0.00     0.022 A 
ENDBRANCH  19  24
ENDBRANCH  17  18
ENDBRANCH   2  17
TORSDOF 6
ENDMDL
