MODEL 1
REMARK VINA RESULT:      -8.9      0.000      0.000
REMARK  3 active torsions:
REMARK  status: ('A' for Active; 'I' for Inactive)
REMARK    1  A    between atoms: C_3  and  N_4 
REMARK       I    between atoms: N_4  and  C_5 
REMARK       I    between atoms: C_5  and  N_6 
REMARK    2  A    between atoms: N_6  and  C_7 
REMARK    3  A    between atoms: C_7  and  C_8 
ROOT
HETATM    1  C   UNL     1      27.954  44.707  53.915  1.00  0.00    -0.036 A 
HETATM    2  C   UNL     1      28.602  43.473  53.762  1.00  0.00     0.011 A 
HETATM    3  C   UNL     1      29.672  43.118  54.592  1.00  0.00     0.023 A 
HETATM    4  C   UNL     1      30.116  43.994  55.586  1.00  0.00     0.044 A 
HETATM    5  C   UNL     1      31.207  43.627  56.439  1.00  0.00     0.099 C 
HETATM    6  N   UNL     1      32.087  43.327  57.134  1.00  0.00    -0.191 NA
HETATM    7  C   UNL     1      29.490  45.231  55.742  1.00  0.00     0.023 A 
HETATM    8  C   UNL     1      28.422  45.584  54.913  1.00  0.00     0.011 A 
ENDROOT
BRANCH   1   9
HETATM    9  C   UNL     1      26.777  45.149  53.062  1.00  0.00     0.115 C 
HETATM   10  C   UNL     1      25.430  44.499  53.391  1.00  0.00     0.037 C 
BRANCH   9  11
HETATM   11  N   UNL     1      27.091  44.925  51.653  1.00  0.00    -0.335 N 
HETATM   12  C   UNL     1      26.559  45.590  50.585  1.00  0.00     0.321 C 
HETATM   13  N   UNL     1      26.270  46.907  50.814  1.00  0.00    -0.307 N 
HETATM   14  O   UNL     1      26.417  44.987  49.528  1.00  0.00    -0.247 OA
HETATM   15  H   UNL     1      26.795  47.326  51.561  1.00  0.00     0.170 HD
HETATM   16  H   UNL     1      27.319  43.969  51.405  1.00  0.00     0.165 HD
BRANCH  13  17
HETATM   17  C   UNL     1      25.578  47.787  49.952  1.00  0.00     0.059 A 
HETATM   18  C   UNL     1      26.300  48.742  49.212  1.00  0.00    -0.032 A 
HETATM   19  C   UNL     1      27.800  48.838  49.257  1.00  0.00     0.050 C 
HETATM   20  C   UNL     1      25.595  49.621  48.378  1.00  0.00     0.028 A 
HETATM   21  C   UNL     1      24.214  49.533  48.318  1.00  0.00     0.117 A 
HETATM   22  N   UNL     1      23.493  48.641  49.021  1.00  0.00    -0.271 NA
HETATM   23  C   UNL     1      24.188  47.788  49.817  1.00  0.00     0.146 A 
ENDBRANCH  13  17
ENDBRANCH   9  11
ENDBRANCH   1   9
TORSDOF 3
ENDMDL
MODEL 2
REMARK VINA RESULT:      -8.3      2.225      7.319
REMARK  3 active torsions:
REMARK  status: ('A' for Active; 'I' for Inactive)
REMARK    1  A    between atoms: C_3  and  N_4 
REMARK       I    between atoms: N_4  and  C_5 
REMARK       I    between atoms: C_5  and  N_6 
REMARK    2  A    between atoms: N_6  and  C_7 
REMARK    3  A    between atoms: C_7  and  C_8 
ROOT
HETATM    1  C   UNL     1      25.929  45.040  51.086  1.00  0.00    -0.036 A 
HETATM    2  C   UNL     1      25.204  46.199  51.396  1.00  0.00     0.011 A 
HETATM    3  C   UNL     1      25.498  47.417  50.773  1.00  0.00     0.023 A 
HETATM    4  C   UNL     1      26.527  47.498  49.832  1.00  0.00     0.044 A 
HETATM    5  C   UNL     1      26.824  48.744  49.189  1.00  0.00     0.099 C 
HETATM    6  N   UNL     1      27.060  49.753  48.665  1.00  0.00    -0.191 NA
HETATM    7  C   UNL     1      27.268  46.357  49.521  1.00  0.00     0.023 A 
HETATM    8  C   UNL     1      26.972  45.141  50.144  1.00  0.00     0.011 A 
ENDROOT
BRANCH   1   9
HETATM    9  C   UNL     1      25.652  43.683  51.711  1.00  0.00     0.115 C 
HETATM   10  C   UNL     1      24.531  42.865  51.065  1.00  0.00     0.037 C 
BRANCH   9  11
HETATM   11  N   UNL     1      25.368  43.856  53.133  1.00  0.00    -0.335 N 
HETATM   12  C   UNL     1      26.281  43.879  54.149  1.00  0.00     0.321 C 
HETATM   13  N   UNL     1      27.486  44.437  53.825  1.00  0.00    -0.307 N 
HETATM   14  O   UNL     1      25.952  43.445  55.246  1.00  0.00    -0.247 OA
HETATM   15  H   UNL     1      27.457  45.078  53.050  1.00  0.00     0.170 HD
HETATM   16  H   UNL     1      24.487  43.469  53.450  1.00  0.00     0.165 HD
BRANCH  13  17
HETATM   17  C   UNL     1      28.655  44.455  54.619  1.00  0.00     0.059 A 
HETATM   18  C   UNL     1      29.604  43.426  54.477  1.00  0.00    -0.032 A 
HETATM   19  C   UNL     1      29.455  42.318  53.471  1.00  0.00     0.050 C 
HETATM   20  C   UNL     1      30.748  43.447  55.287  1.00  0.00     0.028 A 
HETATM   21  C   UNL     1      30.903  44.470  56.208  1.00  0.00     0.117 A 
HETATM   22  N   UNL     1      30.010  45.462  56.378  1.00  0.00    -0.271 NA
HETATM   23  C   UNL     1      28.911  45.435  55.580  1.00  0.00     0.146 A 
ENDBRANCH  13  17
ENDBRANCH   9  11
ENDBRANCH   1   9
TORSDOF 3
ENDMDL
MODEL 3
REMARK VINA RESULT:      -8.2      4.386      6.599
REMARK  3 active torsions:
REMARK  status: ('A' for Active; 'I' for Inactive)
REMARK    1  A    between atoms: C_3  and  N_4 
REMARK       I    between atoms: N_4  and  C_5 
REMARK       I    between atoms: C_5  and  N_6 
REMARK    2  A    between atoms: N_6  and  C_7 
REMARK    3  A    between atoms: C_7  and  C_8 
ROOT
HETATM    1  C   UNL     1      28.851  43.530  53.213  1.00  0.00    -0.036 A 
HETATM    2  C   UNL     1      28.519  44.499  54.172  1.00  0.00     0.011 A 
HETATM    3  C   UNL     1      29.285  44.648  55.334  1.00  0.00     0.023 A 
HETATM    4  C   UNL     1      30.393  43.827  55.560  1.00  0.00     0.044 A 
HETATM    5  C   UNL     1      31.180  43.986  56.747  1.00  0.00     0.099 C 
HETATM    6  N   UNL     1      31.820  44.117  57.706  1.00  0.00    -0.191 NA
HETATM    7  C   UNL     1      30.729  42.850  54.622  1.00  0.00     0.023 A 
HETATM    8  C   UNL     1      29.964  42.703  53.462  1.00  0.00     0.011 A 
ENDROOT
BRANCH   1   9
HETATM    9  C   UNL     1      28.075  43.325  51.923  1.00  0.00     0.115 C 
HETATM   10  C   UNL     1      27.217  44.508  51.463  1.00  0.00     0.037 C 
BRANCH   9  11
HETATM   11  N   UNL     1      27.235  42.137  52.048  1.00  0.00    -0.335 N 
HETATM   12  C   UNL     1      27.125  41.119  51.145  1.00  0.00     0.321 C 
HETATM   13  N   UNL     1      28.274  40.830  50.463  1.00  0.00    -0.307 N 
HETATM   14  O   UNL     1      26.051  40.538  51.041  1.00  0.00    -0.247 OA
HETATM   15  H   UNL     1      29.120  41.108  50.930  1.00  0.00     0.170 HD
HETATM   16  H   UNL     1      26.363  42.273  52.547  1.00  0.00     0.165 HD
BRANCH  13  17
HETATM   17  C   UNL     1      28.414  39.943  49.372  1.00  0.00     0.059 A 
HETATM   18  C   UNL     1      29.118  38.737  49.547  1.00  0.00    -0.032 A 
HETATM   19  C   UNL     1      29.693  38.318  50.871  1.00  0.00     0.050 C 
HETATM   20  C   UNL     1      29.266  37.877  48.448  1.00  0.00     0.028 A 
HETATM   21  C   UNL     1      28.729  38.247  47.226  1.00  0.00     0.117 A 
HETATM   22  N   UNL     1      28.062  39.397  47.022  1.00  0.00    -0.271 NA
HETATM   23  C   UNL     1      27.917  40.216  48.096  1.00  0.00     0.146 A 
ENDBRANCH  13  17
ENDBRANCH   9  11
ENDBRANCH   1   9
TORSDOF 3
ENDMDL
MODEL 4
REMARK VINA RESULT:      -7.9      1.672      2.477
REMARK  3 active torsions:
REMARK  status: ('A' for Active; 'I' for Inactive)
REMARK    1  A    between atoms: C_3  and  N_4 
REMARK       I    between atoms: N_4  and  C_5 
REMARK       I    between atoms: C_5  and  N_6 
REMARK    2  A    between atoms: N_6  and  C_7 
REMARK    3  A    between atoms: C_7  and  C_8 
ROOT
HETATM    1  C   UNL     1      28.496  43.604  53.189  1.00  0.00    -0.036 A 
HETATM    2  C   UNL     1      29.577  42.711  53.223  1.00  0.00     0.011 A 
HETATM    3  C   UNL     1      30.480  42.720  54.292  1.00  0.00     0.023 A 
HETATM    4  C   UNL     1      30.322  43.627  55.343  1.00  0.00     0.044 A 
HETATM    5  C   UNL     1      31.244  43.631  56.440  1.00  0.00     0.099 C 
HETATM    6  N   UNL     1      31.988  43.631  57.331  1.00  0.00    -0.191 NA
HETATM    7  C   UNL     1      29.260  44.532  55.317  1.00  0.00     0.023 A 
HETATM    8  C   UNL     1      28.358  44.521  54.249  1.00  0.00     0.011 A 
ENDROOT
BRANCH   1   9
HETATM    9  C   UNL     1      27.470  43.638  52.069  1.00  0.00     0.115 C 
HETATM   10  C   UNL     1      27.260  42.322  51.314  1.00  0.00     0.037 C 
BRANCH   9  11
HETATM   11  N   UNL     1      27.824  44.689  51.120  1.00  0.00    -0.335 N 
HETATM   12  C   UNL     1      26.972  45.346  50.278  1.00  0.00     0.321 C 
HETATM   13  N   UNL     1      25.714  45.544  50.773  1.00  0.00    -0.307 N 
HETATM   14  O   UNL     1      27.395  45.725  49.192  1.00  0.00    -0.247 OA
HETATM   15  H   UNL     1      25.653  45.537  51.777  1.00  0.00     0.170 HD
HETATM   16  H   UNL     1      28.747  44.612  50.711  1.00  0.00     0.165 HD
BRANCH  13  17
HETATM   17  C   UNL     1      24.595  46.050  50.073  1.00  0.00     0.059 A 
HETATM   18  C   UNL     1      23.724  45.156  49.422  1.00  0.00    -0.032 A 
HETATM   19  C   UNL     1      23.902  43.664  49.480  1.00  0.00     0.050 C 
HETATM   20  C   UNL     1      22.630  45.675  48.715  1.00  0.00     0.028 A 
HETATM   21  C   UNL     1      22.449  47.047  48.666  1.00  0.00     0.117 A 
HETATM   22  N   UNL     1      23.269  47.929  49.266  1.00  0.00    -0.271 NA
HETATM   23  C   UNL     1      24.318  47.414  49.956  1.00  0.00     0.146 A 
ENDBRANCH  13  17
ENDBRANCH   9  11
ENDBRANCH   1   9
TORSDOF 3
ENDMDL
MODEL 5
REMARK VINA RESULT:      -7.8      3.547      4.505
REMARK  3 active torsions:
REMARK  status: ('A' for Active; 'I' for Inactive)
REMARK    1  A    between atoms: C_3  and  N_4 
REMARK       I    between atoms: N_4  and  C_5 
REMARK       I    between atoms: C_5  and  N_6 
REMARK    2  A    between atoms: N_6  and  C_7 
REMARK    3  A    between atoms: C_7  and  C_8 
ROOT
HETATM    1  C   UNL     1      28.809  43.641  53.962  1.00  0.00    -0.036 A 
HETATM    2  C   UNL     1      29.992  43.222  54.586  1.00  0.00     0.011 A 
HETATM    3  C   UNL     1      30.507  43.918  55.686  1.00  0.00     0.023 A 
HETATM    4  C   UNL     1      29.850  45.049  56.177  1.00  0.00     0.044 A 
HETATM    5  C   UNL     1      30.374  45.756  57.307  1.00  0.00     0.099 C 
HETATM    6  N   UNL     1      30.797  46.327  58.226  1.00  0.00    -0.191 NA
HETATM    7  C   UNL     1      28.678  45.487  55.559  1.00  0.00     0.023 A 
HETATM    8  C   UNL     1      28.165  44.791  54.461  1.00  0.00     0.011 A 
ENDROOT
BRANCH   1   9
HETATM    9  C   UNL     1      28.185  42.925  52.776  1.00  0.00     0.115 C 
HETATM   10  C   UNL     1      29.013  41.786  52.172  1.00  0.00     0.037 C 
BRANCH   9  11
HETATM   11  N   UNL     1      27.869  43.898  51.735  1.00  0.00    -0.335 N 
HETATM   12  C   UNL     1      26.970  43.740  50.718  1.00  0.00     0.321 C 
HETATM   13  N   UNL     1      25.868  42.997  51.037  1.00  0.00    -0.307 N 
HETATM   14  O   UNL     1      27.193  44.287  49.645  1.00  0.00    -0.247 OA
HETATM   15  H   UNL     1      25.652  42.967  52.019  1.00  0.00     0.170 HD
HETATM   16  H   UNL     1      28.638  44.491  51.446  1.00  0.00     0.165 HD
BRANCH  13  17
HETATM   17  C   UNL     1      24.863  42.545  50.153  1.00  0.00     0.059 A 
HETATM   18  C   UNL     1      25.118  41.438  49.322  1.00  0.00    -0.032 A 
HETATM   19  C   UNL     1      26.411  40.671  49.367  1.00  0.00     0.050 C 
HETATM   20  C   UNL     1      24.117  41.016  48.435  1.00  0.00     0.028 A 
HETATM   21  C   UNL     1      22.918  41.707  48.393  1.00  0.00     0.117 A 
HETATM   22  N   UNL     1      22.646  42.775  49.164  1.00  0.00    -0.271 NA
HETATM   23  C   UNL     1      23.619  43.168  50.026  1.00  0.00     0.146 A 
ENDBRANCH  13  17
ENDBRANCH   9  11
ENDBRANCH   1   9
TORSDOF 3
ENDMDL
MODEL 6
REMARK VINA RESULT:      -7.8      4.540     10.070
REMARK  3 active torsions:
REMARK  status: ('A' for Active; 'I' for Inactive)
REMARK    1  A    between atoms: C_3  and  N_4 
REMARK       I    between atoms: N_4  and  C_5 
REMARK       I    between atoms: C_5  and  N_6 
REMARK    2  A    between atoms: N_6  and  C_7 
REMARK    3  A    between atoms: C_7  and  C_8 
ROOT
HETATM    1  C   UNL     1      20.605  50.589  49.116  1.00  0.00    -0.036 A 
HETATM    2  C   UNL     1      20.264  51.785  48.467  1.00  0.00     0.011 A 
HETATM    3  C   UNL     1      19.036  52.408  48.714  1.00  0.00     0.023 A 
HETATM    4  C   UNL     1      18.124  51.844  49.610  1.00  0.00     0.044 A 
HETATM    5  C   UNL     1      16.870  52.486  49.867  1.00  0.00     0.099 C 
HETATM    6  N   UNL     1      15.855  53.010  50.078  1.00  0.00    -0.191 NA
HETATM    7  C   UNL     1      18.443  50.647  50.253  1.00  0.00     0.023 A 
HETATM    8  C   UNL     1      19.670  50.026  50.006  1.00  0.00     0.011 A 
ENDROOT
BRANCH   1   9
HETATM    9  C   UNL     1      21.926  49.869  48.908  1.00  0.00     0.115 C 
HETATM   10  C   UNL     1      22.984  50.630  48.102  1.00  0.00     0.037 C 
BRANCH   9  11
HETATM   11  N   UNL     1      21.677  48.575  48.279  1.00  0.00    -0.335 N 
HETATM   12  C   UNL     1      22.509  47.491  48.290  1.00  0.00     0.321 C 
HETATM   13  N   UNL     1      23.241  47.340  49.434  1.00  0.00    -0.307 N 
HETATM   14  O   UNL     1      22.510  46.741  47.320  1.00  0.00    -0.247 OA
HETATM   15  H   UNL     1      22.844  47.781  50.246  1.00  0.00     0.170 HD
HETATM   16  H   UNL     1      21.136  48.605  47.423  1.00  0.00     0.165 HD
BRANCH  13  17
HETATM   17  C   UNL     1      24.282  46.412  49.661  1.00  0.00     0.059 A 
HETATM   18  C   UNL     1      25.616  46.859  49.677  1.00  0.00    -0.032 A 
HETATM   19  C   UNL     1      25.989  48.306  49.512  1.00  0.00     0.050 C 
HETATM   20  C   UNL     1      26.639  45.921  49.882  1.00  0.00     0.028 A 
HETATM   21  C   UNL     1      26.307  44.587  50.048  1.00  0.00     0.117 A 
HETATM   22  N   UNL     1      25.043  44.125  50.025  1.00  0.00    -0.271 NA
HETATM   23  C   UNL     1      24.062  45.044  49.836  1.00  0.00     0.146 A 
ENDBRANCH  13  17
ENDBRANCH   9  11
ENDBRANCH   1   9
TORSDOF 3
ENDMDL
MODEL 7
REMARK VINA RESULT:      -7.7      1.859      7.790
REMARK  3 active torsions:
REMARK  status: ('A' for Active; 'I' for Inactive)
REMARK    1  A    between atoms: C_3  and  N_4 
REMARK       I    between atoms: N_4  and  C_5 
REMARK       I    between atoms: C_5  and  N_6 
REMARK    2  A    between atoms: N_6  and  C_7 
REMARK    3  A    between atoms: C_7  and  C_8 
ROOT
HETATM    1  C   UNL     1      25.188  46.049  50.400  1.00  0.00    -0.036 A 
HETATM    2  C   UNL     1      26.154  47.056  50.263  1.00  0.00     0.011 A 
HETATM    3  C   UNL     1      25.861  48.242  49.582  1.00  0.00     0.023 A 
HETATM    4  C   UNL     1      24.597  48.440  49.021  1.00  0.00     0.044 A 
HETATM    5  C   UNL     1      24.295  49.659  48.329  1.00  0.00     0.099 C 
HETATM    6  N   UNL     1      24.049  50.648  47.773  1.00  0.00    -0.191 NA
HETATM    7  C   UNL     1      23.628  47.443  49.137  1.00  0.00     0.023 A 
HETATM    8  C   UNL     1      23.923  46.258  49.818  1.00  0.00     0.011 A 
ENDROOT
BRANCH   1   9
HETATM    9  C   UNL     1      25.433  44.745  51.140  1.00  0.00     0.115 C 
HETATM   10  C   UNL     1      24.707  43.514  50.586  1.00  0.00     0.037 C 
BRANCH   9  11
HETATM   11  N   UNL     1      25.088  44.916  52.549  1.00  0.00    -0.335 N 
HETATM   12  C   UNL     1      25.916  44.724  53.618  1.00  0.00     0.321 C 
HETATM   13  N   UNL     1      27.225  45.050  53.397  1.00  0.00    -0.307 N 
HETATM   14  O   UNL     1      25.433  44.322  54.670  1.00  0.00    -0.247 OA
HETATM   15  H   UNL     1      27.372  45.712  52.655  1.00  0.00     0.170 HD
HETATM   16  H   UNL     1      24.129  44.696  52.791  1.00  0.00     0.165 HD
BRANCH  13  17
HETATM   17  C   UNL     1      28.317  44.811  54.261  1.00  0.00     0.059 A 
HETATM   18  C   UNL     1      28.736  45.825  55.143  1.00  0.00    -0.032 A 
HETATM   19  C   UNL     1      28.035  47.151  55.247  1.00  0.00     0.050 C 
HETATM   20  C   UNL     1      29.835  45.579  55.979  1.00  0.00     0.028 A 
HETATM   21  C   UNL     1      30.481  44.356  55.901  1.00  0.00     0.117 A 
HETATM   22  N   UNL     1      30.115  43.372  55.061  1.00  0.00    -0.271 NA
HETATM   23  C   UNL     1      29.043  43.618  54.264  1.00  0.00     0.146 A 
ENDBRANCH  13  17
ENDBRANCH   9  11
ENDBRANCH   1   9
TORSDOF 3
ENDMDL
MODEL 8
REMARK VINA RESULT:      -7.5      2.295      7.348
REMARK  3 active torsions:
REMARK  status: ('A' for Active; 'I' for Inactive)
REMARK    1  A    between atoms: C_3  and  N_4 
REMARK       I    between atoms: N_4  and  C_5 
REMARK       I    between atoms: C_5  and  N_6 
REMARK    2  A    between atoms: N_6  and  C_7 
REMARK    3  A    between atoms: C_7  and  C_8 
ROOT
HETATM    1  C   UNL     1      26.458  43.723  50.353  1.00  0.00    -0.036 A 
HETATM    2  C   UNL     1      25.086  43.818  50.627  1.00  0.00     0.011 A 
HETATM    3  C   UNL     1      24.418  45.044  50.524  1.00  0.00     0.023 A 
HETATM    4  C   UNL     1      25.113  46.197  50.151  1.00  0.00     0.044 A 
HETATM    5  C   UNL     1      24.427  47.450  50.040  1.00  0.00     0.099 C 
HETATM    6  N   UNL     1      23.870  48.465  49.945  1.00  0.00    -0.191 NA
HETATM    7  C   UNL     1      26.481  46.122  49.889  1.00  0.00     0.023 A 
HETATM    8  C   UNL     1      27.147  44.897  49.991  1.00  0.00     0.011 A 
ENDROOT
BRANCH   1   9
HETATM    9  C   UNL     1      27.241  42.423  50.429  1.00  0.00     0.115 C 
HETATM   10  C   UNL     1      26.994  41.426  49.292  1.00  0.00     0.037 C 
BRANCH   9  11
HETATM   11  N   UNL     1      26.977  41.773  51.709  1.00  0.00    -0.335 N 
HETATM   12  C   UNL     1      27.638  41.991  52.884  1.00  0.00     0.321 C 
HETATM   13  N   UNL     1      28.067  43.275  53.073  1.00  0.00    -0.307 N 
HETATM   14  O   UNL     1      27.763  41.060  53.670  1.00  0.00    -0.247 OA
HETATM   15  H   UNL     1      27.557  43.968  52.552  1.00  0.00     0.170 HD
HETATM   16  H   UNL     1      26.651  40.815  51.651  1.00  0.00     0.165 HD
BRANCH  13  17
HETATM   17  C   UNL     1      28.902  43.749  54.110  1.00  0.00     0.059 A 
HETATM   18  C   UNL     1      28.616  44.986  54.718  1.00  0.00    -0.032 A 
HETATM   19  C   UNL     1      27.418  45.815  54.346  1.00  0.00     0.050 C 
HETATM   20  C   UNL     1      29.466  45.451  55.731  1.00  0.00     0.028 A 
HETATM   21  C   UNL     1      30.566  44.689  56.091  1.00  0.00     0.117 A 
HETATM   22  N   UNL     1      30.874  43.510  55.522  1.00  0.00    -0.271 NA
HETATM   23  C   UNL     1      30.037  43.065  54.549  1.00  0.00     0.146 A 
ENDBRANCH  13  17
ENDBRANCH   9  11
ENDBRANCH   1   9
TORSDOF 3
ENDMDL
MODEL 9
REMARK VINA RESULT:      -7.2      2.488      3.872
REMARK  3 active torsions:
REMARK  status: ('A' for Active; 'I' for Inactive)
REMARK    1  A    between atoms: C_3  and  N_4 
REMARK       I    between atoms: N_4  and  C_5 
REMARK       I    between atoms: C_5  and  N_6 
REMARK    2  A    between atoms: N_6  and  C_7 
REMARK    3  A    between atoms: C_7  and  C_8 
ROOT
HETATM    1  C   UNL     1      26.009  46.274  52.505  1.00  0.00    -0.036 A 
HETATM    2  C   UNL     1      26.159  47.371  53.364  1.00  0.00     0.011 A 
HETATM    3  C   UNL     1      26.957  47.279  54.510  1.00  0.00     0.023 A 
HETATM    4  C   UNL     1      27.614  46.086  54.820  1.00  0.00     0.044 A 
HETATM    5  C   UNL     1      28.436  45.995  55.990  1.00  0.00     0.099 C 
HETATM    6  N   UNL     1      29.106  45.923  56.935  1.00  0.00    -0.191 NA
HETATM    7  C   UNL     1      27.464  44.980  53.981  1.00  0.00     0.023 A 
HETATM    8  C   UNL     1      26.668  45.074  52.837  1.00  0.00     0.011 A 
ENDROOT
BRANCH   1   9
HETATM    9  C   UNL     1      25.173  46.308  51.236  1.00  0.00     0.115 C 
HETATM   10  C   UNL     1      25.393  45.151  50.258  1.00  0.00     0.037 C 
BRANCH   9  11
HETATM   11  N   UNL     1      25.396  47.575  50.545  1.00  0.00    -0.335 N 
HETATM   12  C   UNL     1      24.577  48.150  49.615  1.00  0.00     0.321 C 
HETATM   13  N   UNL     1      23.241  47.935  49.815  1.00  0.00    -0.307 N 
HETATM   14  O   UNL     1      25.081  48.821  48.722  1.00  0.00    -0.247 OA
HETATM   15  H   UNL     1      22.989  47.722  50.764  1.00  0.00     0.170 HD
HETATM   16  H   UNL     1      26.365  47.806  50.363  1.00  0.00     0.165 HD
BRANCH  13  17
HETATM   17  C   UNL     1      22.186  48.274  48.938  1.00  0.00     0.059 A 
HETATM   18  C   UNL     1      21.643  49.571  48.977  1.00  0.00    -0.032 A 
HETATM   19  C   UNL     1      22.173  50.645  49.885  1.00  0.00     0.050 C 
HETATM   20  C   UNL     1      20.582  49.884  48.114  1.00  0.00     0.028 A 
HETATM   21  C   UNL     1      20.094  48.906  47.264  1.00  0.00     0.117 A 
HETATM   22  N   UNL     1      20.582  47.653  47.210  1.00  0.00    -0.271 NA
HETATM   23  C   UNL     1      21.615  47.366  48.043  1.00  0.00     0.146 A 
ENDBRANCH  13  17
ENDBRANCH   9  11
ENDBRANCH   1   9
TORSDOF 3
ENDMDL
MODEL 10
REMARK VINA RESULT:      -7.1     11.589     13.188
REMARK  3 active torsions:
REMARK  status: ('A' for Active; 'I' for Inactive)
REMARK    1  A    between atoms: C_3  and  N_4 
REMARK       I    between atoms: N_4  and  C_5 
REMARK       I    between atoms: C_5  and  N_6 
REMARK    2  A    between atoms: N_6  and  C_7 
REMARK    3  A    between atoms: C_7  and  C_8 
ROOT
HETATM    1  C   UNL     1      34.480  51.457  43.173  1.00  0.00    -0.036 A 
HETATM    2  C   UNL     1      35.111  50.664  42.204  1.00  0.00     0.011 A 
HETATM    3  C   UNL     1      36.503  50.679  42.061  1.00  0.00     0.023 A 
HETATM    4  C   UNL     1      37.288  51.493  42.881  1.00  0.00     0.044 A 
HETATM    5  C   UNL     1      38.714  51.503  42.739  1.00  0.00     0.099 C 
HETATM    6  N   UNL     1      39.870  51.507  42.626  1.00  0.00    -0.191 NA
HETATM    7  C   UNL     1      36.675  52.298  43.842  1.00  0.00     0.023 A 
HETATM    8  C   UNL     1      35.285  52.282  43.984  1.00  0.00     0.011 A 
ENDROOT
BRANCH   1   9
HETATM    9  C   UNL     1      32.977  51.477  43.394  1.00  0.00     0.115 C 
HETATM   10  C   UNL     1      32.509  51.976  44.764  1.00  0.00     0.037 C 
BRANCH   9  11
HETATM   11  N   UNL     1      32.436  50.142  43.154  1.00  0.00    -0.335 N 
HETATM   12  C   UNL     1      31.392  49.822  42.333  1.00  0.00     0.321 C 
HETATM   13  N   UNL     1      31.286  50.596  41.211  1.00  0.00    -0.307 N 
HETATM   14  O   UNL     1      30.675  48.876  42.635  1.00  0.00    -0.247 OA
HETATM   15  H   UNL     1      32.143  51.037  40.924  1.00  0.00     0.170 HD
HETATM   16  H   UNL     1      32.482  49.507  43.942  1.00  0.00     0.165 HD
BRANCH  13  17
HETATM   17  C   UNL     1      30.228  50.595  40.275  1.00  0.00     0.059 A 
HETATM   18  C   UNL     1      29.137  51.464  40.461  1.00  0.00    -0.032 A 
HETATM   19  C   UNL     1      29.067  52.445  41.599  1.00  0.00     0.050 C 
HETATM   20  C   UNL     1      28.086  51.436  39.534  1.00  0.00     0.028 A 
HETATM   21  C   UNL     1      28.145  50.545  38.475  1.00  0.00     0.117 A 
HETATM   22  N   UNL     1      29.166  49.692  38.275  1.00  0.00    -0.271 NA
HETATM   23  C   UNL     1      30.183  49.737  39.173  1.00  0.00     0.146 A 
ENDBRANCH  13  17
ENDBRANCH   9  11
ENDBRANCH   1   9
TORSDOF 3
ENDMDL
