MODEL 1
REMARK VINA RESULT:      -9.2      0.000      0.000
REMARK  8 active torsions:
REMARK  status: ('A' for Active; 'I' for Inactive)
REMARK    1  A    between atoms: C_4  and  C_5 
REMARK    2  A    between atoms: C_5  and  N_6 
REMARK    3  A    between atoms: C_5  and  C_32 
REMARK       I    between atoms: N_10  and  C_11 
REMARK    4  A    between atoms: C_11  and  C_12 
REMARK    5  A    between atoms: C_13  and  N_14 
REMARK    6  A    between atoms: N_14  and  C_15 
REMARK    7  A    between atoms: C_15  and  N_16 
REMARK       I    between atoms: N_16  and  C_17 
REMARK    8  A    between atoms: C_17  and  C_18 
ROOT
HETATM    1  N   UNL     1      23.389  46.453  49.726  1.00  0.00    -0.056 N 
HETATM    2  H   UNL     1      22.721  46.695  50.465  1.00  0.00     0.281 HD
HETATM    3  C   UNL     1      23.469  44.926  49.692  1.00  0.00     0.256 C 
HETATM    4  C   UNL     1      23.946  44.397  51.054  1.00  0.00     0.154 C 
HETATM    5  N   UNL     1      25.225  45.014  51.407  1.00  0.00    -0.345 N 
HETATM    6  C   UNL     1      26.472  44.492  51.011  1.00  0.00     0.256 C 
HETATM    7  O   UNL     1      27.464  45.211  50.927  1.00  0.00    -0.267 OA
HETATM    8  C   UNL     1      25.144  46.475  51.530  1.00  0.00     0.154 C 
HETATM    9  C   UNL     1      24.714  47.085  50.175  1.00  0.00     0.256 C 
ENDROOT
BRANCH   6  10
HETATM   10  C   UNL     1      26.554  43.098  50.506  1.00  0.00     0.058 A 
HETATM   11  C   UNL     1      26.651  41.951  51.315  1.00  0.00     0.049 A 
HETATM   12  C   UNL     1      26.431  40.695  50.732  1.00  0.00     0.030 A 
HETATM   13  C   UNL     1      26.217  40.573  49.357  1.00  0.00     0.002 A 
HETATM   14  C   UNL     1      26.201  41.705  48.548  1.00  0.00     0.001 A 
HETATM   15  C   UNL     1      26.359  42.966  49.120  1.00  0.00     0.019 A 
BRANCH  11  16
HETATM   16  N   UNL     1      26.898  41.954  52.706  1.00  0.00    -0.337 N 
HETATM   17  H   UNL     1      26.273  41.398  53.281  1.00  0.00     0.168 HD
BRANCH  16  18
HETATM   18  C   UNL     1      27.871  42.592  53.400  1.00  0.00     0.157 C 
HETATM   19  S   UNL     1      29.423  42.610  52.774  1.00  0.00    -0.047 SA
BRANCH  18  20
HETATM   20  N   UNL     1      27.600  43.317  54.520  1.00  0.00    -0.199 NA
HETATM   21  C   UNL     1      26.499  44.165  54.603  1.00  0.00     0.261 C 
HETATM   22  O   UNL     1      25.336  43.781  54.645  1.00  0.00    -0.271 OA
HETATM   23  H   UNL     1      28.448  43.801  54.803  1.00  0.00     0.139 HD
BRANCH  21  24
HETATM   24  C   UNL     1      26.854  45.569  54.688  1.00  0.00     0.137 A 
HETATM   25  O   UNL     1      25.860  46.511  54.764  1.00  0.00    -0.318 OA
HETATM   26  C   UNL     1      26.467  47.720  54.891  1.00  0.00     0.143 A 
HETATM   27  C   UNL     1      27.834  47.577  54.895  1.00  0.00     0.027 A 
HETATM   28  C   UNL     1      28.086  46.191  54.756  1.00  0.00     0.044 A 
ENDBRANCH  21  24
ENDBRANCH  18  20
ENDBRANCH  16  18
ENDBRANCH  11  16
ENDBRANCH   6  10
BRANCH   1  29
HETATM   29  C   UNL     1      22.764  47.014  48.445  1.00  0.00     0.254 C 
BRANCH  29  30
HETATM   30  C   UNL     1      22.482  48.515  48.465  1.00  0.00    -0.023 A 
HETATM   31  C   UNL     1      21.311  48.980  49.098  1.00  0.00     0.009 A 
HETATM   32  C   UNL     1      20.977  50.336  49.100  1.00  0.00     0.001 A 
HETATM   33  C   UNL     1      21.808  51.258  48.475  1.00  0.00     0.000 A 
HETATM   34  C   UNL     1      22.975  50.826  47.853  1.00  0.00     0.001 A 
HETATM   35  C   UNL     1      23.308  49.468  47.845  1.00  0.00     0.009 A 
ENDBRANCH  29  30
BRANCH  29  36
HETATM   36  C   UNL     1      21.716  46.076  47.849  1.00  0.00    -0.023 A 
HETATM   37  C   UNL     1      21.982  45.495  46.588  1.00  0.00     0.009 A 
HETATM   38  C   UNL     1      21.069  44.635  45.976  1.00  0.00     0.001 A 
HETATM   39  C   UNL     1      19.871  44.334  46.611  1.00  0.00     0.000 A 
HETATM   40  C   UNL     1      19.587  44.892  47.853  1.00  0.00     0.001 A 
HETATM   41  C   UNL     1      20.500  45.754  48.469  1.00  0.00     0.009 A 
ENDBRANCH  29  36
ENDBRANCH   1  29
TORSDOF 8
ENDMDL
MODEL 2
REMARK VINA RESULT:      -8.9      3.332      8.653
REMARK  8 active torsions:
REMARK  status: ('A' for Active; 'I' for Inactive)
REMARK    1  A    between atoms: C_4  and  C_5 
REMARK    2  A    between atoms: C_5  and  N_6 
REMARK    3  A    between atoms: C_5  and  C_32 
REMARK       I    between atoms: N_10  and  C_11 
REMARK    4  A    between atoms: C_11  and  C_12 
REMARK    5  A    between atoms: C_13  and  N_14 
REMARK    6  A    between atoms: N_14  and  C_15 
REMARK    7  A    between atoms: C_15  and  N_16 
REMARK       I    between atoms: N_16  and  C_17 
REMARK    8  A    between atoms: C_17  and  C_18 
ROOT
HETATM    1  N   UNL     1      25.941  42.523  51.868  1.00  0.00    -0.056 N 
HETATM    2  H   UNL     1      25.386  42.302  52.701  1.00  0.00     0.281 HD
HETATM    3  C   UNL     1      26.235  44.024  51.926  1.00  0.00     0.256 C 
HETATM    4  C   UNL     1      24.918  44.816  51.931  1.00  0.00     0.154 C 
HETATM    5  N   UNL     1      24.113  44.450  50.764  1.00  0.00    -0.345 N 
HETATM    6  C   UNL     1      24.236  45.082  49.511  1.00  0.00     0.256 C 
HETATM    7  O   UNL     1      23.905  44.509  48.475  1.00  0.00    -0.267 OA
HETATM    8  C   UNL     1      23.748  43.028  50.740  1.00  0.00     0.154 C 
HETATM    9  C   UNL     1      25.030  42.166  50.685  1.00  0.00     0.256 C 
ENDROOT
BRANCH   6  10
HETATM   10  C   UNL     1      24.949  46.381  49.413  1.00  0.00     0.058 A 
HETATM   11  C   UNL     1      24.347  47.644  49.554  1.00  0.00     0.049 A 
HETATM   12  C   UNL     1      25.169  48.767  49.727  1.00  0.00     0.030 A 
HETATM   13  C   UNL     1      26.560  48.651  49.663  1.00  0.00     0.002 A 
HETATM   14  C   UNL     1      27.149  47.409  49.444  1.00  0.00     0.001 A 
HETATM   15  C   UNL     1      26.348  46.275  49.328  1.00  0.00     0.019 A 
BRANCH  11  16
HETATM   16  N   UNL     1      22.956  47.882  49.597  1.00  0.00    -0.337 N 
HETATM   17  H   UNL     1      22.499  47.753  50.494  1.00  0.00     0.168 HD
BRANCH  16  18
HETATM   18  C   UNL     1      22.125  48.278  48.602  1.00  0.00     0.157 C 
HETATM   19  S   UNL     1      21.208  47.121  47.814  1.00  0.00    -0.047 SA
BRANCH  18  20
HETATM   20  N   UNL     1      21.924  49.593  48.311  1.00  0.00    -0.199 NA
HETATM   21  C   UNL     1      21.687  50.542  49.302  1.00  0.00     0.261 C 
HETATM   22  O   UNL     1      22.526  50.913  50.115  1.00  0.00    -0.271 OA
HETATM   23  H   UNL     1      21.223  49.657  47.577  1.00  0.00     0.139 HD
BRANCH  21  24
HETATM   24  C   UNL     1      20.349  51.102  49.259  1.00  0.00     0.137 A 
HETATM   25  O   UNL     1      19.399  50.641  50.133  1.00  0.00    -0.318 OA
HETATM   26  C   UNL     1      18.273  51.369  49.916  1.00  0.00     0.143 A 
HETATM   27  C   UNL     1      18.477  52.287  48.915  1.00  0.00     0.027 A 
HETATM   28  C   UNL     1      19.813  52.112  48.485  1.00  0.00     0.044 A 
ENDBRANCH  21  24
ENDBRANCH  18  20
ENDBRANCH  16  18
ENDBRANCH  11  16
ENDBRANCH   6  10
BRANCH   1  29
HETATM   29  C   UNL     1      27.217  41.691  52.025  1.00  0.00     0.254 C 
BRANCH  29  30
HETATM   30  C   UNL     1      28.278  42.298  52.940  1.00  0.00    -0.023 A 
HETATM   31  C   UNL     1      29.634  42.215  52.562  1.00  0.00     0.009 A 
HETATM   32  C   UNL     1      30.649  42.706  53.386  1.00  0.00     0.001 A 
HETATM   33  C   UNL     1      30.331  43.297  54.603  1.00  0.00     0.000 A 
HETATM   34  C   UNL     1      29.000  43.402  54.994  1.00  0.00     0.001 A 
HETATM   35  C   UNL     1      27.984  42.906  54.173  1.00  0.00     0.009 A 
ENDBRANCH  29  30
BRANCH  29  36
HETATM   36  C   UNL     1      27.659  41.049  50.711  1.00  0.00    -0.023 A 
HETATM   37  C   UNL     1      28.173  39.733  50.753  1.00  0.00     0.009 A 
HETATM   38  C   UNL     1      28.604  39.084  49.595  1.00  0.00     0.001 A 
HETATM   39  C   UNL     1      28.529  39.733  48.369  1.00  0.00     0.000 A 
HETATM   40  C   UNL     1      28.025  41.028  48.303  1.00  0.00     0.001 A 
HETATM   41  C   UNL     1      27.592  41.681  49.461  1.00  0.00     0.009 A 
ENDBRANCH  29  36
ENDBRANCH   1  29
TORSDOF 8
ENDMDL
MODEL 3
REMARK VINA RESULT:      -8.7      3.069      8.259
REMARK  8 active torsions:
REMARK  status: ('A' for Active; 'I' for Inactive)
REMARK    1  A    between atoms: C_4  and  C_5 
REMARK    2  A    between atoms: C_5  and  N_6 
REMARK    3  A    between atoms: C_5  and  C_32 
REMARK       I    between atoms: N_10  and  C_11 
REMARK    4  A    between atoms: C_11  and  C_12 
REMARK    5  A    between atoms: C_13  and  N_14 
REMARK    6  A    between atoms: N_14  and  C_15 
REMARK    7  A    between atoms: C_15  and  N_16 
REMARK       I    between atoms: N_16  and  C_17 
REMARK    8  A    between atoms: C_17  and  C_18 
ROOT
HETATM    1  N   UNL     1      26.526  43.978  50.959  1.00  0.00    -0.056 N 
HETATM    2  H   UNL     1      26.861  44.843  51.395  1.00  0.00     0.281 HD
HETATM    3  C   UNL     1      26.132  44.336  49.524  1.00  0.00     0.256 C 
HETATM    4  C   UNL     1      25.027  45.404  49.536  1.00  0.00     0.154 C 
HETATM    5  N   UNL     1      23.888  44.933  50.326  1.00  0.00    -0.345 N 
HETATM    6  C   UNL     1      22.838  44.164  49.787  1.00  0.00     0.256 C 
HETATM    7  O   UNL     1      22.157  43.430  50.500  1.00  0.00    -0.267 OA
HETATM    8  C   UNL     1      24.232  44.669  51.729  1.00  0.00     0.154 C 
HETATM    9  C   UNL     1      25.310  43.563  51.798  1.00  0.00     0.256 C 
ENDROOT
BRANCH   6  10
HETATM   10  C   UNL     1      22.669  44.088  48.314  1.00  0.00     0.058 A 
HETATM   11  C   UNL     1      21.971  45.028  47.533  1.00  0.00     0.049 A 
HETATM   12  C   UNL     1      22.130  44.996  46.140  1.00  0.00     0.030 A 
HETATM   13  C   UNL     1      22.886  43.992  45.530  1.00  0.00     0.002 A 
HETATM   14  C   UNL     1      23.509  43.017  46.303  1.00  0.00     0.001 A 
HETATM   15  C   UNL     1      23.409  43.068  47.692  1.00  0.00     0.019 A 
BRANCH  11  16
HETATM   16  N   UNL     1      21.154  46.061  48.041  1.00  0.00    -0.337 N 
HETATM   17  H   UNL     1      20.215  45.801  48.326  1.00  0.00     0.168 HD
BRANCH  16  18
HETATM   18  C   UNL     1      21.446  47.372  48.219  1.00  0.00     0.157 C 
HETATM   19  S   UNL     1      20.561  48.514  47.375  1.00  0.00    -0.047 SA
BRANCH  18  20
HETATM   20  N   UNL     1      22.348  47.789  49.150  1.00  0.00    -0.199 NA
HETATM   21  C   UNL     1      22.735  49.122  49.259  1.00  0.00     0.261 C 
HETATM   22  O   UNL     1      22.003  50.022  49.655  1.00  0.00    -0.271 OA
HETATM   23  H   UNL     1      23.161  47.181  49.105  1.00  0.00     0.139 HD
BRANCH  21  24
HETATM   24  C   UNL     1      24.123  49.353  48.904  1.00  0.00     0.137 A 
HETATM   25  O   UNL     1      25.111  48.708  49.603  1.00  0.00    -0.318 OA
HETATM   26  C   UNL     1      26.294  49.056  49.031  1.00  0.00     0.143 A 
HETATM   27  C   UNL     1      26.087  49.917  47.979  1.00  0.00     0.027 A 
HETATM   28  C   UNL     1      24.688  50.115  47.901  1.00  0.00     0.044 A 
ENDBRANCH  21  24
ENDBRANCH  18  20
ENDBRANCH  16  18
ENDBRANCH  11  16
ENDBRANCH   6  10
BRANCH   1  29
HETATM   29  C   UNL     1      27.735  43.038  50.994  1.00  0.00     0.254 C 
BRANCH  29  30
HETATM   30  C   UNL     1      27.490  41.645  50.419  1.00  0.00    -0.023 A 
HETATM   31  C   UNL     1      28.157  41.268  49.235  1.00  0.00     0.009 A 
HETATM   32  C   UNL     1      27.929  40.027  48.637  1.00  0.00     0.001 A 
HETATM   33  C   UNL     1      27.035  39.132  49.212  1.00  0.00     0.000 A 
HETATM   34  C   UNL     1      26.372  39.475  50.387  1.00  0.00     0.001 A 
HETATM   35  C   UNL     1      26.595  40.719  50.983  1.00  0.00     0.009 A 
ENDBRANCH  29  30
BRANCH  29  36
HETATM   36  C   UNL     1      28.538  43.171  52.286  1.00  0.00    -0.023 A 
HETATM   37  C   UNL     1      28.147  44.161  53.216  1.00  0.00     0.009 A 
HETATM   38  C   UNL     1      28.837  44.347  54.414  1.00  0.00     0.001 A 
HETATM   39  C   UNL     1      29.932  43.547  54.713  1.00  0.00     0.000 A 
HETATM   40  C   UNL     1      30.336  42.565  53.814  1.00  0.00     0.001 A 
HETATM   41  C   UNL     1      29.646  42.376  52.613  1.00  0.00     0.009 A 
ENDBRANCH  29  36
ENDBRANCH   1  29
TORSDOF 8
ENDMDL
MODEL 4
REMARK VINA RESULT:      -8.7      4.751      7.540
REMARK  8 active torsions:
REMARK  status: ('A' for Active; 'I' for Inactive)
REMARK    1  A    between atoms: C_4  and  C_5 
REMARK    2  A    between atoms: C_5  and  N_6 
REMARK    3  A    between atoms: C_5  and  C_32 
REMARK       I    between atoms: N_10  and  C_11 
REMARK    4  A    between atoms: C_11  and  C_12 
REMARK    5  A    between atoms: C_13  and  N_14 
REMARK    6  A    between atoms: N_14  and  C_15 
REMARK    7  A    between atoms: C_15  and  N_16 
REMARK       I    between atoms: N_16  and  C_17 
REMARK    8  A    between atoms: C_17  and  C_18 
ROOT
HETATM    1  N   UNL     1      17.348  50.864  49.184  1.00  0.00    -0.056 N 
HETATM    2  H   UNL     1      17.025  50.923  50.155  1.00  0.00     0.281 HD
HETATM    3  C   UNL     1      17.836  49.429  48.974  1.00  0.00     0.256 C 
HETATM    4  C   UNL     1      18.981  49.117  49.951  1.00  0.00     0.154 C 
HETATM    5  N   UNL     1      20.054  50.100  49.790  1.00  0.00    -0.345 N 
HETATM    6  C   UNL     1      21.100  49.957  48.857  1.00  0.00     0.256 C 
HETATM    7  O   UNL     1      21.710  50.935  48.432  1.00  0.00    -0.267 OA
HETATM    8  C   UNL     1      19.622  51.474  50.074  1.00  0.00     0.154 C 
HETATM    9  C   UNL     1      18.498  51.877  49.092  1.00  0.00     0.256 C 
ENDROOT
BRANCH   6  10
HETATM   10  C   UNL     1      21.349  48.632  48.234  1.00  0.00     0.058 A 
HETATM   11  C   UNL     1      22.272  47.680  48.704  1.00  0.00     0.049 A 
HETATM   12  C   UNL     1      22.204  46.372  48.204  1.00  0.00     0.030 A 
HETATM   13  C   UNL     1      21.303  46.041  47.188  1.00  0.00     0.002 A 
HETATM   14  C   UNL     1      20.446  47.008  46.671  1.00  0.00     0.001 A 
HETATM   15  C   UNL     1      20.461  48.298  47.197  1.00  0.00     0.019 A 
BRANCH  11  16
HETATM   16  N   UNL     1      23.246  47.913  49.700  1.00  0.00    -0.337 N 
HETATM   17  H   UNL     1      22.910  48.001  50.653  1.00  0.00     0.168 HD
BRANCH  16  18
HETATM   18  C   UNL     1      24.590  48.026  49.571  1.00  0.00     0.157 C 
HETATM   19  S   UNL     1      25.213  49.372  48.797  1.00  0.00    -0.047 SA
BRANCH  18  20
HETATM   20  N   UNL     1      25.446  47.144  50.158  1.00  0.00    -0.199 NA
HETATM   21  C   UNL     1      25.028  46.249  51.138  1.00  0.00     0.261 C 
HETATM   22  O   UNL     1      24.287  45.295  50.928  1.00  0.00    -0.271 OA
HETATM   23  H   UNL     1      26.271  47.653  50.464  1.00  0.00     0.139 HD
BRANCH  21  24
HETATM   24  C   UNL     1      25.595  46.516  52.446  1.00  0.00     0.137 A 
HETATM   25  O   UNL     1      25.345  47.719  53.055  1.00  0.00    -0.318 OA
HETATM   26  C   UNL     1      25.939  47.678  54.276  1.00  0.00     0.143 A 
HETATM   27  C   UNL     1      26.573  46.473  54.465  1.00  0.00     0.027 A 
HETATM   28  C   UNL     1      26.358  45.725  53.283  1.00  0.00     0.044 A 
ENDBRANCH  21  24
ENDBRANCH  18  20
ENDBRANCH  16  18
ENDBRANCH  11  16
ENDBRANCH   6  10
BRANCH   1  29
HETATM   29  C   UNL     1      16.102  51.165  48.345  1.00  0.00     0.254 C 
BRANCH  29  30
HETATM   30  C   UNL     1      16.280  50.996  46.838  1.00  0.00    -0.023 A 
HETATM   31  C   UNL     1      15.469  50.066  46.156  1.00  0.00     0.009 A 
HETATM   32  C   UNL     1      15.625  49.833  44.787  1.00  0.00     0.001 A 
HETATM   33  C   UNL     1      16.589  50.530  44.069  1.00  0.00     0.000 A 
HETATM   34  C   UNL     1      17.395  51.462  44.717  1.00  0.00     0.001 A 
HETATM   35  C   UNL     1      17.243  51.691  46.087  1.00  0.00     0.009 A 
ENDBRANCH  29  30
BRANCH  29  36
HETATM   36  C   UNL     1      15.329  52.375  48.865  1.00  0.00    -0.023 A 
HETATM   37  C   UNL     1      15.090  52.466  50.256  1.00  0.00     0.009 A 
HETATM   38  C   UNL     1      14.383  53.538  50.803  1.00  0.00     0.001 A 
HETATM   39  C   UNL     1      13.902  54.544  49.976  1.00  0.00     0.000 A 
HETATM   40  C   UNL     1      14.126  54.476  48.604  1.00  0.00     0.001 A 
HETATM   41  C   UNL     1      14.833  53.404  48.052  1.00  0.00     0.009 A 
ENDBRANCH  29  36
ENDBRANCH   1  29
TORSDOF 8
ENDMDL
MODEL 5
REMARK VINA RESULT:      -8.7      5.886      9.122
REMARK  8 active torsions:
REMARK  status: ('A' for Active; 'I' for Inactive)
REMARK    1  A    between atoms: C_4  and  C_5 
REMARK    2  A    between atoms: C_5  and  N_6 
REMARK    3  A    between atoms: C_5  and  C_32 
REMARK       I    between atoms: N_10  and  C_11 
REMARK    4  A    between atoms: C_11  and  C_12 
REMARK    5  A    between atoms: C_13  and  N_14 
REMARK    6  A    between atoms: N_14  and  C_15 
REMARK    7  A    between atoms: C_15  and  N_16 
REMARK       I    between atoms: N_16  and  C_17 
REMARK    8  A    between atoms: C_17  and  C_18 
ROOT
HETATM    1  N   UNL     1      16.391  50.103  45.984  1.00  0.00    -0.056 N 
HETATM    2  H   UNL     1      15.848  50.002  45.120  1.00  0.00     0.281 HD
HETATM    3  C   UNL     1      17.735  49.415  45.739  1.00  0.00     0.256 C 
HETATM    4  C   UNL     1      17.510  47.931  45.407  1.00  0.00     0.154 C 
HETATM    5  N   UNL     1      16.743  47.293  46.479  1.00  0.00    -0.345 N 
HETATM    6  C   UNL     1      17.338  46.723  47.622  1.00  0.00     0.256 C 
HETATM    7  O   UNL     1      16.708  46.599  48.670  1.00  0.00    -0.267 OA
HETATM    8  C   UNL     1      15.414  47.887  46.667  1.00  0.00     0.154 C 
HETATM    9  C   UNL     1      15.563  49.377  47.052  1.00  0.00     0.256 C 
ENDROOT
BRANCH   6  10
HETATM   10  C   UNL     1      18.795  46.442  47.626  1.00  0.00     0.058 A 
HETATM   11  C   UNL     1      19.781  47.296  48.152  1.00  0.00     0.049 A 
HETATM   12  C   UNL     1      21.074  46.791  48.353  1.00  0.00     0.030 A 
HETATM   13  C   UNL     1      21.405  45.495  47.947  1.00  0.00     0.002 A 
HETATM   14  C   UNL     1      20.446  44.681  47.353  1.00  0.00     0.001 A 
HETATM   15  C   UNL     1      19.142  45.147  47.200  1.00  0.00     0.019 A 
BRANCH  11  16
HETATM   16  N   UNL     1      19.567  48.630  48.563  1.00  0.00    -0.337 N 
HETATM   17  H   UNL     1      19.242  49.279  47.853  1.00  0.00     0.168 HD
BRANCH  16  18
HETATM   18  C   UNL     1      19.721  49.182  49.791  1.00  0.00     0.157 C 
HETATM   19  S   UNL     1      18.651  48.753  51.004  1.00  0.00    -0.047 SA
BRANCH  18  20
HETATM   20  N   UNL     1      20.786  49.974  50.096  1.00  0.00    -0.199 NA
HETATM   21  C   UNL     1      21.438  50.739  49.133  1.00  0.00     0.261 C 
HETATM   22  O   UNL     1      20.946  51.718  48.582  1.00  0.00    -0.271 OA
HETATM   23  H   UNL     1      21.453  49.424  50.630  1.00  0.00     0.139 HD
BRANCH  21  24
HETATM   24  C   UNL     1      22.795  50.302  48.868  1.00  0.00     0.137 A 
HETATM   25  O   UNL     1      23.336  49.294  49.623  1.00  0.00    -0.318 OA
HETATM   26  C   UNL     1      24.578  49.049  49.129  1.00  0.00     0.143 A 
HETATM   27  C   UNL     1      24.850  49.884  48.072  1.00  0.00     0.027 A 
HETATM   28  C   UNL     1      23.705  50.697  47.906  1.00  0.00     0.044 A 
ENDBRANCH  21  24
ENDBRANCH  18  20
ENDBRANCH  16  18
ENDBRANCH  11  16
ENDBRANCH   6  10
BRANCH   1  29
HETATM   29  C   UNL     1      16.555  51.617  46.157  1.00  0.00     0.254 C 
BRANCH  29  30
HETATM   30  C   UNL     1      16.476  52.116  47.598  1.00  0.00    -0.023 A 
HETATM   31  C   UNL     1      15.290  52.738  48.040  1.00  0.00     0.009 A 
HETATM   32  C   UNL     1      15.182  53.260  49.331  1.00  0.00     0.001 A 
HETATM   33  C   UNL     1      16.254  53.167  50.210  1.00  0.00     0.000 A 
HETATM   34  C   UNL     1      17.431  52.548  49.802  1.00  0.00     0.001 A 
HETATM   35  C   UNL     1      17.543  52.030  48.509  1.00  0.00     0.009 A 
ENDBRANCH  29  30
BRANCH  29  36
HETATM   36  C   UNL     1      15.842  52.409  45.063  1.00  0.00    -0.023 A 
HETATM   37  C   UNL     1      14.559  51.976  44.656  1.00  0.00     0.009 A 
HETATM   38  C   UNL     1      13.850  52.645  43.656  1.00  0.00     0.001 A 
HETATM   39  C   UNL     1      14.405  53.760  43.043  1.00  0.00     0.000 A 
HETATM   40  C   UNL     1      15.666  54.205  43.428  1.00  0.00     0.001 A 
HETATM   41  C   UNL     1      16.378  53.539  44.429  1.00  0.00     0.009 A 
ENDBRANCH  29  36
ENDBRANCH   1  29
TORSDOF 8
ENDMDL
MODEL 6
REMARK VINA RESULT:      -8.5      3.911      6.463
REMARK  8 active torsions:
REMARK  status: ('A' for Active; 'I' for Inactive)
REMARK    1  A    between atoms: C_4  and  C_5 
REMARK    2  A    between atoms: C_5  and  N_6 
REMARK    3  A    between atoms: C_5  and  C_32 
REMARK       I    between atoms: N_10  and  C_11 
REMARK    4  A    between atoms: C_11  and  C_12 
REMARK    5  A    between atoms: C_13  and  N_14 
REMARK    6  A    between atoms: N_14  and  C_15 
REMARK    7  A    between atoms: C_15  and  N_16 
REMARK       I    between atoms: N_16  and  C_17 
REMARK    8  A    between atoms: C_17  and  C_18 
ROOT
HETATM    1  N   UNL     1      18.996  50.680  48.741  1.00  0.00    -0.056 N 
HETATM    2  H   UNL     1      18.890  51.097  49.671  1.00  0.00     0.281 HD
HETATM    3  C   UNL     1      19.252  49.187  48.957  1.00  0.00     0.256 C 
HETATM    4  C   UNL     1      20.527  48.991  49.792  1.00  0.00     0.154 C 
HETATM    5  N   UNL     1      21.655  49.661  49.143  1.00  0.00    -0.345 N 
HETATM    6  C   UNL     1      22.461  49.047  48.165  1.00  0.00     0.256 C 
HETATM    7  O   UNL     1      23.084  49.716  47.344  1.00  0.00    -0.267 OA
HETATM    8  C   UNL     1      21.462  51.111  49.007  1.00  0.00     0.154 C 
HETATM    9  C   UNL     1      20.216  51.386  48.133  1.00  0.00     0.256 C 
ENDROOT
BRANCH   6  10
HETATM   10  C   UNL     1      22.413  47.572  47.998  1.00  0.00     0.058 A 
HETATM   11  C   UNL     1      22.975  46.641  48.890  1.00  0.00     0.049 A 
HETATM   12  C   UNL     1      22.613  45.291  48.770  1.00  0.00     0.030 A 
HETATM   13  C   UNL     1      21.789  44.862  47.727  1.00  0.00     0.002 A 
HETATM   14  C   UNL     1      21.301  45.777  46.799  1.00  0.00     0.001 A 
HETATM   15  C   UNL     1      21.603  47.130  46.938  1.00  0.00     0.019 A 
BRANCH  11  16
HETATM   16  N   UNL     1      23.844  46.957  49.957  1.00  0.00    -0.337 N 
HETATM   17  H   UNL     1      23.419  47.358  50.787  1.00  0.00     0.168 HD
BRANCH  16  18
HETATM   18  C   UNL     1      25.185  46.790  50.045  1.00  0.00     0.157 C 
HETATM   19  S   UNL     1      26.183  48.071  49.638  1.00  0.00    -0.047 SA
BRANCH  18  20
HETATM   20  N   UNL     1      25.738  45.661  50.568  1.00  0.00    -0.199 NA
HETATM   21  C   UNL     1      25.306  45.117  51.774  1.00  0.00     0.261 C 
HETATM   22  O   UNL     1      24.213  44.584  51.937  1.00  0.00    -0.271 OA
HETATM   23  H   UNL     1      26.749  45.766  50.563  1.00  0.00     0.139 HD
BRANCH  21  24
HETATM   24  C   UNL     1      26.297  45.190  52.831  1.00  0.00     0.137 A 
HETATM   25  O   UNL     1      27.326  44.285  52.852  1.00  0.00    -0.318 OA
HETATM   26  C   UNL     1      28.126  44.617  53.898  1.00  0.00     0.143 A 
HETATM   27  C   UNL     1      27.630  45.716  54.557  1.00  0.00     0.027 A 
HETATM   28  C   UNL     1      26.446  46.083  53.875  1.00  0.00     0.044 A 
ENDBRANCH  21  24
ENDBRANCH  18  20
ENDBRANCH  16  18
ENDBRANCH  11  16
ENDBRANCH   6  10
BRANCH   1  29
HETATM   29  C   UNL     1      17.650  50.928  48.053  1.00  0.00     0.254 C 
BRANCH  29  30
HETATM   30  C   UNL     1      17.722  51.134  46.542  1.00  0.00    -0.023 A 
HETATM   31  C   UNL     1      17.211  52.329  45.991  1.00  0.00     0.009 A 
HETATM   32  C   UNL     1      17.204  52.546  44.612  1.00  0.00     0.001 A 
HETATM   33  C   UNL     1      17.712  51.579  43.753  1.00  0.00     0.000 A 
HETATM   34  C   UNL     1      18.232  50.398  44.271  1.00  0.00     0.001 A 
HETATM   35  C   UNL     1      18.235  50.176  45.651  1.00  0.00     0.009 A 
ENDBRANCH  29  30
BRANCH  29  36
HETATM   36  C   UNL     1      16.733  51.831  48.877  1.00  0.00    -0.023 A 
HETATM   37  C   UNL     1      17.295  52.980  49.479  1.00  0.00     0.009 A 
HETATM   38  C   UNL     1      16.522  53.847  50.252  1.00  0.00     0.001 A 
HETATM   39  C   UNL     1      15.171  53.588  50.440  1.00  0.00     0.000 A 
HETATM   40  C   UNL     1      14.595  52.464  49.857  1.00  0.00     0.001 A 
HETATM   41  C   UNL     1      15.366  51.594  49.081  1.00  0.00     0.009 A 
ENDBRANCH  29  36
ENDBRANCH   1  29
TORSDOF 8
ENDMDL
MODEL 7
REMARK VINA RESULT:      -8.5      4.023      8.066
REMARK  8 active torsions:
REMARK  status: ('A' for Active; 'I' for Inactive)
REMARK    1  A    between atoms: C_4  and  C_5 
REMARK    2  A    between atoms: C_5  and  N_6 
REMARK    3  A    between atoms: C_5  and  C_32 
REMARK       I    between atoms: N_10  and  C_11 
REMARK    4  A    between atoms: C_11  and  C_12 
REMARK    5  A    between atoms: C_13  and  N_14 
REMARK    6  A    between atoms: N_14  and  C_15 
REMARK    7  A    between atoms: C_15  and  N_16 
REMARK       I    between atoms: N_16  and  C_17 
REMARK    8  A    between atoms: C_17  and  C_18 
ROOT
HETATM    1  N   UNL     1      27.145  42.401  52.224  1.00  0.00    -0.056 N 
HETATM    2  H   UNL     1      27.335  41.659  52.905  1.00  0.00     0.281 HD
HETATM    3  C   UNL     1      25.797  42.071  51.582  1.00  0.00     0.256 C 
HETATM    4  C   UNL     1      25.868  40.700  50.890  1.00  0.00     0.154 C 
HETATM    5  N   UNL     1      26.965  40.689  49.921  1.00  0.00    -0.345 N 
HETATM    6  C   UNL     1      26.821  41.113  48.585  1.00  0.00     0.256 C 
HETATM    7  O   UNL     1      27.788  41.507  47.937  1.00  0.00    -0.267 OA
HETATM    8  C   UNL     1      28.278  40.917  50.536  1.00  0.00     0.154 C 
HETATM    9  C   UNL     1      28.297  42.307  51.214  1.00  0.00     0.256 C 
ENDROOT
BRANCH   6  10
HETATM   10  C   UNL     1      25.462  41.268  48.009  1.00  0.00     0.058 A 
HETATM   11  C   UNL     1      24.664  40.214  47.529  1.00  0.00     0.049 A 
HETATM   12  C   UNL     1      23.305  40.456  47.282  1.00  0.00     0.030 A 
HETATM   13  C   UNL     1      22.772  41.741  47.415  1.00  0.00     0.002 A 
HETATM   14  C   UNL     1      23.585  42.798  47.813  1.00  0.00     0.001 A 
HETATM   15  C   UNL     1      24.924  42.563  48.119  1.00  0.00     0.019 A 
BRANCH  11  16
HETATM   16  N   UNL     1      25.104  38.888  47.325  1.00  0.00    -0.337 N 
HETATM   17  H   UNL     1      24.544  38.152  47.744  1.00  0.00     0.168 HD
BRANCH  16  18
HETATM   18  C   UNL     1      26.177  38.441  46.629  1.00  0.00     0.157 C 
HETATM   19  S   UNL     1      26.585  39.211  45.201  1.00  0.00    -0.047 SA
BRANCH  18  20
HETATM   20  N   UNL     1      26.998  37.470  47.117  1.00  0.00    -0.199 NA
HETATM   21  C   UNL     1      27.068  37.174  48.475  1.00  0.00     0.261 C 
HETATM   22  O   UNL     1      26.165  36.643  49.112  1.00  0.00    -0.271 OA
HETATM   23  H   UNL     1      27.929  37.613  46.732  1.00  0.00     0.139 HD
BRANCH  21  24
HETATM   24  C   UNL     1      28.345  37.509  49.076  1.00  0.00     0.137 A 
HETATM   25  O   UNL     1      28.596  37.139  50.373  1.00  0.00    -0.318 OA
HETATM   26  C   UNL     1      29.868  37.521  50.656  1.00  0.00     0.143 A 
HETATM   27  C   UNL     1      30.442  38.135  49.568  1.00  0.00     0.027 A 
HETATM   28  C   UNL     1      29.459  38.135  48.551  1.00  0.00     0.044 A 
ENDBRANCH  21  24
ENDBRANCH  18  20
ENDBRANCH  16  18
ENDBRANCH  11  16
ENDBRANCH   6  10
BRANCH   1  29
HETATM   29  C   UNL     1      27.073  43.682  53.062  1.00  0.00     0.254 C 
BRANCH  29  30
HETATM   30  C   UNL     1      26.563  44.914  52.319  1.00  0.00    -0.023 A 
HETATM   31  C   UNL     1      26.912  45.086  50.963  1.00  0.00     0.009 A 
HETATM   32  C   UNL     1      26.518  46.221  50.251  1.00  0.00     0.001 A 
HETATM   33  C   UNL     1      25.760  47.205  50.874  1.00  0.00     0.000 A 
HETATM   34  C   UNL     1      25.394  47.054  52.208  1.00  0.00     0.001 A 
HETATM   35  C   UNL     1      25.793  45.922  52.924  1.00  0.00     0.009 A 
ENDBRANCH  29  30
BRANCH  29  36
HETATM   36  C   UNL     1      28.268  43.830  54.002  1.00  0.00    -0.023 A 
HETATM   37  C   UNL     1      28.412  45.046  54.710  1.00  0.00     0.009 A 
HETATM   38  C   UNL     1      29.482  45.258  55.580  1.00  0.00     0.001 A 
HETATM   39  C   UNL     1      30.432  44.261  55.765  1.00  0.00     0.000 A 
HETATM   40  C   UNL     1      30.311  43.057  55.079  1.00  0.00     0.001 A 
HETATM   41  C   UNL     1      29.240  42.840  54.207  1.00  0.00     0.009 A 
ENDBRANCH  29  36
ENDBRANCH   1  29
TORSDOF 8
ENDMDL
MODEL 8
REMARK VINA RESULT:      -8.5      2.194      3.700
REMARK  8 active torsions:
REMARK  status: ('A' for Active; 'I' for Inactive)
REMARK    1  A    between atoms: C_4  and  C_5 
REMARK    2  A    between atoms: C_5  and  N_6 
REMARK    3  A    between atoms: C_5  and  C_32 
REMARK       I    between atoms: N_10  and  C_11 
REMARK    4  A    between atoms: C_11  and  C_12 
REMARK    5  A    between atoms: C_13  and  N_14 
REMARK    6  A    between atoms: N_14  and  C_15 
REMARK    7  A    between atoms: C_15  and  N_16 
REMARK       I    between atoms: N_16  and  C_17 
REMARK    8  A    between atoms: C_17  and  C_18 
ROOT
HETATM    1  N   UNL     1      22.430  45.215  49.256  1.00  0.00    -0.056 N 
HETATM    2  H   UNL     1      21.929  45.721  49.992  1.00  0.00     0.281 HD
HETATM    3  C   UNL     1      22.978  43.939  49.898  1.00  0.00     0.256 C 
HETATM    4  C   UNL     1      23.925  44.300  51.054  1.00  0.00     0.154 C 
HETATM    5  N   UNL     1      24.989  45.181  50.568  1.00  0.00    -0.345 N 
HETATM    6  C   UNL     1      26.194  44.707  50.016  1.00  0.00     0.256 C 
HETATM    7  O   UNL     1      26.853  45.397  49.241  1.00  0.00    -0.267 OA
HETATM    8  C   UNL     1      24.483  46.450  50.028  1.00  0.00     0.154 C 
HETATM    9  C   UNL     1      23.555  46.166  48.824  1.00  0.00     0.256 C 
ENDROOT
BRANCH   6  10
HETATM   10  C   UNL     1      26.583  43.288  50.218  1.00  0.00     0.058 A 
HETATM   11  C   UNL     1      26.950  42.720  51.451  1.00  0.00     0.049 A 
HETATM   12  C   UNL     1      27.012  41.323  51.557  1.00  0.00     0.030 A 
HETATM   13  C   UNL     1      26.811  40.511  50.437  1.00  0.00     0.002 A 
HETATM   14  C   UNL     1      26.528  41.083  49.201  1.00  0.00     0.001 A 
HETATM   15  C   UNL     1      26.405  42.467  49.091  1.00  0.00     0.019 A 
BRANCH  11  16
HETATM   16  N   UNL     1      27.208  43.443  52.636  1.00  0.00    -0.337 N 
HETATM   17  H   UNL     1      26.462  44.040  52.977  1.00  0.00     0.168 HD
BRANCH  16  18
HETATM   18  C   UNL     1      28.321  43.449  53.408  1.00  0.00     0.157 C 
HETATM   19  S   UNL     1      29.794  43.099  52.696  1.00  0.00    -0.047 SA
BRANCH  18  20
HETATM   20  N   UNL     1      28.293  43.850  54.710  1.00  0.00    -0.199 NA
HETATM   21  C   UNL     1      29.064  44.913  55.172  1.00  0.00     0.261 C 
HETATM   22  O   UNL     1      28.871  46.086  54.871  1.00  0.00    -0.271 OA
HETATM   23  H   UNL     1      28.418  43.032  55.300  1.00  0.00     0.139 HD
BRANCH  21  24
HETATM   24  C   UNL     1      30.105  44.513  56.100  1.00  0.00     0.137 A 
HETATM   25  O   UNL     1      30.279  45.220  57.261  1.00  0.00    -0.318 OA
HETATM   26  C   UNL     1      31.267  44.602  57.959  1.00  0.00     0.143 A 
HETATM   27  C   UNL     1      31.738  43.512  57.267  1.00  0.00     0.027 A 
HETATM   28  C   UNL     1      30.995  43.457  56.064  1.00  0.00     0.044 A 
ENDBRANCH  21  24
ENDBRANCH  18  20
ENDBRANCH  16  18
ENDBRANCH  11  16
ENDBRANCH   6  10
BRANCH   1  29
HETATM   29  C   UNL     1      21.358  44.903  48.207  1.00  0.00     0.254 C 
BRANCH  29  30
HETATM   30  C   UNL     1      21.886  44.641  46.799  1.00  0.00    -0.023 A 
HETATM   31  C   UNL     1      22.638  43.472  46.558  1.00  0.00     0.009 A 
HETATM   32  C   UNL     1      23.190  43.209  45.302  1.00  0.00     0.001 A 
HETATM   33  C   UNL     1      22.997  44.105  44.257  1.00  0.00     0.000 A 
HETATM   34  C   UNL     1      22.251  45.260  44.465  1.00  0.00     0.001 A 
HETATM   35  C   UNL     1      21.703  45.527  45.723  1.00  0.00     0.009 A 
ENDBRANCH  29  30
BRANCH  29  36
HETATM   36  C   UNL     1      20.109  45.766  48.376  1.00  0.00    -0.023 A 
HETATM   37  C   UNL     1      18.859  45.204  48.032  1.00  0.00     0.009 A 
HETATM   38  C   UNL     1      17.676  45.935  48.152  1.00  0.00     0.001 A 
HETATM   39  C   UNL     1      17.714  47.242  48.620  1.00  0.00     0.000 A 
HETATM   40  C   UNL     1      18.933  47.816  48.966  1.00  0.00     0.001 A 
HETATM   41  C   UNL     1      20.120  47.087  48.848  1.00  0.00     0.009 A 
ENDBRANCH  29  36
ENDBRANCH   1  29
TORSDOF 8
ENDMDL
MODEL 9
REMARK VINA RESULT:      -8.5      3.423      8.753
REMARK  8 active torsions:
REMARK  status: ('A' for Active; 'I' for Inactive)
REMARK    1  A    between atoms: C_4  and  C_5 
REMARK    2  A    between atoms: C_5  and  N_6 
REMARK    3  A    between atoms: C_5  and  C_32 
REMARK       I    between atoms: N_10  and  C_11 
REMARK    4  A    between atoms: C_11  and  C_12 
REMARK    5  A    between atoms: C_13  and  N_14 
REMARK    6  A    between atoms: N_14  and  C_15 
REMARK    7  A    between atoms: C_15  and  N_16 
REMARK       I    between atoms: N_16  and  C_17 
REMARK    8  A    between atoms: C_17  and  C_18 
ROOT
HETATM    1  N   UNL     1      26.551  44.182  50.947  1.00  0.00    -0.056 N 
HETATM    2  H   UNL     1      26.941  45.035  51.360  1.00  0.00     0.281 HD
HETATM    3  C   UNL     1      26.141  44.537  49.516  1.00  0.00     0.256 C 
HETATM    4  C   UNL     1      25.095  45.662  49.535  1.00  0.00     0.154 C 
HETATM    5  N   UNL     1      23.952  45.265  50.360  1.00  0.00    -0.345 N 
HETATM    6  C   UNL     1      22.850  44.544  49.859  1.00  0.00     0.256 C 
HETATM    7  O   UNL     1      22.149  43.859  50.600  1.00  0.00    -0.267 OA
HETATM    8  C   UNL     1      24.315  45.005  51.759  1.00  0.00     0.154 C 
HETATM    9  C   UNL     1      25.335  43.845  51.821  1.00  0.00     0.256 C 
ENDROOT
BRANCH   6  10
HETATM   10  C   UNL     1      22.641  44.454  48.392  1.00  0.00     0.058 A 
HETATM   11  C   UNL     1      22.333  45.540  47.552  1.00  0.00     0.049 A 
HETATM   12  C   UNL     1      22.446  45.372  46.165  1.00  0.00     0.030 A 
HETATM   13  C   UNL     1      22.762  44.125  45.619  1.00  0.00     0.002 A 
HETATM   14  C   UNL     1      22.988  43.034  46.452  1.00  0.00     0.001 A 
HETATM   15  C   UNL     1      22.937  43.197  47.835  1.00  0.00     0.019 A 
BRANCH  11  16
HETATM   16  N   UNL     1      21.969  46.831  47.993  1.00  0.00    -0.337 N 
HETATM   17  H   UNL     1      22.673  47.557  47.908  1.00  0.00     0.168 HD
BRANCH  16  18
HETATM   18  C   UNL     1      20.792  47.257  48.511  1.00  0.00     0.157 C 
HETATM   19  S   UNL     1      19.389  46.449  48.089  1.00  0.00    -0.047 SA
BRANCH  18  20
HETATM   20  N   UNL     1      20.732  48.239  49.453  1.00  0.00    -0.199 NA
HETATM   21  C   UNL     1      19.522  48.734  49.929  1.00  0.00     0.261 C 
HETATM   22  O   UNL     1      18.747  48.096  50.634  1.00  0.00    -0.271 OA
HETATM   23  H   UNL     1      21.342  49.000  49.163  1.00  0.00     0.139 HD
BRANCH  21  24
HETATM   24  C   UNL     1      19.272  50.113  49.556  1.00  0.00     0.137 A 
HETATM   25  O   UNL     1      18.340  50.840  50.251  1.00  0.00    -0.318 OA
HETATM   26  C   UNL     1      18.351  52.097  49.736  1.00  0.00     0.143 A 
HETATM   27  C   UNL     1      19.270  52.194  48.718  1.00  0.00     0.027 A 
HETATM   28  C   UNL     1      19.859  50.914  48.596  1.00  0.00     0.044 A 
ENDBRANCH  21  24
ENDBRANCH  18  20
ENDBRANCH  16  18
ENDBRANCH  11  16
ENDBRANCH   6  10
BRANCH   1  29
HETATM   29  C   UNL     1      27.709  43.180  50.970  1.00  0.00     0.254 C 
BRANCH  29  30
HETATM   30  C   UNL     1      27.392  41.809  50.378  1.00  0.00    -0.023 A 
HETATM   31  C   UNL     1      26.655  40.886  51.150  1.00  0.00     0.009 A 
HETATM   32  C   UNL     1      26.382  39.600  50.679  1.00  0.00     0.001 A 
HETATM   33  C   UNL     1      26.833  39.209  49.424  1.00  0.00     0.000 A 
HETATM   34  C   UNL     1      27.552  40.104  48.638  1.00  0.00     0.001 A 
HETATM   35  C   UNL     1      27.831  41.389  49.110  1.00  0.00     0.009 A 
ENDBRANCH  29  30
BRANCH  29  36
HETATM   36  C   UNL     1      28.517  43.254  52.264  1.00  0.00    -0.023 A 
HETATM   37  C   UNL     1      28.123  44.195  53.243  1.00  0.00     0.009 A 
HETATM   38  C   UNL     1      28.818  44.326  54.446  1.00  0.00     0.001 A 
HETATM   39  C   UNL     1      29.920  43.520  54.700  1.00  0.00     0.000 A 
HETATM   40  C   UNL     1      30.326  42.586  53.752  1.00  0.00     0.001 A 
HETATM   41  C   UNL     1      29.632  42.452  52.546  1.00  0.00     0.009 A 
ENDBRANCH  29  36
ENDBRANCH   1  29
TORSDOF 8
ENDMDL
MODEL 10
REMARK VINA RESULT:      -8.4      3.426      6.398
REMARK  8 active torsions:
REMARK  status: ('A' for Active; 'I' for Inactive)
REMARK    1  A    between atoms: C_4  and  C_5 
REMARK    2  A    between atoms: C_5  and  N_6 
REMARK    3  A    between atoms: C_5  and  C_32 
REMARK       I    between atoms: N_10  and  C_11 
REMARK    4  A    between atoms: C_11  and  C_12 
REMARK    5  A    between atoms: C_13  and  N_14 
REMARK    6  A    between atoms: N_14  and  C_15 
REMARK    7  A    between atoms: C_15  and  N_16 
REMARK       I    between atoms: N_16  and  C_17 
REMARK    8  A    between atoms: C_17  and  C_18 
ROOT
HETATM    1  N   UNL     1      18.549  48.853  47.629  1.00  0.00    -0.056 N 
HETATM    2  H   UNL     1      17.553  48.924  47.398  1.00  0.00     0.281 HD
HETATM    3  C   UNL     1      19.232  48.206  46.422  1.00  0.00     0.256 C 
HETATM    4  C   UNL     1      18.632  46.815  46.165  1.00  0.00     0.154 C 
HETATM    5  N   UNL     1      18.740  45.996  47.374  1.00  0.00    -0.345 N 
HETATM    6  C   UNL     1      19.870  45.213  47.679  1.00  0.00     0.256 C 
HETATM    7  O   UNL     1      20.133  44.901  48.838  1.00  0.00    -0.267 OA
HETATM    8  C   UNL     1      18.014  46.561  48.518  1.00  0.00     0.154 C 
HETATM    9  C   UNL     1      18.600  47.949  48.867  1.00  0.00     0.256 C 
ENDROOT
BRANCH   6  10
HETATM   10  C   UNL     1      20.864  44.916  46.615  1.00  0.00     0.058 A 
HETATM   11  C   UNL     1      22.251  44.803  46.817  1.00  0.00     0.049 A 
HETATM   12  C   UNL     1      23.036  44.241  45.799  1.00  0.00     0.030 A 
HETATM   13  C   UNL     1      22.469  43.891  44.571  1.00  0.00     0.002 A 
HETATM   14  C   UNL     1      21.109  44.080  44.349  1.00  0.00     0.001 A 
HETATM   15  C   UNL     1      20.304  44.582  45.370  1.00  0.00     0.019 A 
BRANCH  11  16
HETATM   16  N   UNL     1      22.933  45.157  48.001  1.00  0.00    -0.337 N 
HETATM   17  H   UNL     1      22.778  46.096  48.353  1.00  0.00     0.168 HD
BRANCH  16  18
HETATM   18  C   UNL     1      23.771  44.411  48.761  1.00  0.00     0.157 C 
HETATM   19  S   UNL     1      23.180  43.020  49.480  1.00  0.00    -0.047 SA
BRANCH  18  20
HETATM   20  N   UNL     1      25.101  44.690  48.855  1.00  0.00    -0.199 NA
HETATM   21  C   UNL     1      25.644  45.335  49.963  1.00  0.00     0.261 C 
HETATM   22  O   UNL     1      25.734  44.830  51.077  1.00  0.00    -0.271 OA
HETATM   23  H   UNL     1      25.395  45.146  47.995  1.00  0.00     0.139 HD
BRANCH  21  24
HETATM   24  C   UNL     1      26.150  46.662  49.671  1.00  0.00     0.137 A 
HETATM   25  O   UNL     1      27.435  46.806  49.214  1.00  0.00    -0.318 OA
HETATM   26  C   UNL     1      27.624  48.129  48.969  1.00  0.00     0.143 A 
HETATM   27  C   UNL     1      26.487  48.843  49.264  1.00  0.00     0.027 A 
HETATM   28  C   UNL     1      25.538  47.899  49.724  1.00  0.00     0.044 A 
ENDBRANCH  21  24
ENDBRANCH  18  20
ENDBRANCH  16  18
ENDBRANCH  11  16
ENDBRANCH   6  10
BRANCH   1  29
HETATM   29  C   UNL     1      19.001  50.304  47.822  1.00  0.00     0.254 C 
BRANCH  29  30
HETATM   30  C   UNL     1      20.444  50.476  48.292  1.00  0.00    -0.023 A 
HETATM   31  C   UNL     1      21.486  50.363  47.348  1.00  0.00     0.009 A 
HETATM   32  C   UNL     1      22.826  50.458  47.732  1.00  0.00     0.001 A 
HETATM   33  C   UNL     1      23.153  50.675  49.066  1.00  0.00     0.000 A 
HETATM   34  C   UNL     1      22.143  50.801  50.014  1.00  0.00     0.001 A 
HETATM   35  C   UNL     1      20.803  50.700  49.632  1.00  0.00     0.009 A 
ENDBRANCH  29  30
BRANCH  29  36
HETATM   36  C   UNL     1      17.914  51.174  48.450  1.00  0.00    -0.023 A 
HETATM   37  C   UNL     1      16.568  50.911  48.106  1.00  0.00     0.009 A 
HETATM   38  C   UNL     1      15.522  51.669  48.633  1.00  0.00     0.001 A 
HETATM   39  C   UNL     1      15.794  52.706  49.516  1.00  0.00     0.000 A 
HETATM   40  C   UNL     1      17.111  52.983  49.870  1.00  0.00     0.001 A 
HETATM   41  C   UNL     1      18.162  52.225  49.345  1.00  0.00     0.009 A 
ENDBRANCH  29  36
ENDBRANCH   1  29
TORSDOF 8
ENDMDL
