MODEL 1
REMARK VINA RESULT:      -7.9      0.000      0.000
REMARK  6 active torsions:
REMARK  status: ('A' for Active; 'I' for Inactive)
REMARK    1  A    between atoms: C_2  and  N_3 
REMARK    2  A    between atoms: N_3  and  C_5 
REMARK    3  A    between atoms: N_3  and  C_28 
REMARK    4  A    between atoms: C_8  and  C_9 
REMARK    5  A    between atoms: N_10  and  C_11 
REMARK    6  A    between atoms: C_11  and  C_12 
ROOT
HETATM    1  C   UNL     1      26.824  44.328  53.245  1.00  0.00     0.199 C 
HETATM    2  N   UNL     1      26.680  45.726  53.609  1.00  0.00    -0.321 N 
HETATM    3  C   UNL     1      27.339  46.173  54.753  1.00  0.00     0.257 C 
HETATM    4  O   UNL     1      27.007  47.172  55.384  1.00  0.00    -0.267 OA
HETATM    5  C   UNL     1      28.525  45.397  55.177  1.00  0.00     0.053 A 
HETATM    6  C   UNL     1      28.943  44.336  54.367  1.00  0.00     0.026 A 
HETATM    7  N   UNL     1      28.246  44.003  53.189  1.00  0.00    -0.266 NA
HETATM    8  C   UNL     1      29.242  45.761  56.322  1.00  0.00     0.019 A 
HETATM    9  C   UNL     1      30.419  45.086  56.643  1.00  0.00     0.001 A 
HETATM   10  C   UNL     1      30.881  44.069  55.809  1.00  0.00     0.002 A 
HETATM   11  C   UNL     1      30.155  43.706  54.670  1.00  0.00     0.024 A 
HETATM   12  H   UNL     1      28.411  43.035  52.932  1.00  0.00     0.130 HD
ENDROOT
BRANCH   1  13
HETATM   13  C   UNL     1      26.212  43.932  51.905  1.00  0.00    -0.021 A 
HETATM   14  C   UNL     1      26.954  43.978  50.716  1.00  0.00     0.013 A 
HETATM   15  C   UNL     1      26.350  43.704  49.484  1.00  0.00     0.038 A 
HETATM   16  C   UNL     1      25.004  43.318  49.411  1.00  0.00     0.134 A 
HETATM   17  C   UNL     1      24.273  43.227  50.599  1.00  0.00     0.038 A 
HETATM   18  C   UNL     1      24.867  43.540  51.830  1.00  0.00     0.013 A 
BRANCH  16  19
HETATM   19  N   UNL     1      24.404  43.086  48.059  1.00  0.00    -0.042 N 
HETATM   20  H   UNL     1      25.213  43.141  47.424  1.00  0.00     0.286 HD
BRANCH  19  21
HETATM   21  C   UNL     1      23.428  44.135  47.569  1.00  0.00     0.237 C 
HETATM   22  C   UNL     1      22.195  43.500  46.949  1.00  0.00     0.035 C 
ENDBRANCH  19  21
BRANCH  19  23
HETATM   23  C   UNL     1      23.856  41.678  47.899  1.00  0.00     0.237 C 
HETATM   24  C   UNL     1      24.940  40.615  47.916  1.00  0.00     0.035 C 
ENDBRANCH  19  23
ENDBRANCH  16  19
ENDBRANCH   1  13
BRANCH   2  25
HETATM   25  C   UNL     1      25.543  46.516  53.149  1.00  0.00     0.193 C 
BRANCH  25  26
HETATM   26  C   UNL     1      25.730  47.029  51.766  1.00  0.00     0.070 A 
HETATM   27  O   UNL     1      24.676  46.880  50.910  1.00  0.00    -0.325 OA
HETATM   28  C   UNL     1      25.087  47.327  49.696  1.00  0.00     0.142 A 
HETATM   29  C   UNL     1      26.382  47.787  49.764  1.00  0.00     0.027 A 
HETATM   30  C   UNL     1      26.799  47.596  51.104  1.00  0.00     0.036 A 
ENDBRANCH  25  26
ENDBRANCH   2  25
TORSDOF 6
ENDMDL
MODEL 2
REMARK VINA RESULT:      -7.4     12.414     13.586
REMARK  6 active torsions:
REMARK  status: ('A' for Active; 'I' for Inactive)
REMARK    1  A    between atoms: C_2  and  N_3 
REMARK    2  A    between atoms: N_3  and  C_5 
REMARK    3  A    between atoms: N_3  and  C_28 
REMARK    4  A    between atoms: C_8  and  C_9 
REMARK    5  A    between atoms: N_10  and  C_11 
REMARK    6  A    between atoms: C_11  and  C_12 
ROOT
HETATM    1  C   UNL     1      32.850  49.835  41.529  1.00  0.00     0.199 C 
HETATM    2  N   UNL     1      32.638  51.000  42.368  1.00  0.00    -0.321 N 
HETATM    3  C   UNL     1      33.742  51.537  43.029  1.00  0.00     0.257 C 
HETATM    4  O   UNL     1      33.660  52.233  44.037  1.00  0.00    -0.267 OA
HETATM    5  C   UNL     1      35.066  51.265  42.430  1.00  0.00     0.053 A 
HETATM    6  C   UNL     1      35.111  50.568  41.217  1.00  0.00     0.026 A 
HETATM    7  N   UNL     1      33.931  50.124  40.592  1.00  0.00    -0.266 NA
HETATM    8  C   UNL     1      36.233  51.750  43.031  1.00  0.00     0.019 A 
HETATM    9  C   UNL     1      37.461  51.577  42.394  1.00  0.00     0.001 A 
HETATM   10  C   UNL     1      37.512  50.943  41.154  1.00  0.00     0.002 A 
HETATM   11  C   UNL     1      36.343  50.453  40.563  1.00  0.00     0.024 A 
HETATM   12  H   UNL     1      34.122  49.344  39.970  1.00  0.00     0.130 HD
ENDROOT
BRANCH   1  13
HETATM   13  C   UNL     1      31.643  49.386  40.711  1.00  0.00    -0.021 A 
HETATM   14  C   UNL     1      31.403  49.885  39.422  1.00  0.00     0.013 A 
HETATM   15  C   UNL     1      30.241  49.536  38.725  1.00  0.00     0.038 A 
HETATM   16  C   UNL     1      29.317  48.634  39.270  1.00  0.00     0.134 A 
HETATM   17  C   UNL     1      29.575  48.100  40.536  1.00  0.00     0.038 A 
HETATM   18  C   UNL     1      30.719  48.480  41.251  1.00  0.00     0.013 A 
BRANCH  16  19
HETATM   19  N   UNL     1      28.069  48.339  38.495  1.00  0.00    -0.042 N 
HETATM   20  H   UNL     1      28.311  48.621  37.534  1.00  0.00     0.286 HD
BRANCH  19  21
HETATM   21  C   UNL     1      26.844  49.150  38.862  1.00  0.00     0.237 C 
HETATM   22  C   UNL     1      26.883  50.531  38.231  1.00  0.00     0.035 C 
ENDBRANCH  19  21
BRANCH  19  23
HETATM   23  C   UNL     1      27.769  46.852  38.420  1.00  0.00     0.237 C 
HETATM   24  C   UNL     1      28.767  46.087  37.569  1.00  0.00     0.035 C 
ENDBRANCH  19  23
ENDBRANCH  16  19
ENDBRANCH   1  13
BRANCH   2  25
HETATM   25  C   UNL     1      31.323  51.309  42.918  1.00  0.00     0.193 C 
BRANCH  25  26
HETATM   26  C   UNL     1      30.497  52.127  41.990  1.00  0.00     0.070 A 
HETATM   27  O   UNL     1      29.192  51.753  41.839  1.00  0.00    -0.325 OA
HETATM   28  C   UNL     1      28.655  52.566  40.895  1.00  0.00     0.142 A 
HETATM   29  C   UNL     1      29.587  53.476  40.454  1.00  0.00     0.027 A 
HETATM   30  C   UNL     1      30.780  53.195  41.164  1.00  0.00     0.036 A 
ENDBRANCH  25  26
ENDBRANCH   2  25
TORSDOF 6
ENDMDL
MODEL 3
REMARK VINA RESULT:      -7.3     11.752     13.330
REMARK  6 active torsions:
REMARK  status: ('A' for Active; 'I' for Inactive)
REMARK    1  A    between atoms: C_2  and  N_3 
REMARK    2  A    between atoms: N_3  and  C_5 
REMARK    3  A    between atoms: N_3  and  C_28 
REMARK    4  A    between atoms: C_8  and  C_9 
REMARK    5  A    between atoms: N_10  and  C_11 
REMARK    6  A    between atoms: C_11  and  C_12 
ROOT
HETATM    1  C   UNL     1      30.681  51.178  41.091  1.00  0.00     0.199 C 
HETATM    2  N   UNL     1      31.748  50.486  40.389  1.00  0.00    -0.321 N 
HETATM    3  C   UNL     1      33.062  50.783  40.746  1.00  0.00     0.257 C 
HETATM    4  O   UNL     1      34.026  50.596  40.010  1.00  0.00    -0.267 OA
HETATM    5  C   UNL     1      33.272  51.314  42.111  1.00  0.00     0.053 A 
HETATM    6  C   UNL     1      32.164  51.403  42.961  1.00  0.00     0.026 A 
HETATM    7  N   UNL     1      30.883  51.013  42.527  1.00  0.00    -0.266 NA
HETATM    8  C   UNL     1      34.554  51.656  42.553  1.00  0.00     0.019 A 
HETATM    9  C   UNL     1      34.746  52.050  43.877  1.00  0.00     0.001 A 
HETATM   10  C   UNL     1      33.662  52.080  44.752  1.00  0.00     0.002 A 
HETATM   11  C   UNL     1      32.381  51.745  44.300  1.00  0.00     0.024 A 
HETATM   12  H   UNL     1      30.160  51.472  43.073  1.00  0.00     0.130 HD
ENDROOT
BRANCH   1  13
HETATM   13  C   UNL     1      29.268  50.701  40.769  1.00  0.00    -0.021 A 
HETATM   14  C   UNL     1      28.656  49.672  41.499  1.00  0.00     0.013 A 
HETATM   15  C   UNL     1      27.398  49.182  41.130  1.00  0.00     0.038 A 
HETATM   16  C   UNL     1      26.690  49.749  40.060  1.00  0.00     0.134 A 
HETATM   17  C   UNL     1      27.277  50.806  39.359  1.00  0.00     0.038 A 
HETATM   18  C   UNL     1      28.555  51.270  39.704  1.00  0.00     0.013 A 
BRANCH  16  19
HETATM   19  N   UNL     1      25.371  49.149  39.684  1.00  0.00    -0.042 N 
HETATM   20  H   UNL     1      24.730  49.503  40.409  1.00  0.00     0.286 HD
BRANCH  19  21
HETATM   21  C   UNL     1      25.274  47.639  39.758  1.00  0.00     0.237 C 
HETATM   22  C   UNL     1      24.233  47.199  40.772  1.00  0.00     0.035 C 
ENDBRANCH  19  21
BRANCH  19  23
HETATM   23  C   UNL     1      24.838  49.692  38.370  1.00  0.00     0.237 C 
HETATM   24  C   UNL     1      23.364  50.050  38.429  1.00  0.00     0.035 C 
ENDBRANCH  19  23
ENDBRANCH  16  19
ENDBRANCH   1  13
BRANCH   2  25
HETATM   25  C   UNL     1      31.535  49.910  39.066  1.00  0.00     0.193 C 
BRANCH  25  26
HETATM   26  C   UNL     1      30.904  48.565  39.128  1.00  0.00     0.070 A 
HETATM   27  O   UNL     1      29.871  48.332  38.264  1.00  0.00    -0.325 OA
HETATM   28  C   UNL     1      29.390  47.095  38.547  1.00  0.00     0.142 A 
HETATM   29  C   UNL     1      30.114  46.516  39.564  1.00  0.00     0.027 A 
HETATM   30  C   UNL     1      31.096  47.466  39.939  1.00  0.00     0.036 A 
ENDBRANCH  25  26
ENDBRANCH   2  25
TORSDOF 6
ENDMDL
MODEL 4
REMARK VINA RESULT:      -7.3      1.649      2.438
REMARK  6 active torsions:
REMARK  status: ('A' for Active; 'I' for Inactive)
REMARK    1  A    between atoms: C_2  and  N_3 
REMARK    2  A    between atoms: N_3  and  C_5 
REMARK    3  A    between atoms: N_3  and  C_28 
REMARK    4  A    between atoms: C_8  and  C_9 
REMARK    5  A    between atoms: N_10  and  C_11 
REMARK    6  A    between atoms: C_11  and  C_12 
ROOT
HETATM    1  C   UNL     1      26.026  44.346  52.282  1.00  0.00     0.199 C 
HETATM    2  N   UNL     1      25.765  45.761  52.088  1.00  0.00    -0.321 N 
HETATM    3  C   UNL     1      26.036  46.625  53.148  1.00  0.00     0.257 C 
HETATM    4  O   UNL     1      25.517  47.729  53.275  1.00  0.00    -0.267 OA
HETATM    5  C   UNL     1      27.040  46.167  54.133  1.00  0.00     0.053 A 
HETATM    6  C   UNL     1      27.695  44.954  53.890  1.00  0.00     0.026 A 
HETATM    7  N   UNL     1      27.398  44.183  52.750  1.00  0.00    -0.266 NA
HETATM    8  C   UNL     1      27.366  46.959  55.238  1.00  0.00     0.019 A 
HETATM    9  C   UNL     1      28.392  46.561  56.094  1.00  0.00     0.001 A 
HETATM   10  C   UNL     1      29.098  45.389  55.828  1.00  0.00     0.002 A 
HETATM   11  C   UNL     1      28.760  44.597  54.725  1.00  0.00     0.024 A 
HETATM   12  H   UNL     1      27.643  43.209  52.898  1.00  0.00     0.130 HD
ENDROOT
BRANCH   1  13
HETATM   13  C   UNL     1      25.859  43.472  51.042  1.00  0.00    -0.021 A 
HETATM   14  C   UNL     1      24.679  42.753  50.804  1.00  0.00     0.013 A 
HETATM   15  C   UNL     1      24.579  41.882  49.713  1.00  0.00     0.038 A 
HETATM   16  C   UNL     1      25.632  41.753  48.796  1.00  0.00     0.134 A 
HETATM   17  C   UNL     1      26.793  42.502  49.005  1.00  0.00     0.038 A 
HETATM   18  C   UNL     1      26.909  43.344  50.120  1.00  0.00     0.013 A 
BRANCH  16  19
HETATM   19  N   UNL     1      25.482  40.768  47.677  1.00  0.00    -0.042 N 
HETATM   20  H   UNL     1      25.970  41.222  46.891  1.00  0.00     0.286 HD
BRANCH  19  21
HETATM   21  C   UNL     1      24.071  40.515  47.190  1.00  0.00     0.237 C 
HETATM   22  C   UNL     1      23.963  39.180  46.473  1.00  0.00     0.035 C 
ENDBRANCH  19  21
BRANCH  19  23
HETATM   23  C   UNL     1      26.239  39.476  47.934  1.00  0.00     0.237 C 
HETATM   24  C   UNL     1      27.586  39.429  47.236  1.00  0.00     0.035 C 
ENDBRANCH  19  23
ENDBRANCH  16  19
ENDBRANCH   1  13
BRANCH   2  25
HETATM   25  C   UNL     1      24.818  46.226  51.080  1.00  0.00     0.193 C 
BRANCH  25  26
HETATM   26  C   UNL     1      25.406  47.253  50.180  1.00  0.00     0.070 A 
HETATM   27  O   UNL     1      26.754  47.178  49.962  1.00  0.00    -0.325 OA
HETATM   28  C   UNL     1      27.090  48.246  49.196  1.00  0.00     0.142 A 
HETATM   29  C   UNL     1      25.975  48.994  48.894  1.00  0.00     0.027 A 
HETATM   30  C   UNL     1      24.884  48.350  49.528  1.00  0.00     0.036 A 
ENDBRANCH  25  26
ENDBRANCH   2  25
TORSDOF 6
ENDMDL
MODEL 5
REMARK VINA RESULT:      -7.2      2.087      3.005
REMARK  6 active torsions:
REMARK  status: ('A' for Active; 'I' for Inactive)
REMARK    1  A    between atoms: C_2  and  N_3 
REMARK    2  A    between atoms: N_3  and  C_5 
REMARK    3  A    between atoms: N_3  and  C_28 
REMARK    4  A    between atoms: C_8  and  C_9 
REMARK    5  A    between atoms: N_10  and  C_11 
REMARK    6  A    between atoms: C_11  and  C_12 
ROOT
HETATM    1  C   UNL     1      27.618  42.889  53.214  1.00  0.00     0.199 C 
HETATM    2  N   UNL     1      27.144  44.260  53.148  1.00  0.00    -0.321 N 
HETATM    3  C   UNL     1      27.476  45.115  54.197  1.00  0.00     0.257 C 
HETATM    4  O   UNL     1      26.846  46.132  54.472  1.00  0.00    -0.267 OA
HETATM    5  C   UNL     1      28.685  44.767  54.976  1.00  0.00     0.053 A 
HETATM    6  C   UNL     1      29.442  43.666  54.559  1.00  0.00     0.026 A 
HETATM    7  N   UNL     1      29.059  42.902  53.441  1.00  0.00    -0.266 NA
HETATM    8  C   UNL     1      29.088  45.557  56.057  1.00  0.00     0.019 A 
HETATM    9  C   UNL     1      30.288  45.275  56.709  1.00  0.00     0.001 A 
HETATM   10  C   UNL     1      31.085  44.223  56.263  1.00  0.00     0.002 A 
HETATM   11  C   UNL     1      30.671  43.432  55.186  1.00  0.00     0.024 A 
HETATM   12  H   UNL     1      29.451  41.967  53.490  1.00  0.00     0.130 HD
ENDROOT
BRANCH   1  13
HETATM   13  C   UNL     1      27.358  42.045  51.969  1.00  0.00    -0.021 A 
HETATM   14  C   UNL     1      26.092  41.993  51.369  1.00  0.00     0.013 A 
HETATM   15  C   UNL     1      25.848  41.140  50.286  1.00  0.00     0.038 A 
HETATM   16  C   UNL     1      26.876  40.362  49.736  1.00  0.00     0.134 A 
HETATM   17  C   UNL     1      28.150  40.445  50.304  1.00  0.00     0.038 A 
HETATM   18  C   UNL     1      28.386  41.269  51.413  1.00  0.00     0.013 A 
BRANCH  16  19
HETATM   19  N   UNL     1      26.539  39.433  48.611  1.00  0.00    -0.042 N 
HETATM   20  H   UNL     1      25.519  39.316  48.692  1.00  0.00     0.286 HD
BRANCH  19  21
HETATM   21  C   UNL     1      27.117  38.036  48.697  1.00  0.00     0.237 C 
HETATM   22  C   UNL     1      28.171  37.804  47.628  1.00  0.00     0.035 C 
ENDBRANCH  19  21
BRANCH  19  23
HETATM   23  C   UNL     1      26.770  40.063  47.248  1.00  0.00     0.237 C 
HETATM   24  C   UNL     1      25.485  40.517  46.579  1.00  0.00     0.035 C 
ENDBRANCH  19  23
ENDBRANCH  16  19
ENDBRANCH   1  13
BRANCH   2  25
HETATM   25  C   UNL     1      25.987  44.624  52.338  1.00  0.00     0.193 C 
BRANCH  25  26
HETATM   26  C   UNL     1      26.323  45.612  51.279  1.00  0.00     0.070 A 
HETATM   27  O   UNL     1      25.849  46.882  51.452  1.00  0.00    -0.325 OA
HETATM   28  C   UNL     1      26.191  47.585  50.343  1.00  0.00     0.142 A 
HETATM   29  C   UNL     1      26.901  46.795  49.469  1.00  0.00     0.027 A 
HETATM   30  C   UNL     1      26.989  45.518  50.074  1.00  0.00     0.036 A 
ENDBRANCH  25  26
ENDBRANCH   2  25
TORSDOF 6
ENDMDL
MODEL 6
REMARK VINA RESULT:      -7.2     13.417     15.923
REMARK  6 active torsions:
REMARK  status: ('A' for Active; 'I' for Inactive)
REMARK    1  A    between atoms: C_2  and  N_3 
REMARK    2  A    between atoms: N_3  and  C_5 
REMARK    3  A    between atoms: N_3  and  C_28 
REMARK    4  A    between atoms: C_8  and  C_9 
REMARK    5  A    between atoms: N_10  and  C_11 
REMARK    6  A    between atoms: C_11  and  C_12 
ROOT
HETATM    1  C   UNL     1      34.232  52.393  39.288  1.00  0.00     0.199 C 
HETATM    2  N   UNL     1      35.035  51.868  40.378  1.00  0.00    -0.321 N 
HETATM    3  C   UNL     1      36.380  52.229  40.430  1.00  0.00     0.257 C 
HETATM    4  O   UNL     1      37.236  51.581  41.023  1.00  0.00    -0.267 OA
HETATM    5  C   UNL     1      36.751  53.492  39.755  1.00  0.00     0.053 A 
HETATM    6  C   UNL     1      35.728  54.263  39.191  1.00  0.00     0.026 A 
HETATM    7  N   UNL     1      34.386  53.843  39.250  1.00  0.00    -0.266 NA
HETATM    8  C   UNL     1      38.080  53.928  39.741  1.00  0.00     0.019 A 
HETATM    9  C   UNL     1      38.392  55.173  39.196  1.00  0.00     0.001 A 
HETATM   10  C   UNL     1      37.375  55.980  38.690  1.00  0.00     0.002 A 
HETATM   11  C   UNL     1      36.049  55.534  38.700  1.00  0.00     0.024 A 
HETATM   12  H   UNL     1      33.840  54.270  38.508  1.00  0.00     0.130 HD
ENDROOT
BRANCH   1  13
HETATM   13  C   UNL     1      32.738  52.092  39.369  1.00  0.00    -0.021 A 
HETATM   14  C   UNL     1      31.879  52.853  40.175  1.00  0.00     0.013 A 
HETATM   15  C   UNL     1      30.531  52.504  40.312  1.00  0.00     0.038 A 
HETATM   16  C   UNL     1      29.990  51.424  39.599  1.00  0.00     0.134 A 
HETATM   17  C   UNL     1      30.834  50.692  38.759  1.00  0.00     0.038 A 
HETATM   18  C   UNL     1      32.193  51.016  38.653  1.00  0.00     0.013 A 
BRANCH  16  19
HETATM   19  N   UNL     1      28.552  51.072  39.826  1.00  0.00    -0.042 N 
HETATM   20  H   UNL     1      28.052  51.943  39.596  1.00  0.00     0.286 HD
BRANCH  19  21
HETATM   21  C   UNL     1      28.159  50.741  41.250  1.00  0.00     0.237 C 
HETATM   22  C   UNL     1      28.911  49.526  41.765  1.00  0.00     0.035 C 
ENDBRANCH  19  21
BRANCH  19  23
HETATM   23  C   UNL     1      28.044  50.038  38.837  1.00  0.00     0.237 C 
HETATM   24  C   UNL     1      26.749  50.450  38.160  1.00  0.00     0.035 C 
ENDBRANCH  19  23
ENDBRANCH  16  19
ENDBRANCH   1  13
BRANCH   2  25
HETATM   25  C   UNL     1      34.647  50.654  41.088  1.00  0.00     0.193 C 
BRANCH  25  26
HETATM   26  C   UNL     1      33.875  50.942  42.326  1.00  0.00     0.070 A 
HETATM   27  O   UNL     1      32.655  50.338  42.442  1.00  0.00    -0.325 OA
HETATM   28  C   UNL     1      32.091  50.802  43.586  1.00  0.00     0.142 A 
HETATM   29  C   UNL     1      32.942  51.676  44.223  1.00  0.00     0.027 A 
HETATM   30  C   UNL     1      34.098  51.766  43.410  1.00  0.00     0.036 A 
ENDBRANCH  25  26
ENDBRANCH   2  25
TORSDOF 6
ENDMDL
MODEL 7
REMARK VINA RESULT:      -7.2      9.645     13.154
REMARK  6 active torsions:
REMARK  status: ('A' for Active; 'I' for Inactive)
REMARK    1  A    between atoms: C_2  and  N_3 
REMARK    2  A    between atoms: N_3  and  C_5 
REMARK    3  A    between atoms: N_3  and  C_28 
REMARK    4  A    between atoms: C_8  and  C_9 
REMARK    5  A    between atoms: N_10  and  C_11 
REMARK    6  A    between atoms: C_11  and  C_12 
ROOT
HETATM    1  C   UNL     1      16.598  51.958  49.438  1.00  0.00     0.199 C 
HETATM    2  N   UNL     1      16.151  52.399  48.128  1.00  0.00    -0.321 N 
HETATM    3  C   UNL     1      14.934  53.072  48.047  1.00  0.00     0.257 C 
HETATM    4  O   UNL     1      14.263  53.145  47.022  1.00  0.00    -0.267 OA
HETATM    5  C   UNL     1      14.476  53.758  49.275  1.00  0.00     0.053 A 
HETATM    6  C   UNL     1      15.324  53.752  50.389  1.00  0.00     0.026 A 
HETATM    7  N   UNL     1      16.570  53.098  50.349  1.00  0.00    -0.266 NA
HETATM    8  C   UNL     1      13.259  54.447  49.294  1.00  0.00     0.019 A 
HETATM    9  C   UNL     1      12.898  55.179  50.425  1.00  0.00     0.001 A 
HETATM   10  C   UNL     1      13.762  55.235  51.517  1.00  0.00     0.002 A 
HETATM   11  C   UNL     1      14.974  54.537  51.493  1.00  0.00     0.024 A 
HETATM   12  H   UNL     1      16.880  52.852  51.284  1.00  0.00     0.130 HD
ENDROOT
BRANCH   1  13
HETATM   13  C   UNL     1      18.004  51.368  49.487  1.00  0.00    -0.021 A 
HETATM   14  C   UNL     1      19.113  52.071  48.995  1.00  0.00     0.013 A 
HETATM   15  C   UNL     1      20.380  51.476  48.960  1.00  0.00     0.038 A 
HETATM   16  C   UNL     1      20.585  50.187  49.472  1.00  0.00     0.134 A 
HETATM   17  C   UNL     1      19.490  49.501  50.005  1.00  0.00     0.038 A 
HETATM   18  C   UNL     1      18.214  50.081  50.003  1.00  0.00     0.013 A 
BRANCH  16  19
HETATM   19  N   UNL     1      21.953  49.588  49.361  1.00  0.00    -0.042 N 
HETATM   20  H   UNL     1      22.061  49.069  50.245  1.00  0.00     0.286 HD
BRANCH  19  21
HETATM   21  C   UNL     1      23.111  50.563  49.318  1.00  0.00     0.237 C 
HETATM   22  C   UNL     1      23.832  50.508  47.982  1.00  0.00     0.035 C 
ENDBRANCH  19  21
BRANCH  19  23
HETATM   23  C   UNL     1      22.043  48.544  48.262  1.00  0.00     0.237 C 
HETATM   24  C   UNL     1      22.379  47.159  48.786  1.00  0.00     0.035 C 
ENDBRANCH  19  23
ENDBRANCH  16  19
ENDBRANCH   1  13
BRANCH   2  25
HETATM   25  C   UNL     1      16.640  51.765  46.908  1.00  0.00     0.193 C 
BRANCH  25  26
HETATM   26  C   UNL     1      16.363  50.305  46.877  1.00  0.00     0.070 A 
HETATM   27  O   UNL     1      17.419  49.487  46.589  1.00  0.00    -0.325 OA
HETATM   28  C   UNL     1      16.933  48.221  46.524  1.00  0.00     0.142 A 
HETATM   29  C   UNL     1      15.583  48.208  46.793  1.00  0.00     0.027 A 
HETATM   30  C   UNL     1      15.214  49.556  47.024  1.00  0.00     0.036 A 
ENDBRANCH  25  26
ENDBRANCH   2  25
TORSDOF 6
ENDMDL
MODEL 8
REMARK VINA RESULT:      -7.2     16.561     18.990
REMARK  6 active torsions:
REMARK  status: ('A' for Active; 'I' for Inactive)
REMARK    1  A    between atoms: C_2  and  N_3 
REMARK    2  A    between atoms: N_3  and  C_5 
REMARK    3  A    between atoms: N_3  and  C_28 
REMARK    4  A    between atoms: C_8  and  C_9 
REMARK    5  A    between atoms: N_10  and  C_11 
REMARK    6  A    between atoms: C_11  and  C_12 
ROOT
HETATM    1  C   UNL     1      37.271  48.532  65.899  1.00  0.00     0.199 C 
HETATM    2  N   UNL     1      38.479  49.330  65.787  1.00  0.00    -0.321 N 
HETATM    3  C   UNL     1      38.490  50.586  66.392  1.00  0.00     0.257 C 
HETATM    4  O   UNL     1      39.244  51.495  66.061  1.00  0.00    -0.267 OA
HETATM    5  C   UNL     1      37.552  50.783  67.519  1.00  0.00     0.053 A 
HETATM    6  C   UNL     1      36.792  49.688  67.944  1.00  0.00     0.026 A 
HETATM    7  N   UNL     1      36.903  48.437  67.308  1.00  0.00    -0.266 NA
HETATM    8  C   UNL     1      37.480  52.015  68.178  1.00  0.00     0.019 A 
HETATM    9  C   UNL     1      36.671  52.148  69.306  1.00  0.00     0.001 A 
HETATM   10  C   UNL     1      35.959  51.047  69.779  1.00  0.00     0.002 A 
HETATM   11  C   UNL     1      36.030  49.821  69.110  1.00  0.00     0.024 A 
HETATM   12  H   UNL     1      36.065  47.882  67.451  1.00  0.00     0.130 HD
ENDROOT
BRANCH   1  13
HETATM   13  C   UNL     1      37.371  47.111  65.354  1.00  0.00    -0.021 A 
HETATM   14  C   UNL     1      36.829  46.762  64.109  1.00  0.00     0.013 A 
HETATM   15  C   UNL     1      36.845  45.434  63.668  1.00  0.00     0.038 A 
HETATM   16  C   UNL     1      37.457  44.429  64.430  1.00  0.00     0.134 A 
HETATM   17  C   UNL     1      38.039  44.781  65.651  1.00  0.00     0.038 A 
HETATM   18  C   UNL     1      37.988  46.104  66.112  1.00  0.00     0.013 A 
BRANCH  16  19
HETATM   19  N   UNL     1      37.398  43.020  63.927  1.00  0.00    -0.042 N 
HETATM   20  H   UNL     1      36.636  43.044  63.234  1.00  0.00     0.286 HD
BRANCH  19  21
HETATM   21  C   UNL     1      36.999  41.963  64.935  1.00  0.00     0.237 C 
HETATM   22  C   UNL     1      35.532  42.080  65.311  1.00  0.00     0.035 C 
ENDBRANCH  19  21
BRANCH  19  23
HETATM   23  C   UNL     1      38.643  42.627  63.149  1.00  0.00     0.237 C 
HETATM   24  C   UNL     1      38.943  41.141  63.221  1.00  0.00     0.035 C 
ENDBRANCH  19  23
ENDBRANCH  16  19
ENDBRANCH   1  13
BRANCH   2  25
HETATM   25  C   UNL     1      39.439  49.106  64.712  1.00  0.00     0.193 C 
BRANCH  25  26
HETATM   26  C   UNL     1      40.591  48.272  65.144  1.00  0.00     0.070 A 
HETATM   27  O   UNL     1      41.088  47.389  64.226  1.00  0.00    -0.325 OA
HETATM   28  C   UNL     1      42.061  46.678  64.848  1.00  0.00     0.142 A 
HETATM   29  C   UNL     1      42.218  47.106  66.146  1.00  0.00     0.027 A 
HETATM   30  C   UNL     1      41.269  48.140  66.338  1.00  0.00     0.036 A 
ENDBRANCH  25  26
ENDBRANCH   2  25
TORSDOF 6
ENDMDL
MODEL 9
REMARK VINA RESULT:      -7.0     12.245     13.148
REMARK  6 active torsions:
REMARK  status: ('A' for Active; 'I' for Inactive)
REMARK    1  A    between atoms: C_2  and  N_3 
REMARK    2  A    between atoms: N_3  and  C_5 
REMARK    3  A    between atoms: N_3  and  C_28 
REMARK    4  A    between atoms: C_8  and  C_9 
REMARK    5  A    between atoms: N_10  and  C_11 
REMARK    6  A    between atoms: C_11  and  C_12 
ROOT
HETATM    1  C   UNL     1      31.174  49.070  41.410  1.00  0.00     0.199 C 
HETATM    2  N   UNL     1      30.721  50.430  41.639  1.00  0.00    -0.321 N 
HETATM    3  C   UNL     1      31.560  51.286  42.349  1.00  0.00     0.257 C 
HETATM    4  O   UNL     1      31.168  52.287  42.942  1.00  0.00    -0.267 OA
HETATM    5  C   UNL     1      33.003  50.961  42.332  1.00  0.00     0.053 A 
HETATM    6  C   UNL     1      33.425  49.881  41.549  1.00  0.00     0.026 A 
HETATM    7  N   UNL     1      32.503  49.115  40.810  1.00  0.00    -0.266 NA
HETATM    8  C   UNL     1      33.920  51.754  43.029  1.00  0.00     0.019 A 
HETATM    9  C   UNL     1      35.285  51.496  42.911  1.00  0.00     0.001 A 
HETATM   10  C   UNL     1      35.724  50.464  42.083  1.00  0.00     0.002 A 
HETATM   11  C   UNL     1      34.800  49.671  41.395  1.00  0.00     0.024 A 
HETATM   12  H   UNL     1      32.873  48.188  40.620  1.00  0.00     0.130 HD
ENDROOT
BRANCH   1  13
HETATM   13  C   UNL     1      30.288  48.227  40.497  1.00  0.00    -0.021 A 
HETATM   14  C   UNL     1      29.130  47.598  40.975  1.00  0.00     0.013 A 
HETATM   15  C   UNL     1      28.382  46.752  40.149  1.00  0.00     0.038 A 
HETATM   16  C   UNL     1      28.736  46.560  38.806  1.00  0.00     0.134 A 
HETATM   17  C   UNL     1      29.864  47.221  38.313  1.00  0.00     0.038 A 
HETATM   18  C   UNL     1      30.636  48.038  39.152  1.00  0.00     0.013 A 
BRANCH  16  19
HETATM   19  N   UNL     1      27.924  45.604  37.987  1.00  0.00    -0.042 N 
HETATM   20  H   UNL     1      28.361  45.654  37.055  1.00  0.00     0.286 HD
BRANCH  19  21
HETATM   21  C   UNL     1      26.469  45.969  37.775  1.00  0.00     0.237 C 
HETATM   22  C   UNL     1      26.331  47.267  36.999  1.00  0.00     0.035 C 
ENDBRANCH  19  21
BRANCH  19  23
HETATM   23  C   UNL     1      28.091  44.163  38.438  1.00  0.00     0.237 C 
HETATM   24  C   UNL     1      29.403  43.548  37.985  1.00  0.00     0.035 C 
ENDBRANCH  19  23
ENDBRANCH  16  19
ENDBRANCH   1  13
BRANCH   2  25
HETATM   25  C   UNL     1      29.303  50.773  41.602  1.00  0.00     0.193 C 
BRANCH  25  26
HETATM   26  C   UNL     1      28.908  51.418  40.322  1.00  0.00     0.070 A 
HETATM   27  O   UNL     1      27.993  50.751  39.557  1.00  0.00    -0.325 OA
HETATM   28  C   UNL     1      27.845  51.461  38.410  1.00  0.00     0.142 A 
HETATM   29  C   UNL     1      28.631  52.590  38.436  1.00  0.00     0.027 A 
HETATM   30  C   UNL     1      29.318  52.564  39.674  1.00  0.00     0.036 A 
ENDBRANCH  25  26
ENDBRANCH   2  25
TORSDOF 6
ENDMDL
MODEL 10
REMARK VINA RESULT:      -6.9     16.545     19.491
REMARK  6 active torsions:
REMARK  status: ('A' for Active; 'I' for Inactive)
REMARK    1  A    between atoms: C_2  and  N_3 
REMARK    2  A    between atoms: N_3  and  C_5 
REMARK    3  A    between atoms: N_3  and  C_28 
REMARK    4  A    between atoms: C_8  and  C_9 
REMARK    5  A    between atoms: N_10  and  C_11 
REMARK    6  A    between atoms: C_11  and  C_12 
ROOT
HETATM    1  C   UNL     1      40.671  43.142  64.275  1.00  0.00     0.199 C 
HETATM    2  N   UNL     1      39.492  42.709  63.545  1.00  0.00    -0.321 N 
HETATM    3  C   UNL     1      39.425  41.375  63.147  1.00  0.00     0.257 C 
HETATM    4  O   UNL     1      38.724  40.974  62.223  1.00  0.00    -0.267 OA
HETATM    5  C   UNL     1      40.227  40.411  63.932  1.00  0.00     0.053 A 
HETATM    6  C   UNL     1      40.921  40.888  65.050  1.00  0.00     0.026 A 
HETATM    7  N   UNL     1      40.871  42.248  65.410  1.00  0.00    -0.266 NA
HETATM    8  C   UNL     1      40.236  39.053  63.598  1.00  0.00     0.019 A 
HETATM    9  C   UNL     1      40.909  38.145  64.415  1.00  0.00     0.001 A 
HETATM   10  C   UNL     1      41.549  38.597  65.568  1.00  0.00     0.002 A 
HETATM   11  C   UNL     1      41.544  39.958  65.891  1.00  0.00     0.024 A 
HETATM   12  H   UNL     1      41.681  42.505  65.966  1.00  0.00     0.130 HD
ENDROOT
BRANCH   1  13
HETATM   13  C   UNL     1      40.620  44.567  64.818  1.00  0.00    -0.021 A 
HETATM   14  C   UNL     1      39.979  44.869  66.028  1.00  0.00     0.013 A 
HETATM   15  C   UNL     1      39.858  46.194  66.463  1.00  0.00     0.038 A 
HETATM   16  C   UNL     1      40.427  47.246  65.732  1.00  0.00     0.134 A 
HETATM   17  C   UNL     1      41.106  46.944  64.548  1.00  0.00     0.038 A 
HETATM   18  C   UNL     1      41.193  45.621  64.092  1.00  0.00     0.013 A 
BRANCH  16  19
HETATM   19  N   UNL     1      40.222  48.646  66.225  1.00  0.00    -0.042 N 
HETATM   20  H   UNL     1      41.180  49.008  66.327  1.00  0.00     0.286 HD
BRANCH  19  21
HETATM   21  C   UNL     1      39.584  48.790  67.590  1.00  0.00     0.237 C 
HETATM   22  C   UNL     1      40.621  49.088  68.659  1.00  0.00     0.035 C 
ENDBRANCH  19  21
BRANCH  19  23
HETATM   23  C   UNL     1      39.559  49.536  65.188  1.00  0.00     0.237 C 
HETATM   24  C   UNL     1      38.099  49.191  64.955  1.00  0.00     0.035 C 
ENDBRANCH  19  23
ENDBRANCH  16  19
ENDBRANCH   1  13
BRANCH   2  25
HETATM   25  C   UNL     1      38.662  43.660  62.814  1.00  0.00     0.193 C 
BRANCH  25  26
HETATM   26  C   UNL     1      37.536  44.179  63.634  1.00  0.00     0.070 A 
HETATM   27  O   UNL     1      37.186  45.485  63.439  1.00  0.00    -0.325 OA
HETATM   28  C   UNL     1      36.212  45.773  64.339  1.00  0.00     0.142 A 
HETATM   29  C   UNL     1      35.911  44.663  65.095  1.00  0.00     0.027 A 
HETATM   30  C   UNL     1      36.765  43.630  64.638  1.00  0.00     0.036 A 
ENDBRANCH  25  26
ENDBRANCH   2  25
TORSDOF 6
ENDMDL
