MODEL 1
REMARK VINA RESULT:     -11.6      0.000      0.000
REMARK  4 active torsions:
REMARK  status: ('A' for Active; 'I' for Inactive)
REMARK    1  A    between atoms: C_2  and  C_3 
REMARK    2  A    between atoms: N_16  and  C_17 
REMARK    3  A    between atoms: C_17  and  C_18 
REMARK       I    between atoms: C_18  and  N_19 
REMARK    4  A    between atoms: N_19  and  C_20 
ROOT
HETATM    1  C   UNL     1      27.826  41.602  52.794  1.00  0.00     0.054 C 
HETATM    2  C   UNL     1      27.709  43.126  52.794  1.00  0.00     0.140 C 
HETATM    3  N   UNL     1      28.147  43.640  51.513  1.00  0.00    -0.321 N 
HETATM    4  C   UNL     1      27.210  44.456  50.928  1.00  0.00     0.326 C 
HETATM    5  O   UNL     1      27.432  45.143  49.947  1.00  0.00    -0.247 OA
HETATM    6  N   UNL     1      26.055  44.373  51.640  1.00  0.00    -0.259 N 
HETATM    7  C   UNL     1      26.222  43.563  52.727  1.00  0.00     0.261 C 
HETATM    8  O   UNL     1      25.347  43.268  53.532  1.00  0.00    -0.270 OA
HETATM    9  H   UNL     1      29.104  43.641  51.186  1.00  0.00     0.165 HD
ENDROOT
BRANCH   6  10
HETATM   10  C   UNL     1      24.877  45.160  51.351  1.00  0.00     0.240 C 
BRANCH  10  11
HETATM   11  C   UNL     1      25.209  46.617  51.046  1.00  0.00     0.240 C 
HETATM   12  N   UNL     1      25.057  46.974  49.721  1.00  0.00    -0.324 N 
HETATM   13  H   UNL     1      24.559  46.339  49.096  1.00  0.00     0.169 HD
HETATM   14  O   UNL     1      25.456  47.398  51.965  1.00  0.00    -0.271 OA
BRANCH  12  15
HETATM   15  C   UNL     1      25.281  48.259  49.159  1.00  0.00     0.064 A 
HETATM   16  C   UNL     1      24.143  48.985  48.770  1.00  0.00     0.093 A 
HETATM   17  C   UNL     1      24.326  50.279  48.230  1.00  0.00    -0.005 A 
HETATM   18  N   UNL     1      22.909  48.453  48.935  1.00  0.00    -0.258 NA
HETATM   19  C   UNL     1      23.190  51.019  47.874  1.00  0.00     0.015 A 
HETATM   20  C   UNL     1      25.615  50.809  48.065  1.00  0.00     0.014 A 
HETATM   21  C   UNL     1      21.925  50.475  48.058  1.00  0.00     0.020 A 
HETATM   22  C   UNL     1      21.839  49.201  48.585  1.00  0.00     0.117 A 
HETATM   23  C   UNL     1      26.729  50.066  48.436  1.00  0.00     0.003 A 
HETATM   24  C   UNL     1      26.563  48.794  48.981  1.00  0.00     0.032 A 
ENDBRANCH  12  15
ENDBRANCH  10  11
ENDBRANCH   6  10
BRANCH   2  25
HETATM   25  C   UNL     1      28.418  43.811  53.968  1.00  0.00    -0.020 A 
HETATM   26  C   UNL     1      29.457  43.181  54.685  1.00  0.00     0.022 A 
HETATM   27  C   UNL     1      30.130  43.817  55.745  1.00  0.00    -0.025 A 
HETATM   28  C   UNL     1      29.763  45.129  56.107  1.00  0.00    -0.026 A 
HETATM   29  C   UNL     1      31.165  43.176  56.447  1.00  0.00     0.012 A 
HETATM   30  C   UNL     1      28.742  45.770  55.393  1.00  0.00     0.013 A 
HETATM   31  C   UNL     1      30.435  45.765  57.165  1.00  0.00     0.012 A 
HETATM   32  C   UNL     1      28.088  45.125  54.337  1.00  0.00     0.011 A 
HETATM   33  C   UNL     1      31.459  45.114  57.854  1.00  0.00     0.001 A 
HETATM   34  C   UNL     1      31.825  43.820  57.495  1.00  0.00     0.001 A 
ENDBRANCH   2  25
TORSDOF 4
ENDMDL
MODEL 2
REMARK VINA RESULT:     -11.5      1.638      2.975
REMARK  4 active torsions:
REMARK  status: ('A' for Active; 'I' for Inactive)
REMARK    1  A    between atoms: C_2  and  C_3 
REMARK    2  A    between atoms: N_16  and  C_17 
REMARK    3  A    between atoms: C_17  and  C_18 
REMARK       I    between atoms: C_18  and  N_19 
REMARK    4  A    between atoms: N_19  and  C_20 
ROOT
HETATM    1  C   UNL     1      24.888  44.486  52.730  1.00  0.00     0.054 C 
HETATM    2  C   UNL     1      26.150  45.282  52.396  1.00  0.00     0.140 C 
HETATM    3  N   UNL     1      26.693  44.811  51.138  1.00  0.00    -0.321 N 
HETATM    4  C   UNL     1      26.885  45.830  50.238  1.00  0.00     0.326 C 
HETATM    5  O   UNL     1      27.499  45.701  49.194  1.00  0.00    -0.247 OA
HETATM    6  N   UNL     1      26.311  46.959  50.729  1.00  0.00    -0.259 N 
HETATM    7  C   UNL     1      25.791  46.729  51.972  1.00  0.00     0.261 C 
HETATM    8  O   UNL     1      25.179  47.548  52.646  1.00  0.00    -0.270 OA
HETATM    9  H   UNL     1      27.135  43.912  50.998  1.00  0.00     0.165 HD
ENDROOT
BRANCH   6  10
HETATM   10  C   UNL     1      26.386  48.247  50.076  1.00  0.00     0.240 C 
BRANCH  10  11
HETATM   11  C   UNL     1      25.217  48.488  49.125  1.00  0.00     0.240 C 
HETATM   12  N   UNL     1      24.043  47.861  49.491  1.00  0.00    -0.324 N 
HETATM   13  H   UNL     1      23.969  47.468  50.430  1.00  0.00     0.169 HD
HETATM   14  O   UNL     1      25.332  49.292  48.201  1.00  0.00    -0.271 OA
BRANCH  12  15
HETATM   15  C   UNL     1      22.801  47.921  48.805  1.00  0.00     0.064 A 
HETATM   16  C   UNL     1      21.985  49.033  49.072  1.00  0.00     0.093 A 
HETATM   17  C   UNL     1      20.753  49.140  48.387  1.00  0.00    -0.005 A 
HETATM   18  N   UNL     1      22.394  49.980  49.949  1.00  0.00    -0.258 NA
HETATM   19  C   UNL     1      19.954  50.266  48.626  1.00  0.00     0.015 A 
HETATM   20  C   UNL     1      20.349  48.144  47.485  1.00  0.00     0.014 A 
HETATM   21  C   UNL     1      20.382  51.242  49.517  1.00  0.00     0.020 A 
HETATM   22  C   UNL     1      21.597  51.053  50.147  1.00  0.00     0.117 A 
HETATM   23  C   UNL     1      21.160  47.041  47.251  1.00  0.00     0.003 A 
HETATM   24  C   UNL     1      22.383  46.929  47.909  1.00  0.00     0.032 A 
ENDBRANCH  12  15
ENDBRANCH  10  11
ENDBRANCH   6  10
BRANCH   2  25
HETATM   25  C   UNL     1      27.199  45.293  53.513  1.00  0.00    -0.020 A 
HETATM   26  C   UNL     1      28.111  44.232  53.695  1.00  0.00     0.022 A 
HETATM   27  C   UNL     1      29.094  44.252  54.702  1.00  0.00    -0.025 A 
HETATM   28  C   UNL     1      29.180  45.366  55.560  1.00  0.00    -0.026 A 
HETATM   29  C   UNL     1      29.997  43.187  54.868  1.00  0.00     0.012 A 
HETATM   30  C   UNL     1      28.289  46.432  55.381  1.00  0.00     0.013 A 
HETATM   31  C   UNL     1      30.162  45.387  56.566  1.00  0.00     0.012 A 
HETATM   32  C   UNL     1      27.321  46.399  54.370  1.00  0.00     0.011 A 
HETATM   33  C   UNL     1      31.049  44.321  56.719  1.00  0.00     0.001 A 
HETATM   34  C   UNL     1      30.968  43.222  55.870  1.00  0.00     0.001 A 
ENDBRANCH   2  25
TORSDOF 4
ENDMDL
MODEL 3
REMARK VINA RESULT:     -11.4      1.109      1.485
REMARK  4 active torsions:
REMARK  status: ('A' for Active; 'I' for Inactive)
REMARK    1  A    between atoms: C_2  and  C_3 
REMARK    2  A    between atoms: N_16  and  C_17 
REMARK    3  A    between atoms: C_17  and  C_18 
REMARK       I    between atoms: C_18  and  N_19 
REMARK    4  A    between atoms: N_19  and  C_20 
ROOT
HETATM    1  C   UNL     1      27.709  42.061  51.455  1.00  0.00     0.054 C 
HETATM    2  C   UNL     1      27.335  43.519  51.719  1.00  0.00     0.140 C 
HETATM    3  N   UNL     1      27.697  44.322  50.568  1.00  0.00    -0.321 N 
HETATM    4  C   UNL     1      26.642  45.065  50.097  1.00  0.00     0.326 C 
HETATM    5  O   UNL     1      26.757  45.945  49.263  1.00  0.00    -0.247 OA
HETATM    6  N   UNL     1      25.510  44.666  50.733  1.00  0.00    -0.259 N 
HETATM    7  C   UNL     1      25.798  43.711  51.667  1.00  0.00     0.261 C 
HETATM    8  O   UNL     1      24.974  43.136  52.368  1.00  0.00    -0.270 OA
HETATM    9  H   UNL     1      28.644  44.539  50.288  1.00  0.00     0.165 HD
ENDROOT
BRANCH   6  10
HETATM   10  C   UNL     1      24.219  45.288  50.538  1.00  0.00     0.240 C 
BRANCH  10  11
HETATM   11  C   UNL     1      24.320  46.802  50.376  1.00  0.00     0.240 C 
HETATM   12  N   UNL     1      23.710  47.298  49.241  1.00  0.00    -0.324 N 
HETATM   13  H   UNL     1      23.082  46.689  48.715  1.00  0.00     0.169 HD
HETATM   14  O   UNL     1      24.798  47.487  51.279  1.00  0.00    -0.271 OA
BRANCH  12  15
HETATM   15  C   UNL     1      23.636  48.661  48.845  1.00  0.00     0.064 A 
HETATM   16  C   UNL     1      22.364  49.256  48.866  1.00  0.00     0.093 A 
HETATM   17  C   UNL     1      22.256  50.619  48.504  1.00  0.00    -0.005 A 
HETATM   18  N   UNL     1      21.283  48.535  49.247  1.00  0.00    -0.258 NA
HETATM   19  C   UNL     1      20.994  51.223  48.557  1.00  0.00     0.015 A 
HETATM   20  C   UNL     1      23.390  51.345  48.110  1.00  0.00     0.014 A 
HETATM   21  C   UNL     1      19.889  50.485  48.961  1.00  0.00     0.020 A 
HETATM   22  C   UNL     1      20.084  49.157  49.290  1.00  0.00     0.117 A 
HETATM   23  C   UNL     1      24.637  50.731  48.075  1.00  0.00     0.003 A 
HETATM   24  C   UNL     1      24.760  49.393  48.442  1.00  0.00     0.032 A 
ENDBRANCH  12  15
ENDBRANCH  10  11
ENDBRANCH   6  10
BRANCH   2  25
HETATM   25  C   UNL     1      27.904  44.087  53.024  1.00  0.00    -0.020 A 
HETATM   26  C   UNL     1      29.013  43.505  53.673  1.00  0.00     0.022 A 
HETATM   27  C   UNL     1      29.556  44.040  54.857  1.00  0.00    -0.025 A 
HETATM   28  C   UNL     1      28.980  45.197  55.418  1.00  0.00    -0.026 A 
HETATM   29  C   UNL     1      30.664  43.449  55.489  1.00  0.00     0.012 A 
HETATM   30  C   UNL     1      27.886  45.792  54.775  1.00  0.00     0.013 A 
HETATM   31  C   UNL     1      29.522  45.732  56.600  1.00  0.00     0.012 A 
HETATM   32  C   UNL     1      27.363  45.251  53.595  1.00  0.00     0.011 A 
HETATM   33  C   UNL     1      30.620  45.133  57.216  1.00  0.00     0.001 A 
HETATM   34  C   UNL     1      31.192  43.992  56.661  1.00  0.00     0.001 A 
ENDBRANCH   2  25
TORSDOF 4
ENDMDL
MODEL 4
REMARK VINA RESULT:     -11.2      1.826      9.274
REMARK  4 active torsions:
REMARK  status: ('A' for Active; 'I' for Inactive)
REMARK    1  A    between atoms: C_2  and  C_3 
REMARK    2  A    between atoms: N_16  and  C_17 
REMARK    3  A    between atoms: C_17  and  C_18 
REMARK       I    between atoms: C_18  and  N_19 
REMARK    4  A    between atoms: N_19  and  C_20 
ROOT
HETATM    1  C   UNL     1      26.864  46.975  49.574  1.00  0.00     0.054 C 
HETATM    2  C   UNL     1      25.542  46.469  50.152  1.00  0.00     0.140 C 
HETATM    3  N   UNL     1      25.473  45.030  50.001  1.00  0.00    -0.321 N 
HETATM    4  C   UNL     1      25.212  44.392  51.189  1.00  0.00     0.326 C 
HETATM    5  O   UNL     1      24.928  43.210  51.271  1.00  0.00    -0.247 OA
HETATM    6  N   UNL     1      25.300  45.297  52.198  1.00  0.00    -0.259 N 
HETATM    7  C   UNL     1      25.555  46.544  51.701  1.00  0.00     0.261 C 
HETATM    8  O   UNL     1      25.725  47.554  52.373  1.00  0.00    -0.270 OA
HETATM    9  H   UNL     1      25.358  44.545  49.121  1.00  0.00     0.165 HD
ENDROOT
BRANCH   6  10
HETATM   10  C   UNL     1      25.011  44.987  53.581  1.00  0.00     0.240 C 
BRANCH  10  11
HETATM   11  C   UNL     1      26.167  44.272  54.273  1.00  0.00     0.240 C 
HETATM   12  N   UNL     1      27.412  44.807  54.007  1.00  0.00    -0.324 N 
HETATM   13  H   UNL     1      27.468  45.722  53.559  1.00  0.00     0.169 HD
HETATM   14  O   UNL     1      25.939  43.385  55.094  1.00  0.00    -0.271 OA
BRANCH  12  15
HETATM   15  C   UNL     1      28.656  44.355  54.523  1.00  0.00     0.064 A 
HETATM   16  C   UNL     1      29.089  44.935  55.726  1.00  0.00     0.093 A 
HETATM   17  C   UNL     1      30.311  44.491  56.283  1.00  0.00    -0.005 A 
HETATM   18  N   UNL     1      28.334  45.880  56.334  1.00  0.00    -0.258 NA
HETATM   19  C   UNL     1      30.727  45.045  57.501  1.00  0.00     0.015 A 
HETATM   20  C   UNL     1      31.078  43.513  55.633  1.00  0.00     0.014 A 
HETATM   21  C   UNL     1      29.943  46.004  58.129  1.00  0.00     0.020 A 
HETATM   22  C   UNL     1      28.768  46.385  57.511  1.00  0.00     0.117 A 
HETATM   23  C   UNL     1      30.643  42.966  54.431  1.00  0.00     0.003 A 
HETATM   24  C   UNL     1      29.435  43.385  53.878  1.00  0.00     0.032 A 
ENDBRANCH  12  15
ENDBRANCH  10  11
ENDBRANCH   6  10
BRANCH   2  25
HETATM   25  C   UNL     1      24.302  47.172  49.590  1.00  0.00    -0.020 A 
HETATM   26  C   UNL     1      24.181  48.578  49.574  1.00  0.00     0.022 A 
HETATM   27  C   UNL     1      23.055  49.228  49.033  1.00  0.00    -0.025 A 
HETATM   28  C   UNL     1      22.011  48.457  48.483  1.00  0.00    -0.026 A 
HETATM   29  C   UNL     1      22.952  50.629  49.022  1.00  0.00     0.012 A 
HETATM   30  C   UNL     1      22.127  47.060  48.482  1.00  0.00     0.013 A 
HETATM   31  C   UNL     1      20.887  49.105  47.942  1.00  0.00     0.012 A 
HETATM   32  C   UNL     1      23.256  46.430  49.018  1.00  0.00     0.011 A 
HETATM   33  C   UNL     1      20.799  50.497  47.941  1.00  0.00     0.001 A 
HETATM   34  C   UNL     1      21.831  51.260  48.480  1.00  0.00     0.001 A 
ENDBRANCH   2  25
TORSDOF 4
ENDMDL
MODEL 5
REMARK VINA RESULT:     -10.2      3.971      7.300
REMARK  4 active torsions:
REMARK  status: ('A' for Active; 'I' for Inactive)
REMARK    1  A    between atoms: C_2  and  C_3 
REMARK    2  A    between atoms: N_16  and  C_17 
REMARK    3  A    between atoms: C_17  and  C_18 
REMARK       I    between atoms: C_18  and  N_19 
REMARK    4  A    between atoms: N_19  and  C_20 
ROOT
HETATM    1  C   UNL     1      25.781  46.763  52.305  1.00  0.00     0.054 C 
HETATM    2  C   UNL     1      26.123  45.287  52.099  1.00  0.00     0.140 C 
HETATM    3  N   UNL     1      24.941  44.484  52.339  1.00  0.00    -0.321 N 
HETATM    4  C   UNL     1      24.655  43.647  51.288  1.00  0.00     0.326 C 
HETATM    5  O   UNL     1      23.826  42.757  51.342  1.00  0.00    -0.247 OA
HETATM    6  N   UNL     1      25.457  43.973  50.241  1.00  0.00    -0.259 N 
HETATM    7  C   UNL     1      26.319  44.973  50.593  1.00  0.00     0.261 C 
HETATM    8  O   UNL     1      27.134  45.501  49.846  1.00  0.00    -0.270 OA
HETATM    9  H   UNL     1      24.517  44.335  53.245  1.00  0.00     0.165 HD
ENDROOT
BRANCH   6  10
HETATM   10  C   UNL     1      25.479  43.246  48.991  1.00  0.00     0.240 C 
BRANCH  10  11
HETATM   11  C   UNL     1      26.457  42.076  49.014  1.00  0.00     0.240 C 
HETATM   12  N   UNL     1      25.925  40.877  48.581  1.00  0.00    -0.324 N 
HETATM   13  H   UNL     1      25.025  40.885  48.100  1.00  0.00     0.169 HD
HETATM   14  O   UNL     1      27.643  42.270  49.277  1.00  0.00    -0.271 OA
BRANCH  12  15
HETATM   15  C   UNL     1      26.606  39.634  48.484  1.00  0.00     0.064 A 
HETATM   16  C   UNL     1      27.132  39.298  47.226  1.00  0.00     0.093 A 
HETATM   17  C   UNL     1      27.839  38.081  47.098  1.00  0.00    -0.005 A 
HETATM   18  N   UNL     1      26.975  40.141  46.178  1.00  0.00    -0.258 NA
HETATM   19  C   UNL     1      28.393  37.760  45.852  1.00  0.00     0.015 A 
HETATM   20  C   UNL     1      27.986  37.222  48.198  1.00  0.00     0.014 A 
HETATM   21  C   UNL     1      28.242  38.633  44.783  1.00  0.00     0.020 A 
HETATM   22  C   UNL     1      27.530  39.798  44.994  1.00  0.00     0.117 A 
HETATM   23  C   UNL     1      27.439  37.562  49.430  1.00  0.00     0.003 A 
HETATM   24  C   UNL     1      26.752  38.765  49.573  1.00  0.00     0.032 A 
ENDBRANCH  12  15
ENDBRANCH  10  11
ENDBRANCH   6  10
BRANCH   2  25
HETATM   25  C   UNL     1      27.329  44.802  52.910  1.00  0.00    -0.020 A 
HETATM   26  C   UNL     1      27.751  45.456  54.087  1.00  0.00     0.022 A 
HETATM   27  C   UNL     1      28.841  44.997  54.851  1.00  0.00    -0.025 A 
HETATM   28  C   UNL     1      29.538  43.844  54.436  1.00  0.00    -0.026 A 
HETATM   29  C   UNL     1      29.247  45.659  56.022  1.00  0.00     0.012 A 
HETATM   30  C   UNL     1      29.119  43.179  53.276  1.00  0.00     0.013 A 
HETATM   31  C   UNL     1      30.626  43.385  55.198  1.00  0.00     0.012 A 
HETATM   32  C   UNL     1      28.029  43.644  52.532  1.00  0.00     0.011 A 
HETATM   33  C   UNL     1      31.018  44.055  56.358  1.00  0.00     0.001 A 
HETATM   34  C   UNL     1      30.329  45.191  56.771  1.00  0.00     0.001 A 
ENDBRANCH   2  25
TORSDOF 4
ENDMDL
MODEL 6
REMARK VINA RESULT:     -10.1      2.437      8.632
REMARK  4 active torsions:
REMARK  status: ('A' for Active; 'I' for Inactive)
REMARK    1  A    between atoms: C_2  and  C_3 
REMARK    2  A    between atoms: N_16  and  C_17 
REMARK    3  A    between atoms: C_17  and  C_18 
REMARK       I    between atoms: C_18  and  N_19 
REMARK    4  A    between atoms: N_19  and  C_20 
ROOT
HETATM    1  C   UNL     1      21.028  44.414  47.976  1.00  0.00     0.054 C 
HETATM    2  C   UNL     1      22.338  44.695  48.712  1.00  0.00     0.140 C 
HETATM    3  N   UNL     1      22.286  44.095  50.029  1.00  0.00    -0.321 N 
HETATM    4  C   UNL     1      23.359  43.273  50.272  1.00  0.00     0.326 C 
HETATM    5  O   UNL     1      23.621  42.813  51.369  1.00  0.00    -0.247 OA
HETATM    6  N   UNL     1      24.052  43.107  49.115  1.00  0.00    -0.259 N 
HETATM    7  C   UNL     1      23.496  43.854  48.115  1.00  0.00     0.261 C 
HETATM    8  O   UNL     1      23.879  43.877  46.951  1.00  0.00    -0.270 OA
HETATM    9  H   UNL     1      21.705  44.419  50.791  1.00  0.00     0.165 HD
ENDROOT
BRANCH   6  10
HETATM   10  C   UNL     1      25.286  42.361  49.019  1.00  0.00     0.240 C 
BRANCH  10  11
HETATM   11  C   UNL     1      26.416  42.997  49.824  1.00  0.00     0.240 C 
HETATM   12  N   UNL     1      26.617  42.436  51.070  1.00  0.00    -0.324 N 
HETATM   13  H   UNL     1      26.167  41.546  51.286  1.00  0.00     0.169 HD
HETATM   14  O   UNL     1      27.141  43.843  49.303  1.00  0.00    -0.271 OA
BRANCH  12  15
HETATM   15  C   UNL     1      27.601  42.816  52.021  1.00  0.00     0.064 A 
HETATM   16  C   UNL     1      27.284  43.896  52.861  1.00  0.00     0.093 A 
HETATM   17  C   UNL     1      28.229  44.286  53.838  1.00  0.00    -0.005 A 
HETATM   18  N   UNL     1      26.089  44.523  52.740  1.00  0.00    -0.258 NA
HETATM   19  C   UNL     1      27.900  45.340  54.700  1.00  0.00     0.015 A 
HETATM   20  C   UNL     1      29.462  43.624  53.943  1.00  0.00     0.014 A 
HETATM   21  C   UNL     1      26.668  45.972  54.581  1.00  0.00     0.020 A 
HETATM   22  C   UNL     1      25.808  45.531  53.595  1.00  0.00     0.117 A 
HETATM   23  C   UNL     1      29.766  42.572  53.087  1.00  0.00     0.003 A 
HETATM   24  C   UNL     1      28.838  42.168  52.129  1.00  0.00     0.032 A 
ENDBRANCH  12  15
ENDBRANCH  10  11
ENDBRANCH   6  10
BRANCH   2  25
HETATM   25  C   UNL     1      22.724  46.178  48.764  1.00  0.00    -0.020 A 
HETATM   26  C   UNL     1      21.861  47.192  48.296  1.00  0.00     0.022 A 
HETATM   27  C   UNL     1      22.200  48.557  48.369  1.00  0.00    -0.025 A 
HETATM   28  C   UNL     1      23.437  48.932  48.929  1.00  0.00    -0.026 A 
HETATM   29  C   UNL     1      21.328  49.555  47.901  1.00  0.00     0.012 A 
HETATM   30  C   UNL     1      24.296  47.934  49.409  1.00  0.00     0.013 A 
HETATM   31  C   UNL     1      23.776  50.295  49.002  1.00  0.00     0.012 A 
HETATM   32  C   UNL     1      23.941  46.582  49.336  1.00  0.00     0.011 A 
HETATM   33  C   UNL     1      22.900  51.273  48.531  1.00  0.00     0.001 A 
HETATM   34  C   UNL     1      21.676  50.904  47.981  1.00  0.00     0.001 A 
ENDBRANCH   2  25
TORSDOF 4
ENDMDL
MODEL 7
REMARK VINA RESULT:     -10.0      2.936      4.222
REMARK  4 active torsions:
REMARK  status: ('A' for Active; 'I' for Inactive)
REMARK    1  A    between atoms: C_2  and  C_3 
REMARK    2  A    between atoms: N_16  and  C_17 
REMARK    3  A    between atoms: C_17  and  C_18 
REMARK       I    between atoms: C_18  and  N_19 
REMARK    4  A    between atoms: N_19  and  C_20 
ROOT
HETATM    1  C   UNL     1      26.083  46.667  51.838  1.00  0.00     0.054 C 
HETATM    2  C   UNL     1      26.267  45.149  51.817  1.00  0.00     0.140 C 
HETATM    3  N   UNL     1      25.016  44.510  52.172  1.00  0.00    -0.321 N 
HETATM    4  C   UNL     1      24.620  43.583  51.239  1.00  0.00     0.326 C 
HETATM    5  O   UNL     1      23.706  42.797  51.416  1.00  0.00    -0.247 OA
HETATM    6  N   UNL     1      25.426  43.689  50.150  1.00  0.00    -0.259 N 
HETATM    7  C   UNL     1      26.393  44.630  50.362  1.00  0.00     0.261 C 
HETATM    8  O   UNL     1      27.240  44.972  49.545  1.00  0.00    -0.270 OA
HETATM    9  H   UNL     1      24.601  44.521  53.094  1.00  0.00     0.165 HD
ENDROOT
BRANCH   6  10
HETATM   10  C   UNL     1      25.342  42.813  49.003  1.00  0.00     0.240 C 
BRANCH  10  11
HETATM   11  C   UNL     1      24.049  43.003  48.217  1.00  0.00     0.240 C 
HETATM   12  N   UNL     1      23.990  44.172  47.485  1.00  0.00    -0.324 N 
HETATM   13  H   UNL     1      24.846  44.710  47.351  1.00  0.00     0.169 HD
HETATM   14  O   UNL     1      23.220  42.095  48.168  1.00  0.00    -0.271 OA
BRANCH  12  15
HETATM   15  C   UNL     1      22.919  44.599  46.655  1.00  0.00     0.064 A 
HETATM   16  C   UNL     1      22.193  45.720  47.087  1.00  0.00     0.093 A 
HETATM   17  C   UNL     1      21.136  46.189  46.273  1.00  0.00    -0.005 A 
HETATM   18  N   UNL     1      22.522  46.337  48.247  1.00  0.00    -0.258 NA
HETATM   19  C   UNL     1      20.432  47.328  46.686  1.00  0.00     0.015 A 
HETATM   20  C   UNL     1      20.810  45.531  45.077  1.00  0.00     0.014 A 
HETATM   21  C   UNL     1      20.782  47.966  47.869  1.00  0.00     0.020 A 
HETATM   22  C   UNL     1      21.823  47.436  48.607  1.00  0.00     0.117 A 
HETATM   23  C   UNL     1      21.527  44.410  44.677  1.00  0.00     0.003 A 
HETATM   24  C   UNL     1      22.579  43.945  45.464  1.00  0.00     0.032 A 
ENDBRANCH  12  15
ENDBRANCH  10  11
ENDBRANCH   6  10
BRANCH   2  25
HETATM   25  C   UNL     1      27.437  44.647  52.671  1.00  0.00    -0.020 A 
HETATM   26  C   UNL     1      27.833  45.300  53.857  1.00  0.00     0.022 A 
HETATM   27  C   UNL     1      28.889  44.825  54.659  1.00  0.00    -0.025 A 
HETATM   28  C   UNL     1      29.577  43.658  54.272  1.00  0.00    -0.026 A 
HETATM   29  C   UNL     1      29.268  45.487  55.839  1.00  0.00     0.012 A 
HETATM   30  C   UNL     1      29.184  42.993  53.103  1.00  0.00     0.013 A 
HETATM   31  C   UNL     1      30.631  43.183  55.072  1.00  0.00     0.012 A 
HETATM   32  C   UNL     1      28.128  43.475  52.321  1.00  0.00     0.011 A 
HETATM   33  C   UNL     1      30.997  43.852  56.240  1.00  0.00     0.001 A 
HETATM   34  C   UNL     1      30.316  45.003  56.625  1.00  0.00     0.001 A 
ENDBRANCH   2  25
TORSDOF 4
ENDMDL
MODEL 8
REMARK VINA RESULT:     -10.0      2.825      4.232
REMARK  4 active torsions:
REMARK  status: ('A' for Active; 'I' for Inactive)
REMARK    1  A    between atoms: C_2  and  C_3 
REMARK    2  A    between atoms: N_16  and  C_17 
REMARK    3  A    between atoms: C_17  and  C_18 
REMARK       I    between atoms: C_18  and  N_19 
REMARK    4  A    between atoms: N_19  and  C_20 
ROOT
HETATM    1  C   UNL     1      28.956  39.265  51.227  1.00  0.00     0.054 C 
HETATM    2  C   UNL     1      28.250  40.545  50.778  1.00  0.00     0.140 C 
HETATM    3  N   UNL     1      28.768  40.950  49.487  1.00  0.00    -0.321 N 
HETATM    4  C   UNL     1      27.772  41.133  48.558  1.00  0.00     0.326 C 
HETATM    5  O   UNL     1      27.952  41.648  47.469  1.00  0.00    -0.247 OA
HETATM    6  N   UNL     1      26.602  40.677  49.079  1.00  0.00    -0.259 N 
HETATM    7  C   UNL     1      26.786  40.249  50.363  1.00  0.00     0.261 C 
HETATM    8  O   UNL     1      25.921  39.750  51.074  1.00  0.00    -0.270 OA
HETATM    9  H   UNL     1      29.696  41.318  49.324  1.00  0.00     0.165 HD
ENDROOT
BRANCH   6  10
HETATM   10  C   UNL     1      25.329  40.783  48.402  1.00  0.00     0.240 C 
BRANCH  10  11
HETATM   11  C   UNL     1      24.498  41.960  48.903  1.00  0.00     0.240 C 
HETATM   12  N   UNL     1      24.607  43.105  48.138  1.00  0.00    -0.324 N 
HETATM   13  H   UNL     1      25.044  43.040  47.218  1.00  0.00     0.169 HD
HETATM   14  O   UNL     1      23.711  41.805  49.837  1.00  0.00    -0.271 OA
BRANCH  12  15
HETATM   15  C   UNL     1      23.940  44.339  48.361  1.00  0.00     0.064 A 
HETATM   16  C   UNL     1      24.661  45.333  49.042  1.00  0.00     0.093 A 
HETATM   17  C   UNL     1      24.038  46.584  49.259  1.00  0.00    -0.005 A 
HETATM   18  N   UNL     1      25.927  45.090  49.456  1.00  0.00    -0.258 NA
HETATM   19  C   UNL     1      24.768  47.587  49.908  1.00  0.00     0.015 A 
HETATM   20  C   UNL     1      22.723  46.811  48.824  1.00  0.00     0.014 A 
HETATM   21  C   UNL     1      26.071  47.339  50.319  1.00  0.00     0.020 A 
HETATM   22  C   UNL     1      26.600  46.087  50.073  1.00  0.00     0.117 A 
HETATM   23  C   UNL     1      22.019  45.807  48.170  1.00  0.00     0.003 A 
HETATM   24  C   UNL     1      22.625  44.574  47.939  1.00  0.00     0.032 A 
ENDBRANCH  12  15
ENDBRANCH  10  11
ENDBRANCH   6  10
BRANCH   2  25
HETATM   25  C   UNL     1      28.299  41.682  51.804  1.00  0.00    -0.020 A 
HETATM   26  C   UNL     1      29.328  41.780  52.765  1.00  0.00     0.022 A 
HETATM   27  C   UNL     1      29.391  42.839  53.691  1.00  0.00    -0.025 A 
HETATM   28  C   UNL     1      28.400  43.840  53.663  1.00  0.00    -0.026 A 
HETATM   29  C   UNL     1      30.425  42.923  54.639  1.00  0.00     0.012 A 
HETATM   30  C   UNL     1      27.380  43.760  52.705  1.00  0.00     0.013 A 
HETATM   31  C   UNL     1      28.462  44.897  54.588  1.00  0.00     0.012 A 
HETATM   32  C   UNL     1      27.336  42.704  51.787  1.00  0.00     0.011 A 
HETATM   33  C   UNL     1      29.495  44.965  55.524  1.00  0.00     0.001 A 
HETATM   34  C   UNL     1      30.476  43.979  55.550  1.00  0.00     0.001 A 
ENDBRANCH   2  25
TORSDOF 4
ENDMDL
MODEL 9
REMARK VINA RESULT:      -9.9      3.378      4.810
REMARK  4 active torsions:
REMARK  status: ('A' for Active; 'I' for Inactive)
REMARK    1  A    between atoms: C_2  and  C_3 
REMARK    2  A    between atoms: N_16  and  C_17 
REMARK    3  A    between atoms: C_17  and  C_18 
REMARK       I    between atoms: C_18  and  N_19 
REMARK    4  A    between atoms: N_19  and  C_20 
ROOT
HETATM    1  C   UNL     1      26.980  42.301  51.547  1.00  0.00     0.054 C 
HETATM    2  C   UNL     1      27.073  43.813  51.756  1.00  0.00     0.140 C 
HETATM    3  N   UNL     1      27.664  44.423  50.582  1.00  0.00    -0.321 N 
HETATM    4  C   UNL     1      26.889  45.436  50.073  1.00  0.00     0.326 C 
HETATM    5  O   UNL     1      27.269  46.207  49.210  1.00  0.00    -0.247 OA
HETATM    6  N   UNL     1      25.689  45.429  50.710  1.00  0.00    -0.259 N 
HETATM    7  C   UNL     1      25.669  44.466  51.680  1.00  0.00     0.261 C 
HETATM    8  O   UNL     1      24.709  44.198  52.392  1.00  0.00    -0.270 OA
HETATM    9  H   UNL     1      28.632  44.328  50.305  1.00  0.00     0.165 HD
ENDROOT
BRANCH   6  10
HETATM   10  C   UNL     1      24.652  46.410  50.479  1.00  0.00     0.240 C 
BRANCH  10  11
HETATM   11  C   UNL     1      23.752  46.041  49.304  1.00  0.00     0.240 C 
HETATM   12  N   UNL     1      23.455  44.695  49.210  1.00  0.00    -0.324 N 
HETATM   13  H   UNL     1      23.668  44.090  50.004  1.00  0.00     0.169 HD
HETATM   14  O   UNL     1      23.251  46.926  48.610  1.00  0.00    -0.271 OA
BRANCH  12  15
HETATM   15  C   UNL     1      22.634  44.075  48.231  1.00  0.00     0.064 A 
HETATM   16  C   UNL     1      22.990  42.774  47.840  1.00  0.00     0.093 A 
HETATM   17  C   UNL     1      22.180  42.115  46.886  1.00  0.00    -0.005 A 
HETATM   18  N   UNL     1      24.072  42.173  48.388  1.00  0.00    -0.258 NA
HETATM   19  C   UNL     1      22.514  40.805  46.521  1.00  0.00     0.015 A 
HETATM   20  C   UNL     1      21.065  42.760  46.330  1.00  0.00     0.014 A 
HETATM   21  C   UNL     1      23.617  40.186  47.095  1.00  0.00     0.020 A 
HETATM   22  C   UNL     1      24.357  40.906  48.013  1.00  0.00     0.117 A 
HETATM   23  C   UNL     1      20.742  44.056  46.713  1.00  0.00     0.003 A 
HETATM   24  C   UNL     1      21.523  44.712  47.662  1.00  0.00     0.032 A 
ENDBRANCH  12  15
ENDBRANCH  10  11
ENDBRANCH   6  10
BRANCH   2  25
HETATM   25  C   UNL     1      27.789  44.226  53.047  1.00  0.00    -0.020 A 
HETATM   26  C   UNL     1      28.858  43.476  53.582  1.00  0.00     0.022 A 
HETATM   27  C   UNL     1      29.536  43.868  54.752  1.00  0.00    -0.025 A 
HETATM   28  C   UNL     1      29.144  45.048  55.415  1.00  0.00    -0.026 A 
HETATM   29  C   UNL     1      30.601  43.111  55.271  1.00  0.00     0.012 A 
HETATM   30  C   UNL     1      28.092  45.807  54.885  1.00  0.00     0.013 A 
HETATM   31  C   UNL     1      29.821  45.439  56.583  1.00  0.00     0.012 A 
HETATM   32  C   UNL     1      27.433  45.407  53.717  1.00  0.00     0.011 A 
HETATM   33  C   UNL     1      30.875  44.675  57.087  1.00  0.00     0.001 A 
HETATM   34  C   UNL     1      31.266  43.512  56.431  1.00  0.00     0.001 A 
ENDBRANCH   2  25
TORSDOF 4
ENDMDL
MODEL 10
REMARK VINA RESULT:      -9.6      6.156      9.031
REMARK  4 active torsions:
REMARK  status: ('A' for Active; 'I' for Inactive)
REMARK    1  A    between atoms: C_2  and  C_3 
REMARK    2  A    between atoms: N_16  and  C_17 
REMARK    3  A    between atoms: C_17  and  C_18 
REMARK       I    between atoms: C_18  and  N_19 
REMARK    4  A    between atoms: N_19  and  C_20 
ROOT
HETATM    1  C   UNL     1      19.543  51.827  48.686  1.00  0.00     0.054 C 
HETATM    2  C   UNL     1      19.988  50.391  48.965  1.00  0.00     0.140 C 
HETATM    3  N   UNL     1      19.458  49.966  50.244  1.00  0.00    -0.321 N 
HETATM    4  C   UNL     1      18.758  48.788  50.154  1.00  0.00     0.326 C 
HETATM    5  O   UNL     1      18.385  48.149  51.122  1.00  0.00    -0.247 OA
HETATM    6  N   UNL     1      18.596  48.477  48.841  1.00  0.00    -0.259 N 
HETATM    7  C   UNL     1      19.231  49.394  48.052  1.00  0.00     0.261 C 
HETATM    8  O   UNL     1      19.227  49.396  46.826  1.00  0.00    -0.270 OA
HETATM    9  H   UNL     1      19.765  50.313  51.143  1.00  0.00     0.165 HD
ENDROOT
BRANCH   6  10
HETATM   10  C   UNL     1      17.968  47.260  48.377  1.00  0.00     0.240 C 
BRANCH  10  11
HETATM   11  C   UNL     1      18.961  46.112  48.226  1.00  0.00     0.240 C 
HETATM   12  N   UNL     1      20.245  46.504  47.900  1.00  0.00    -0.324 N 
HETATM   13  H   UNL     1      20.491  47.491  47.980  1.00  0.00     0.169 HD
HETATM   14  O   UNL     1      18.624  44.964  48.515  1.00  0.00    -0.271 OA
BRANCH  12  15
HETATM   15  C   UNL     1      21.368  45.655  47.712  1.00  0.00     0.064 A 
HETATM   16  C   UNL     1      21.743  45.387  46.386  1.00  0.00     0.093 A 
HETATM   17  C   UNL     1      22.872  44.567  46.160  1.00  0.00    -0.005 A 
HETATM   18  N   UNL     1      21.042  45.926  45.360  1.00  0.00    -0.258 NA
HETATM   19  C   UNL     1      23.268  44.327  44.838  1.00  0.00     0.015 A 
HETATM   20  C   UNL     1      23.581  44.016  47.239  1.00  0.00     0.014 A 
HETATM   21  C   UNL     1      22.555  44.893  43.789  1.00  0.00     0.020 A 
HETATM   22  C   UNL     1      21.460  45.676  44.099  1.00  0.00     0.117 A 
HETATM   23  C   UNL     1      23.181  44.275  48.544  1.00  0.00     0.003 A 
HETATM   24  C   UNL     1      22.077  45.092  48.781  1.00  0.00     0.032 A 
ENDBRANCH  12  15
ENDBRANCH  10  11
ENDBRANCH   6  10
BRANCH   2  25
HETATM   25  C   UNL     1      21.502  50.172  48.862  1.00  0.00    -0.020 A 
HETATM   26  C   UNL     1      22.144  49.080  49.483  1.00  0.00     0.022 A 
HETATM   27  C   UNL     1      23.529  48.859  49.367  1.00  0.00    -0.025 A 
HETATM   28  C   UNL     1      24.308  49.752  48.605  1.00  0.00    -0.026 A 
HETATM   29  C   UNL     1      24.152  47.764  49.990  1.00  0.00     0.012 A 
HETATM   30  C   UNL     1      23.680  50.833  47.972  1.00  0.00     0.013 A 
HETATM   31  C   UNL     1      25.692  49.533  48.488  1.00  0.00     0.012 A 
HETATM   32  C   UNL     1      22.300  51.034  48.092  1.00  0.00     0.011 A 
HETATM   33  C   UNL     1      26.296  48.442  49.115  1.00  0.00     0.001 A 
HETATM   34  C   UNL     1      25.527  47.557  49.864  1.00  0.00     0.001 A 
ENDBRANCH   2  25
TORSDOF 4
ENDMDL
