MODEL 1
REMARK VINA RESULT:      -8.9      0.000      0.000
REMARK  5 active torsions:
REMARK  status: ('A' for Active; 'I' for Inactive)
REMARK    1  A    between atoms: C_8  and  C_9 
REMARK    2  A    between atoms: C_13  and  C_14 
REMARK    3  A    between atoms: C_14  and  O_15 
REMARK    4  A    between atoms: O_15  and  C_16 
REMARK    5  A    between atoms: C_27  and  N_28 
ROOT
HETATM    1  C   UNL     1      24.112  42.575  49.373  1.00  0.00     0.073 C 
HETATM    2  C   UNL     1      23.374  43.862  49.333  1.00  0.00     0.062 A 
HETATM    3  N   UNL     1      22.033  43.872  49.262  1.00  0.00    -0.177 NA
HETATM    4  N   UNL     1      21.709  45.182  49.243  1.00  0.00    -0.256 N 
HETATM    5  H   UNL     1      20.732  45.445  49.180  1.00  0.00     0.191 HD
HETATM    6  C   UNL     1      22.796  45.990  49.316  1.00  0.00     0.175 A 
HETATM    7  C   UNL     1      23.895  45.175  49.379  1.00  0.00     0.035 A 
HETATM    8  C   UNL     1      25.269  45.755  49.461  1.00  0.00     0.111 A 
HETATM    9  C   UNL     1      25.166  47.291  49.478  1.00  0.00     0.067 A 
HETATM   10  C   UNL     1      26.483  48.036  49.614  1.00  0.00     0.020 C 
HETATM   11  N   UNL     1      27.576  48.655  49.727  1.00  0.00    -0.096 N 
HETATM   12  C   UNL     1      23.995  47.977  49.412  1.00  0.00     0.139 A 
HETATM   13  O   UNL     1      22.755  47.317  49.322  1.00  0.00    -0.279 OA
ENDROOT
BRANCH   8  14
HETATM   14  C   UNL     1      26.047  45.185  50.635  1.00  0.00    -0.003 A 
HETATM   15  S   UNL     1      27.299  44.051  50.350  1.00  0.00    -0.098 SA
HETATM   16  C   UNL     1      27.711  43.970  52.005  1.00  0.00    -0.013 A 
HETATM   17  C   UNL     1      28.865  43.124  52.436  1.00  0.00     0.057 C 
HETATM   18  C   UNL     1      26.867  44.737  52.793  1.00  0.00    -0.020 A 
HETATM   19  C   UNL     1      25.923  45.456  51.985  1.00  0.00     0.026 A 
BRANCH  18  20
HETATM   20  C   UNL     1      26.932  44.830  54.296  1.00  0.00     0.215 C 
BRANCH  20  21
HETATM   21  O   UNL     1      27.761  45.923  54.691  1.00  0.00    -0.347 OA
BRANCH  21  22
HETATM   22  C   UNL     1      28.664  45.692  55.691  1.00  0.00     0.069 A 
HETATM   23  C   UNL     1      28.647  46.269  56.965  1.00  0.00     0.040 A 
HETATM   24  C   UNL     1      29.636  45.935  57.896  1.00  0.00     0.045 A 
HETATM   25  C   UNL     1      30.634  45.032  57.550  1.00  0.00     0.116 A 
HETATM   26  F   UNL     1      31.578  44.716  58.447  1.00  0.00    -0.206 F 
HETATM   27  C   UNL     1      30.664  44.453  56.290  1.00  0.00     0.045 A 
HETATM   28  C   UNL     1      29.677  44.785  55.361  1.00  0.00     0.040 A 
ENDBRANCH  21  22
ENDBRANCH  20  21
ENDBRANCH  18  20
ENDBRANCH   8  14
BRANCH  12  29
HETATM   29  N   UNL     1      23.869  49.347  49.434  1.00  0.00    -0.282 NA
HETATM   30  H   UNL     1      24.339  49.845  48.682  1.00  0.00     0.126 HD
HETATM   31  H   UNL     1      24.068  49.735  50.352  1.00  0.00     0.126 HD
ENDBRANCH  12  29
TORSDOF 5
ENDMDL
MODEL 2
REMARK VINA RESULT:      -8.6      3.109      4.466
REMARK  5 active torsions:
REMARK  status: ('A' for Active; 'I' for Inactive)
REMARK    1  A    between atoms: C_8  and  C_9 
REMARK    2  A    between atoms: C_13  and  C_14 
REMARK    3  A    between atoms: C_14  and  O_15 
REMARK    4  A    between atoms: O_15  and  C_16 
REMARK    5  A    between atoms: C_27  and  N_28 
ROOT
HETATM    1  C   UNL     1      22.965  43.250  50.255  1.00  0.00     0.073 C 
HETATM    2  C   UNL     1      23.924  42.635  49.305  1.00  0.00     0.062 A 
HETATM    3  N   UNL     1      23.618  42.537  48.000  1.00  0.00    -0.177 NA
HETATM    4  N   UNL     1      24.695  41.939  47.448  1.00  0.00    -0.256 N 
HETATM    5  H   UNL     1      24.693  41.747  46.453  1.00  0.00     0.191 HD
HETATM    6  C   UNL     1      25.668  41.675  48.356  1.00  0.00     0.175 A 
HETATM    7  C   UNL     1      25.211  42.112  49.570  1.00  0.00     0.035 A 
HETATM    8  C   UNL     1      26.047  41.962  50.799  1.00  0.00     0.111 A 
HETATM    9  C   UNL     1      27.384  41.302  50.417  1.00  0.00     0.067 A 
HETATM   10  C   UNL     1      28.378  41.126  51.553  1.00  0.00     0.020 C 
HETATM   11  N   UNL     1      29.203  40.981  52.496  1.00  0.00    -0.096 N 
HETATM   12  C   UNL     1      27.712  40.917  49.156  1.00  0.00     0.139 A 
HETATM   13  O   UNL     1      26.831  41.098  48.074  1.00  0.00    -0.279 OA
ENDROOT
BRANCH   8  14
HETATM   14  C   UNL     1      26.207  43.283  51.531  1.00  0.00    -0.003 A 
HETATM   15  S   UNL     1      26.102  44.753  50.658  1.00  0.00    -0.098 SA
HETATM   16  C   UNL     1      26.276  45.697  52.070  1.00  0.00    -0.013 A 
HETATM   17  C   UNL     1      26.203  47.186  51.973  1.00  0.00     0.057 C 
HETATM   18  C   UNL     1      26.488  44.919  53.197  1.00  0.00    -0.020 A 
HETATM   19  C   UNL     1      26.419  43.521  52.876  1.00  0.00     0.026 A 
BRANCH  18  20
HETATM   20  C   UNL     1      26.734  45.453  54.584  1.00  0.00     0.215 C 
BRANCH  20  21
HETATM   21  O   UNL     1      28.039  46.024  54.673  1.00  0.00    -0.347 OA
BRANCH  21  22
HETATM   22  C   UNL     1      29.026  45.246  55.211  1.00  0.00     0.069 A 
HETATM   23  C   UNL     1      29.506  44.042  54.684  1.00  0.00     0.040 A 
HETATM   24  C   UNL     1      30.530  43.351  55.340  1.00  0.00     0.045 A 
HETATM   25  C   UNL     1      31.066  43.862  56.516  1.00  0.00     0.116 A 
HETATM   26  F   UNL     1      32.046  43.196  57.139  1.00  0.00    -0.206 F 
HETATM   27  C   UNL     1      30.599  45.055  57.051  1.00  0.00     0.045 A 
HETATM   28  C   UNL     1      29.578  45.745  56.396  1.00  0.00     0.040 A 
ENDBRANCH  21  22
ENDBRANCH  20  21
ENDBRANCH  18  20
ENDBRANCH   8  14
BRANCH  12  29
HETATM   29  N   UNL     1      28.901  40.334  48.782  1.00  0.00    -0.282 NA
HETATM   30  H   UNL     1      28.939  39.981  47.829  1.00  0.00     0.126 HD
HETATM   31  H   UNL     1      29.230  39.661  49.469  1.00  0.00     0.126 HD
ENDBRANCH  12  29
TORSDOF 5
ENDMDL
MODEL 3
REMARK VINA RESULT:      -8.4      4.832      8.426
REMARK  5 active torsions:
REMARK  status: ('A' for Active; 'I' for Inactive)
REMARK    1  A    between atoms: C_8  and  C_9 
REMARK    2  A    between atoms: C_13  and  C_14 
REMARK    3  A    between atoms: C_14  and  O_15 
REMARK    4  A    between atoms: O_15  and  C_16 
REMARK    5  A    between atoms: C_27  and  N_28 
ROOT
HETATM    1  C   UNL     1      23.228  44.829  48.211  1.00  0.00     0.073 C 
HETATM    2  C   UNL     1      24.280  44.125  48.984  1.00  0.00     0.062 A 
HETATM    3  N   UNL     1      24.768  42.950  48.551  1.00  0.00    -0.177 NA
HETATM    4  N   UNL     1      25.685  42.606  49.480  1.00  0.00    -0.256 N 
HETATM    5  H   UNL     1      26.190  41.734  49.372  1.00  0.00     0.191 HD
HETATM    6  C   UNL     1      25.801  43.530  50.468  1.00  0.00     0.175 A 
HETATM    7  C   UNL     1      24.910  44.531  50.183  1.00  0.00     0.035 A 
HETATM    8  C   UNL     1      24.777  45.712  51.088  1.00  0.00     0.111 A 
HETATM    9  C   UNL     1      25.770  45.565  52.255  1.00  0.00     0.067 A 
HETATM   10  C   UNL     1      25.799  46.719  53.243  1.00  0.00     0.020 C 
HETATM   11  N   UNL     1      25.823  47.677  54.063  1.00  0.00    -0.096 N 
HETATM   12  C   UNL     1      26.608  44.507  52.413  1.00  0.00     0.139 A 
HETATM   13  O   UNL     1      26.633  43.439  51.498  1.00  0.00    -0.279 OA
ENDROOT
BRANCH   8  14
HETATM   14  C   UNL     1      24.924  47.018  50.326  1.00  0.00    -0.003 A 
HETATM   15  S   UNL     1      26.484  47.573  49.890  1.00  0.00    -0.098 SA
HETATM   16  C   UNL     1      25.858  48.926  49.057  1.00  0.00    -0.013 A 
HETATM   17  C   UNL     1      26.792  49.849  48.344  1.00  0.00     0.057 C 
HETATM   18  C   UNL     1      24.478  49.012  49.160  1.00  0.00    -0.020 A 
HETATM   19  C   UNL     1      23.947  47.887  49.876  1.00  0.00     0.026 A 
BRANCH  18  20
HETATM   20  C   UNL     1      23.634  50.120  48.585  1.00  0.00     0.215 C 
BRANCH  20  21
HETATM   21  O   UNL     1      22.856  50.736  49.610  1.00  0.00    -0.347 OA
BRANCH  21  22
HETATM   22  C   UNL     1      21.514  50.865  49.383  1.00  0.00     0.069 A 
HETATM   23  C   UNL     1      20.531  51.085  50.354  1.00  0.00     0.040 A 
HETATM   24  C   UNL     1      19.190  51.205  49.976  1.00  0.00     0.045 A 
HETATM   25  C   UNL     1      18.837  51.101  48.636  1.00  0.00     0.116 A 
HETATM   26  F   UNL     1      17.551  51.215  48.282  1.00  0.00    -0.206 F 
HETATM   27  C   UNL     1      19.801  50.880  47.662  1.00  0.00     0.045 A 
HETATM   28  C   UNL     1      21.140  50.763  48.039  1.00  0.00     0.040 A 
ENDBRANCH  21  22
ENDBRANCH  20  21
ENDBRANCH  18  20
ENDBRANCH   8  14
BRANCH  12  29
HETATM   29  N   UNL     1      27.512  44.351  53.439  1.00  0.00    -0.282 NA
HETATM   30  H   UNL     1      27.557  45.116  54.108  1.00  0.00     0.126 HD
HETATM   31  H   UNL     1      28.427  44.062  53.103  1.00  0.00     0.126 HD
ENDBRANCH  12  29
TORSDOF 5
ENDMDL
MODEL 4
REMARK VINA RESULT:      -8.2      2.793      3.960
REMARK  5 active torsions:
REMARK  status: ('A' for Active; 'I' for Inactive)
REMARK    1  A    between atoms: C_8  and  C_9 
REMARK    2  A    between atoms: C_13  and  C_14 
REMARK    3  A    between atoms: C_14  and  O_15 
REMARK    4  A    between atoms: O_15  and  C_16 
REMARK    5  A    between atoms: C_27  and  N_28 
ROOT
HETATM    1  C   UNL     1      28.381  40.307  48.109  1.00  0.00     0.073 C 
HETATM    2  C   UNL     1      26.903  40.284  47.984  1.00  0.00     0.062 A 
HETATM    3  N   UNL     1      26.288  39.240  47.403  1.00  0.00    -0.177 NA
HETATM    4  N   UNL     1      24.975  39.552  47.460  1.00  0.00    -0.256 N 
HETATM    5  H   UNL     1      24.301  38.906  47.067  1.00  0.00     0.191 HD
HETATM    6  C   UNL     1      24.747  40.742  48.070  1.00  0.00     0.175 A 
HETATM    7  C   UNL     1      25.968  41.249  48.427  1.00  0.00     0.035 A 
HETATM    8  C   UNL     1      26.073  42.568  49.120  1.00  0.00     0.111 A 
HETATM    9  C   UNL     1      24.659  43.138  49.329  1.00  0.00     0.067 A 
HETATM   10  C   UNL     1      24.588  44.461  50.074  1.00  0.00     0.020 C 
HETATM   11  N   UNL     1      24.528  45.558  50.693  1.00  0.00    -0.096 N 
HETATM   12  C   UNL     1      23.519  42.520  48.922  1.00  0.00     0.139 A 
HETATM   13  O   UNL     1      23.547  41.278  48.262  1.00  0.00    -0.279 OA
ENDROOT
BRANCH   8  14
HETATM   14  C   UNL     1      26.882  42.463  50.401  1.00  0.00    -0.003 A 
HETATM   15  S   UNL     1      26.699  41.091  51.409  1.00  0.00    -0.098 SA
HETATM   16  C   UNL     1      27.903  41.627  52.494  1.00  0.00    -0.013 A 
HETATM   17  C   UNL     1      28.283  40.767  53.655  1.00  0.00     0.057 C 
HETATM   18  C   UNL     1      28.402  42.874  52.149  1.00  0.00    -0.020 A 
HETATM   19  C   UNL     1      27.821  43.336  50.920  1.00  0.00     0.026 A 
BRANCH  18  20
HETATM   20  C   UNL     1      29.431  43.643  52.936  1.00  0.00     0.215 C 
BRANCH  20  21
HETATM   21  O   UNL     1      28.802  44.411  53.961  1.00  0.00    -0.347 OA
BRANCH  21  22
HETATM   22  C   UNL     1      29.484  44.562  55.136  1.00  0.00     0.069 A 
HETATM   23  C   UNL     1      29.308  45.593  56.064  1.00  0.00     0.040 A 
HETATM   24  C   UNL     1      30.076  45.619  57.234  1.00  0.00     0.045 A 
HETATM   25  C   UNL     1      31.013  44.621  57.467  1.00  0.00     0.116 A 
HETATM   26  F   UNL     1      31.745  44.652  58.589  1.00  0.00    -0.206 F 
HETATM   27  C   UNL     1      31.200  43.593  56.554  1.00  0.00     0.045 A 
HETATM   28  C   UNL     1      30.434  43.565  55.389  1.00  0.00     0.040 A 
ENDBRANCH  21  22
ENDBRANCH  20  21
ENDBRANCH  18  20
ENDBRANCH   8  14
BRANCH  12  29
HETATM   29  N   UNL     1      22.242  42.999  49.102  1.00  0.00    -0.282 NA
HETATM   30  H   UNL     1      21.502  42.302  49.082  1.00  0.00     0.126 HD
HETATM   31  H   UNL     1      22.047  43.802  48.511  1.00  0.00     0.126 HD
ENDBRANCH  12  29
TORSDOF 5
ENDMDL
MODEL 5
REMARK VINA RESULT:      -8.2      3.569      5.074
REMARK  5 active torsions:
REMARK  status: ('A' for Active; 'I' for Inactive)
REMARK    1  A    between atoms: C_8  and  C_9 
REMARK    2  A    between atoms: C_13  and  C_14 
REMARK    3  A    between atoms: C_14  and  O_15 
REMARK    4  A    between atoms: O_15  and  C_16 
REMARK    5  A    between atoms: C_27  and  N_28 
ROOT
HETATM    1  C   UNL     1      22.957  42.174  49.173  1.00  0.00     0.073 C 
HETATM    2  C   UNL     1      24.053  41.295  48.698  1.00  0.00     0.062 A 
HETATM    3  N   UNL     1      23.962  40.678  47.508  1.00  0.00    -0.177 NA
HETATM    4  N   UNL     1      25.110  39.977  47.406  1.00  0.00    -0.256 N 
HETATM    5  H   UNL     1      25.268  39.412  46.579  1.00  0.00     0.191 HD
HETATM    6  C   UNL     1      25.923  40.145  48.479  1.00  0.00     0.175 A 
HETATM    7  C   UNL     1      25.277  40.993  49.339  1.00  0.00     0.035 A 
HETATM    8  C   UNL     1      25.904  41.383  50.638  1.00  0.00     0.111 A 
HETATM    9  C   UNL     1      27.281  40.707  50.754  1.00  0.00     0.067 A 
HETATM   10  C   UNL     1      28.077  41.047  52.003  1.00  0.00     0.020 C 
HETATM   11  N   UNL     1      28.738  41.329  53.039  1.00  0.00    -0.096 N 
HETATM   12  C   UNL     1      27.807  39.881  49.811  1.00  0.00     0.139 A 
HETATM   13  O   UNL     1      27.113  39.574  48.627  1.00  0.00    -0.279 OA
ENDROOT
BRANCH   8  14
HETATM   14  C   UNL     1      25.951  42.892  50.805  1.00  0.00    -0.003 A 
HETATM   15  S   UNL     1      26.707  43.854  49.606  1.00  0.00    -0.098 SA
HETATM   16  C   UNL     1      26.298  45.309  50.401  1.00  0.00    -0.013 A 
HETATM   17  C   UNL     1      26.657  46.616  49.773  1.00  0.00     0.057 C 
HETATM   18  C   UNL     1      25.654  45.083  51.608  1.00  0.00    -0.020 A 
HETATM   19  C   UNL     1      25.436  43.680  51.818  1.00  0.00     0.026 A 
BRANCH  18  20
HETATM   20  C   UNL     1      25.217  46.157  52.569  1.00  0.00     0.215 C 
BRANCH  20  21
HETATM   21  O   UNL     1      25.449  45.745  53.915  1.00  0.00    -0.347 OA
BRANCH  21  22
HETATM   22  C   UNL     1      26.709  45.925  54.415  1.00  0.00     0.069 A 
HETATM   23  C   UNL     1      27.345  47.152  54.625  1.00  0.00     0.040 A 
HETATM   24  C   UNL     1      28.640  47.187  55.152  1.00  0.00     0.045 A 
HETATM   25  C   UNL     1      29.292  46.000  55.463  1.00  0.00     0.116 A 
HETATM   26  F   UNL     1      30.532  46.041  55.967  1.00  0.00    -0.206 F 
HETATM   27  C   UNL     1      28.674  44.775  55.259  1.00  0.00     0.045 A 
HETATM   28  C   UNL     1      27.381  44.739  54.735  1.00  0.00     0.040 A 
ENDBRANCH  21  22
ENDBRANCH  20  21
ENDBRANCH  18  20
ENDBRANCH   8  14
BRANCH  12  29
HETATM   29  N   UNL     1      29.037  39.269  49.881  1.00  0.00    -0.282 NA
HETATM   30  H   UNL     1      29.586  39.283  49.025  1.00  0.00     0.126 HD
HETATM   31  H   UNL     1      28.983  38.347  50.304  1.00  0.00     0.126 HD
ENDBRANCH  12  29
TORSDOF 5
ENDMDL
MODEL 6
REMARK VINA RESULT:      -8.1      2.845      5.061
REMARK  5 active torsions:
REMARK  status: ('A' for Active; 'I' for Inactive)
REMARK    1  A    between atoms: C_8  and  C_9 
REMARK    2  A    between atoms: C_13  and  C_14 
REMARK    3  A    between atoms: C_14  and  O_15 
REMARK    4  A    between atoms: O_15  and  C_16 
REMARK    5  A    between atoms: C_27  and  N_28 
ROOT
HETATM    1  C   UNL     1      26.672  47.871  50.156  1.00  0.00     0.073 C 
HETATM    2  C   UNL     1      26.003  48.778  49.191  1.00  0.00     0.062 A 
HETATM    3  N   UNL     1      26.731  49.595  48.411  1.00  0.00    -0.177 NA
HETATM    4  N   UNL     1      25.814  50.260  47.678  1.00  0.00    -0.256 N 
HETATM    5  H   UNL     1      26.130  50.954  47.010  1.00  0.00     0.191 HD
HETATM    6  C   UNL     1      24.542  49.878  47.958  1.00  0.00     0.175 A 
HETATM    7  C   UNL     1      24.620  48.918  48.931  1.00  0.00     0.035 A 
HETATM    8  C   UNL     1      23.382  48.285  49.478  1.00  0.00     0.111 A 
HETATM    9  C   UNL     1      22.157  48.880  48.761  1.00  0.00     0.067 A 
HETATM   10  C   UNL     1      20.812  48.299  49.166  1.00  0.00     0.020 C 
HETATM   11  N   UNL     1      19.697  47.817  49.503  1.00  0.00    -0.096 N 
HETATM   12  C   UNL     1      22.226  49.838  47.799  1.00  0.00     0.139 A 
HETATM   13  O   UNL     1      23.457  50.371  47.374  1.00  0.00    -0.279 OA
ENDROOT
BRANCH   8  14
HETATM   14  C   UNL     1      23.452  46.770  49.408  1.00  0.00    -0.003 A 
HETATM   15  S   UNL     1      22.811  45.955  48.044  1.00  0.00    -0.098 SA
HETATM   16  C   UNL     1      23.312  44.427  48.622  1.00  0.00    -0.013 A 
HETATM   17  C   UNL     1      23.078  43.212  47.785  1.00  0.00     0.057 C 
HETATM   18  C   UNL     1      23.899  44.508  49.875  1.00  0.00    -0.020 A 
HETATM   19  C   UNL     1      23.998  45.873  50.308  1.00  0.00     0.026 A 
BRANCH  18  20
HETATM   20  C   UNL     1      24.393  43.332  50.677  1.00  0.00     0.215 C 
BRANCH  20  21
HETATM   21  O   UNL     1      24.501  43.681  52.057  1.00  0.00    -0.347 OA
BRANCH  21  22
HETATM   22  C   UNL     1      25.760  43.844  52.563  1.00  0.00     0.069 A 
HETATM   23  C   UNL     1      26.958  43.710  51.854  1.00  0.00     0.040 A 
HETATM   24  C   UNL     1      28.181  43.913  52.501  1.00  0.00     0.045 A 
HETATM   25  C   UNL     1      28.201  44.243  53.851  1.00  0.00     0.116 A 
HETATM   26  F   UNL     1      29.376  44.435  54.465  1.00  0.00    -0.206 F 
HETATM   27  C   UNL     1      27.021  44.378  54.569  1.00  0.00     0.045 A 
HETATM   28  C   UNL     1      25.801  44.177  53.922  1.00  0.00     0.040 A 
ENDBRANCH  21  22
ENDBRANCH  20  21
ENDBRANCH  18  20
ENDBRANCH   8  14
BRANCH  12  29
HETATM   29  N   UNL     1      21.151  50.382  47.134  1.00  0.00    -0.282 NA
HETATM   30  H   UNL     1      20.980  50.017  46.200  1.00  0.00     0.126 HD
HETATM   31  H   UNL     1      21.152  51.397  47.170  1.00  0.00     0.126 HD
ENDBRANCH  12  29
TORSDOF 5
ENDMDL
MODEL 7
REMARK VINA RESULT:      -8.0      3.888      6.229
REMARK  5 active torsions:
REMARK  status: ('A' for Active; 'I' for Inactive)
REMARK    1  A    between atoms: C_8  and  C_9 
REMARK    2  A    between atoms: C_13  and  C_14 
REMARK    3  A    between atoms: C_14  and  O_15 
REMARK    4  A    between atoms: O_15  and  C_16 
REMARK    5  A    between atoms: C_27  and  N_28 
ROOT
HETATM    1  C   UNL     1      21.359  51.104  50.756  1.00  0.00     0.073 C 
HETATM    2  C   UNL     1      20.536  50.902  49.539  1.00  0.00     0.062 A 
HETATM    3  N   UNL     1      19.738  51.885  49.089  1.00  0.00    -0.177 NA
HETATM    4  N   UNL     1      19.151  51.364  47.991  1.00  0.00    -0.256 N 
HETATM    5  H   UNL     1      18.486  51.929  47.476  1.00  0.00     0.191 HD
HETATM    6  C   UNL     1      19.565  50.099  47.728  1.00  0.00     0.175 A 
HETATM    7  C   UNL     1      20.464  49.762  48.705  1.00  0.00     0.035 A 
HETATM    8  C   UNL     1      21.111  48.416  48.714  1.00  0.00     0.111 A 
HETATM    9  C   UNL     1      20.606  47.609  47.504  1.00  0.00     0.067 A 
HETATM   10  C   UNL     1      21.213  46.226  47.337  1.00  0.00     0.020 C 
HETATM   11  N   UNL     1      21.718  45.079  47.197  1.00  0.00    -0.096 N 
HETATM   12  C   UNL     1      19.703  48.074  46.600  1.00  0.00     0.139 A 
HETATM   13  O   UNL     1      19.148  49.363  46.705  1.00  0.00    -0.279 OA
ENDROOT
BRANCH   8  14
HETATM   14  C   UNL     1      22.624  48.524  48.784  1.00  0.00    -0.003 A 
HETATM   15  S   UNL     1      23.431  49.726  47.869  1.00  0.00    -0.098 SA
HETATM   16  C   UNL     1      24.958  49.298  48.503  1.00  0.00    -0.013 A 
HETATM   17  C   UNL     1      26.166  50.082  48.105  1.00  0.00     0.057 C 
HETATM   18  C   UNL     1      24.884  48.202  49.350  1.00  0.00    -0.020 A 
HETATM   19  C   UNL     1      23.524  47.780  49.525  1.00  0.00     0.026 A 
BRANCH  18  20
HETATM   20  C   UNL     1      26.063  47.547  50.021  1.00  0.00     0.215 C 
BRANCH  20  21
HETATM   21  O   UNL     1      26.032  47.788  51.428  1.00  0.00    -0.347 OA
BRANCH  21  22
HETATM   22  C   UNL     1      25.812  46.711  52.241  1.00  0.00     0.069 A 
HETATM   23  C   UNL     1      25.330  45.461  51.841  1.00  0.00     0.040 A 
HETATM   24  C   UNL     1      25.159  44.443  52.786  1.00  0.00     0.045 A 
HETATM   25  C   UNL     1      25.467  44.679  54.120  1.00  0.00     0.116 A 
HETATM   26  F   UNL     1      25.300  43.701  55.019  1.00  0.00    -0.206 F 
HETATM   27  C   UNL     1      25.945  45.915  54.532  1.00  0.00     0.045 A 
HETATM   28  C   UNL     1      26.117  46.931  53.589  1.00  0.00     0.040 A 
ENDBRANCH  21  22
ENDBRANCH  20  21
ENDBRANCH  18  20
ENDBRANCH   8  14
BRANCH  12  29
HETATM   29  N   UNL     1      19.240  47.381  45.505  1.00  0.00    -0.282 NA
HETATM   30  H   UNL     1      19.230  46.368  45.596  1.00  0.00     0.126 HD
HETATM   31  H   UNL     1      19.670  47.698  44.641  1.00  0.00     0.126 HD
ENDBRANCH  12  29
TORSDOF 5
ENDMDL
MODEL 8
REMARK VINA RESULT:      -8.0      4.598      8.390
REMARK  5 active torsions:
REMARK  status: ('A' for Active; 'I' for Inactive)
REMARK    1  A    between atoms: C_8  and  C_9 
REMARK    2  A    between atoms: C_13  and  C_14 
REMARK    3  A    between atoms: C_14  and  O_15 
REMARK    4  A    between atoms: O_15  and  C_16 
REMARK    5  A    between atoms: C_27  and  N_28 
ROOT
HETATM    1  C   UNL     1      26.535  47.122  53.080  1.00  0.00     0.073 C 
HETATM    2  C   UNL     1      26.929  45.834  53.702  1.00  0.00     0.062 A 
HETATM    3  N   UNL     1      27.053  45.735  55.036  1.00  0.00    -0.177 NA
HETATM    4  N   UNL     1      27.416  44.452  55.243  1.00  0.00    -0.256 N 
HETATM    5  H   UNL     1      27.582  44.136  56.192  1.00  0.00     0.191 HD
HETATM    6  C   UNL     1      27.507  43.741  54.091  1.00  0.00     0.175 A 
HETATM    7  C   UNL     1      27.197  44.598  53.068  1.00  0.00     0.035 A 
HETATM    8  C   UNL     1      27.211  44.129  51.650  1.00  0.00     0.111 A 
HETATM    9  C   UNL     1      27.587  42.637  51.619  1.00  0.00     0.067 A 
HETATM   10  C   UNL     1      27.594  41.990  50.245  1.00  0.00     0.020 C 
HETATM   11  N   UNL     1      27.598  41.452  49.104  1.00  0.00    -0.096 N 
HETATM   12  C   UNL     1      27.871  41.900  52.725  1.00  0.00     0.139 A 
HETATM   13  O   UNL     1      27.840  42.458  54.015  1.00  0.00    -0.279 OA
ENDROOT
BRANCH   8  14
HETATM   14  C   UNL     1      25.901  44.441  50.946  1.00  0.00    -0.003 A 
HETATM   15  S   UNL     1      24.611  43.318  51.023  1.00  0.00    -0.098 SA
HETATM   16  C   UNL     1      23.561  44.342  50.148  1.00  0.00    -0.013 A 
HETATM   17  C   UNL     1      22.147  43.920  49.914  1.00  0.00     0.057 C 
HETATM   18  C   UNL     1      24.192  45.503  49.729  1.00  0.00    -0.020 A 
HETATM   19  C   UNL     1      25.539  45.561  50.220  1.00  0.00     0.026 A 
BRANCH  18  20
HETATM   20  C   UNL     1      23.555  46.580  48.890  1.00  0.00     0.215 C 
BRANCH  20  21
HETATM   21  O   UNL     1      24.107  47.856  49.214  1.00  0.00    -0.347 OA
BRANCH  21  22
HETATM   22  C   UNL     1      23.322  48.952  48.987  1.00  0.00     0.069 A 
HETATM   23  C   UNL     1      23.770  50.226  48.626  1.00  0.00     0.040 A 
HETATM   24  C   UNL     1      22.849  51.259  48.419  1.00  0.00     0.045 A 
HETATM   25  C   UNL     1      21.491  51.015  48.577  1.00  0.00     0.116 A 
HETATM   26  F   UNL     1      20.614  52.007  48.378  1.00  0.00    -0.206 F 
HETATM   27  C   UNL     1      21.031  49.756  48.937  1.00  0.00     0.045 A 
HETATM   28  C   UNL     1      21.949  48.725  49.141  1.00  0.00     0.040 A 
ENDBRANCH  21  22
ENDBRANCH  20  21
ENDBRANCH  18  20
ENDBRANCH   8  14
BRANCH  12  29
HETATM   29  N   UNL     1      28.202  40.564  52.730  1.00  0.00    -0.282 NA
HETATM   30  H   UNL     1      27.517  39.938  52.313  1.00  0.00     0.126 HD
HETATM   31  H   UNL     1      28.521  40.252  53.643  1.00  0.00     0.126 HD
ENDBRANCH  12  29
TORSDOF 5
ENDMDL
MODEL 9
REMARK VINA RESULT:      -7.9      2.268      3.781
REMARK  5 active torsions:
REMARK  status: ('A' for Active; 'I' for Inactive)
REMARK    1  A    between atoms: C_8  and  C_9 
REMARK    2  A    between atoms: C_13  and  C_14 
REMARK    3  A    between atoms: C_14  and  O_15 
REMARK    4  A    between atoms: O_15  and  C_16 
REMARK    5  A    between atoms: C_27  and  N_28 
ROOT
HETATM    1  C   UNL     1      25.958  44.683  55.386  1.00  0.00     0.073 C 
HETATM    2  C   UNL     1      25.779  45.823  54.453  1.00  0.00     0.062 A 
HETATM    3  N   UNL     1      25.797  47.085  54.913  1.00  0.00    -0.177 NA
HETATM    4  N   UNL     1      25.607  47.844  53.814  1.00  0.00    -0.256 N 
HETATM    5  H   UNL     1      25.572  48.852  53.913  1.00  0.00     0.191 HD
HETATM    6  C   UNL     1      25.489  47.105  52.682  1.00  0.00     0.175 A 
HETATM    7  C   UNL     1      25.597  45.790  53.051  1.00  0.00     0.035 A 
HETATM    8  C   UNL     1      25.501  44.702  52.032  1.00  0.00     0.111 A 
HETATM    9  C   UNL     1      25.299  45.332  50.643  1.00  0.00     0.067 A 
HETATM   10  C   UNL     1      25.236  44.355  49.481  1.00  0.00     0.020 C 
HETATM   11  N   UNL     1      25.184  43.544  48.517  1.00  0.00    -0.096 N 
HETATM   12  C   UNL     1      25.212  46.670  50.418  1.00  0.00     0.139 A 
HETATM   13  O   UNL     1      25.303  47.604  51.466  1.00  0.00    -0.279 OA
ENDROOT
BRANCH   8  14
HETATM   14  C   UNL     1      26.691  43.761  52.107  1.00  0.00    -0.003 A 
HETATM   15  S   UNL     1      26.550  42.168  51.494  1.00  0.00    -0.098 SA
HETATM   16  C   UNL     1      28.186  41.808  51.828  1.00  0.00    -0.013 A 
HETATM   17  C   UNL     1      28.741  40.477  51.439  1.00  0.00     0.057 C 
HETATM   18  C   UNL     1      28.832  42.856  52.467  1.00  0.00    -0.020 A 
HETATM   19  C   UNL     1      27.962  43.990  52.599  1.00  0.00     0.026 A 
BRANCH  18  20
HETATM   20  C   UNL     1      30.260  42.829  52.945  1.00  0.00     0.215 C 
BRANCH  20  21
HETATM   21  O   UNL     1      30.322  42.417  54.309  1.00  0.00    -0.347 OA
BRANCH  21  22
HETATM   22  C   UNL     1      30.370  43.400  55.258  1.00  0.00     0.069 A 
HETATM   23  C   UNL     1      29.678  44.615  55.222  1.00  0.00     0.040 A 
HETATM   24  C   UNL     1      29.817  45.530  56.271  1.00  0.00     0.045 A 
HETATM   25  C   UNL     1      30.647  45.230  57.344  1.00  0.00     0.116 A 
HETATM   26  F   UNL     1      30.777  46.111  58.344  1.00  0.00    -0.206 F 
HETATM   27  C   UNL     1      31.342  44.029  57.392  1.00  0.00     0.045 A 
HETATM   28  C   UNL     1      31.202  43.115  56.347  1.00  0.00     0.040 A 
ENDBRANCH  21  22
ENDBRANCH  20  21
ENDBRANCH  18  20
ENDBRANCH   8  14
BRANCH  12  29
HETATM   29  N   UNL     1      25.041  47.264  49.188  1.00  0.00    -0.282 NA
HETATM   30  H   UNL     1      25.782  47.097  48.511  1.00  0.00     0.126 HD
HETATM   31  H   UNL     1      24.790  48.245  49.268  1.00  0.00     0.126 HD
ENDBRANCH  12  29
TORSDOF 5
ENDMDL
MODEL 10
REMARK VINA RESULT:      -7.7     10.412     14.029
REMARK  5 active torsions:
REMARK  status: ('A' for Active; 'I' for Inactive)
REMARK    1  A    between atoms: C_8  and  C_9 
REMARK    2  A    between atoms: C_13  and  C_14 
REMARK    3  A    between atoms: C_14  and  O_15 
REMARK    4  A    between atoms: O_15  and  C_16 
REMARK    5  A    between atoms: C_27  and  N_28 
ROOT
HETATM    1  C   UNL     1      19.702  52.369  48.411  1.00  0.00     0.073 C 
HETATM    2  C   UNL     1      19.479  51.045  49.043  1.00  0.00     0.062 A 
HETATM    3  N   UNL     1      20.271  50.631  50.046  1.00  0.00    -0.177 NA
HETATM    4  N   UNL     1      19.791  49.411  50.369  1.00  0.00    -0.256 N 
HETATM    5  H   UNL     1      20.243  48.887  51.109  1.00  0.00     0.191 HD
HETATM    6  C   UNL     1      18.719  49.056  49.617  1.00  0.00     0.175 A 
HETATM    7  C   UNL     1      18.482  50.087  48.747  1.00  0.00     0.035 A 
HETATM    8  C   UNL     1      17.362  50.011  47.762  1.00  0.00     0.111 A 
HETATM    9  C   UNL     1      16.619  48.676  47.950  1.00  0.00     0.067 A 
HETATM   10  C   UNL     1      15.410  48.465  47.054  1.00  0.00     0.020 C 
HETATM   11  N   UNL     1      14.407  48.290  46.310  1.00  0.00    -0.096 N 
HETATM   12  C   UNL     1      16.965  47.733  48.866  1.00  0.00     0.139 A 
HETATM   13  O   UNL     1      18.056  47.912  49.736  1.00  0.00    -0.279 OA
ENDROOT
BRANCH   8  14
HETATM   14  C   UNL     1      16.457  51.228  47.850  1.00  0.00    -0.003 A 
HETATM   15  S   UNL     1      15.929  51.996  46.413  1.00  0.00    -0.098 SA
HETATM   16  C   UNL     1      14.965  53.115  47.270  1.00  0.00    -0.013 A 
HETATM   17  C   UNL     1      14.135  54.100  46.515  1.00  0.00     0.057 C 
HETATM   18  C   UNL     1      15.087  52.967  48.644  1.00  0.00    -0.020 A 
HETATM   19  C   UNL     1      15.934  51.854  48.966  1.00  0.00     0.026 A 
BRANCH  18  20
HETATM   20  C   UNL     1      14.410  53.837  49.671  1.00  0.00     0.215 C 
BRANCH  20  21
HETATM   21  O   UNL     1      14.905  55.173  49.595  1.00  0.00    -0.347 OA
BRANCH  21  22
HETATM   22  C   UNL     1      14.993  55.874  50.766  1.00  0.00     0.069 A 
HETATM   23  C   UNL     1      14.953  55.334  52.055  1.00  0.00     0.040 A 
HETATM   24  C   UNL     1      15.062  56.173  53.169  1.00  0.00     0.045 A 
HETATM   25  C   UNL     1      15.206  57.544  52.989  1.00  0.00     0.116 A 
HETATM   26  F   UNL     1      15.309  58.342  54.060  1.00  0.00    -0.206 F 
HETATM   27  C   UNL     1      15.246  58.094  51.716  1.00  0.00     0.045 A 
HETATM   28  C   UNL     1      15.139  57.257  50.605  1.00  0.00     0.040 A 
ENDBRANCH  21  22
ENDBRANCH  20  21
ENDBRANCH  18  20
ENDBRANCH   8  14
BRANCH  12  29
HETATM   29  N   UNL     1      16.316  46.536  49.064  1.00  0.00    -0.282 NA
HETATM   30  H   UNL     1      16.771  45.888  49.702  1.00  0.00     0.126 HD
HETATM   31  H   UNL     1      16.039  46.101  48.188  1.00  0.00     0.126 HD
ENDBRANCH  12  29
TORSDOF 5
ENDMDL
