MODEL 1
REMARK VINA RESULT:      -9.5      0.000      0.000
REMARK  6 active torsions:
REMARK  status: ('A' for Active; 'I' for Inactive)
REMARK    1  A    between atoms: C_10  and  C_11 
REMARK       I    between atoms: C_11  and  N_12 
REMARK    2  A    between atoms: N_12  and  C_13 
REMARK    3  A    between atoms: C_13  and  C_14 
REMARK    4  A    between atoms: C_14  and  N_15 
REMARK    5  A    between atoms: C_14  and  C_19 
REMARK    6  A    between atoms: C_20  and  O_21 
ROOT
HETATM    1  C   UNL     1      27.219  43.729  51.810  1.00  0.00     0.276 C 
HETATM    2  N   UNL     1      27.555  44.672  50.847  1.00  0.00    -0.353 N 
HETATM    3  O   UNL     1      26.279  42.959  51.631  1.00  0.00    -0.265 OA
HETATM    4  H   UNL     1      28.160  45.422  51.175  1.00  0.00     0.162 HD
ENDROOT
BRANCH   2   5
HETATM    5  C   UNL     1      26.661  44.883  49.712  1.00  0.00     0.161 C 
BRANCH   5   6
HETATM    6  C   UNL     1      25.521  45.899  50.047  1.00  0.00     0.240 C 
BRANCH   6   7
HETATM    7  N   UNL     1      24.168  45.262  49.646  1.00  0.00    -0.069 N 
HETATM    8  H   UNL     1      23.581  46.079  49.425  1.00  0.00     0.279 HD
HETATM    9  C   UNL     1      24.271  44.469  48.374  1.00  0.00     0.270 C 
HETATM   10  C   UNL     1      23.470  44.485  50.717  1.00  0.00     0.270 C 
ENDBRANCH   6   7
BRANCH   6  11
HETATM   11  C   UNL     1      25.745  47.309  49.534  1.00  0.00     0.007 A 
HETATM   12  C   UNL     1      24.638  48.155  49.302  1.00  0.00     0.076 A 
HETATM   13  C   UNL     1      24.827  49.453  48.820  1.00  0.00     0.037 A 
HETATM   14  C   UNL     1      26.114  49.934  48.590  1.00  0.00     0.003 A 
HETATM   15  C   UNL     1      27.214  49.119  48.828  1.00  0.00     0.001 A 
HETATM   16  C   UNL     1      27.035  47.816  49.293  1.00  0.00     0.012 A 
BRANCH  12  17
HETATM   17  O   UNL     1      23.396  47.613  49.516  1.00  0.00    -0.355 OA
HETATM   18  C   UNL     1      22.366  48.058  48.632  1.00  0.00     0.210 C 
ENDBRANCH  12  17
ENDBRANCH   6  11
ENDBRANCH   5   6
ENDBRANCH   2   5
BRANCH   1  19
HETATM   19  C   UNL     1      28.067  43.732  52.978  1.00  0.00     0.150 A 
HETATM   20  O   UNL     1      27.960  44.781  53.854  1.00  0.00    -0.304 OA
HETATM   21  C   UNL     1      28.918  44.606  54.806  1.00  0.00     0.087 A 
HETATM   22  C   UNL     1      29.179  45.480  55.857  1.00  0.00     0.045 A 
HETATM   23  C   UNL     1      29.617  43.431  54.578  1.00  0.00     0.007 A 
HETATM   24  C   UNL     1      30.221  45.137  56.740  1.00  0.00    -0.053 A 
HETATM   25  C   UNL     1      30.962  43.950  56.543  1.00  0.00    -0.055 A 
HETATM   26  C   UNL     1      30.552  46.083  57.865  1.00  0.00     0.049 C 
HETATM   27  C   UNL     1      32.074  43.555  57.479  1.00  0.00     0.049 C 
HETATM   28  C   UNL     1      30.649  43.089  55.469  1.00  0.00     0.022 A 
HETATM   29  C   UNL     1      29.056  42.854  53.398  1.00  0.00    -0.009 A 
HETATM   30  C   UNL     1      29.465  41.584  52.746  1.00  0.00     0.052 C 
ENDBRANCH   1  19
TORSDOF 6
ENDMDL
MODEL 2
REMARK VINA RESULT:      -9.4      2.933      5.190
REMARK  6 active torsions:
REMARK  status: ('A' for Active; 'I' for Inactive)
REMARK    1  A    between atoms: C_10  and  C_11 
REMARK       I    between atoms: C_11  and  N_12 
REMARK    2  A    between atoms: N_12  and  C_13 
REMARK    3  A    between atoms: C_13  and  C_14 
REMARK    4  A    between atoms: C_14  and  N_15 
REMARK    5  A    between atoms: C_14  and  C_19 
REMARK    6  A    between atoms: C_20  and  O_21 
ROOT
HETATM    1  C   UNL     1      24.360  47.777  49.935  1.00  0.00     0.276 C 
HETATM    2  N   UNL     1      23.168  47.185  49.537  1.00  0.00    -0.353 N 
HETATM    3  O   UNL     1      24.679  48.885  49.513  1.00  0.00    -0.265 OA
HETATM    4  H   UNL     1      23.105  46.185  49.720  1.00  0.00     0.162 HD
ENDROOT
BRANCH   2   5
HETATM    5  C   UNL     1      22.395  47.791  48.457  1.00  0.00     0.161 C 
BRANCH   5   6
HETATM    6  C   UNL     1      20.876  47.891  48.810  1.00  0.00     0.240 C 
BRANCH   6   7
HETATM    7  N   UNL     1      20.090  46.972  47.845  1.00  0.00    -0.069 N 
HETATM    8  H   UNL     1      19.231  47.507  47.658  1.00  0.00     0.279 HD
HETATM    9  C   UNL     1      20.780  46.820  46.519  1.00  0.00     0.270 C 
HETATM   10  C   UNL     1      19.678  45.644  48.400  1.00  0.00     0.270 C 
ENDBRANCH   6   7
BRANCH   6  11
HETATM   11  C   UNL     1      20.336  49.304  48.934  1.00  0.00     0.007 A 
HETATM   12  C   UNL     1      19.185  49.549  49.715  1.00  0.00     0.076 A 
HETATM   13  C   UNL     1      18.670  50.843  49.831  1.00  0.00     0.037 A 
HETATM   14  C   UNL     1      19.305  51.909  49.198  1.00  0.00     0.003 A 
HETATM   15  C   UNL     1      20.447  51.686  48.437  1.00  0.00     0.001 A 
HETATM   16  C   UNL     1      20.959  50.395  48.302  1.00  0.00     0.012 A 
BRANCH  12  17
HETATM   17  O   UNL     1      18.587  48.455  50.287  1.00  0.00    -0.355 OA
HETATM   18  C   UNL     1      18.511  48.466  51.713  1.00  0.00     0.210 C 
ENDBRANCH  12  17
ENDBRANCH   6  11
ENDBRANCH   5   6
ENDBRANCH   2   5
BRANCH   1  19
HETATM   19  C   UNL     1      25.134  47.001  50.873  1.00  0.00     0.150 A 
HETATM   20  O   UNL     1      25.402  47.548  52.102  1.00  0.00    -0.304 OA
HETATM   21  C   UNL     1      26.218  46.678  52.758  1.00  0.00     0.087 A 
HETATM   22  C   UNL     1      26.762  46.881  54.023  1.00  0.00     0.045 A 
HETATM   23  C   UNL     1      26.446  45.552  51.983  1.00  0.00     0.007 A 
HETATM   24  C   UNL     1      27.596  45.869  54.538  1.00  0.00    -0.053 A 
HETATM   25  C   UNL     1      27.860  44.707  53.779  1.00  0.00    -0.055 A 
HETATM   26  C   UNL     1      28.231  46.078  55.888  1.00  0.00     0.049 C 
HETATM   27  C   UNL     1      28.740  43.606  54.312  1.00  0.00     0.049 C 
HETATM   28  C   UNL     1      27.272  44.541  52.506  1.00  0.00     0.022 A 
HETATM   29  C   UNL     1      25.732  45.754  50.763  1.00  0.00    -0.009 A 
HETATM   30  C   UNL     1      25.662  44.824  49.606  1.00  0.00     0.052 C 
ENDBRANCH   1  19
TORSDOF 6
ENDMDL
MODEL 3
REMARK VINA RESULT:      -9.3      0.946      1.891
REMARK  6 active torsions:
REMARK  status: ('A' for Active; 'I' for Inactive)
REMARK    1  A    between atoms: C_10  and  C_11 
REMARK       I    between atoms: C_11  and  N_12 
REMARK    2  A    between atoms: N_12  and  C_13 
REMARK    3  A    between atoms: C_13  and  C_14 
REMARK    4  A    between atoms: C_14  and  N_15 
REMARK    5  A    between atoms: C_14  and  C_19 
REMARK    6  A    between atoms: C_20  and  O_21 
ROOT
HETATM    1  C   UNL     1      26.590  44.274  52.308  1.00  0.00     0.276 C 
HETATM    2  N   UNL     1      27.006  44.737  51.066  1.00  0.00    -0.353 N 
HETATM    3  O   UNL     1      25.539  43.649  52.423  1.00  0.00    -0.265 OA
HETATM    4  H   UNL     1      27.732  45.450  51.096  1.00  0.00     0.162 HD
ENDROOT
BRANCH   2   5
HETATM    5  C   UNL     1      26.090  44.659  49.932  1.00  0.00     0.161 C 
BRANCH   5   6
HETATM    6  C   UNL     1      24.955  45.731  50.023  1.00  0.00     0.240 C 
BRANCH   6   7
HETATM    7  N   UNL     1      23.683  45.150  49.361  1.00  0.00    -0.069 N 
HETATM    8  H   UNL     1      23.101  45.984  49.200  1.00  0.00     0.279 HD
HETATM    9  C   UNL     1      23.963  44.571  48.003  1.00  0.00     0.270 C 
HETATM   10  C   UNL     1      22.885  44.204  50.202  1.00  0.00     0.270 C 
ENDBRANCH   6   7
BRANCH   6  11
HETATM   11  C   UNL     1      25.346  47.121  49.555  1.00  0.00     0.007 A 
HETATM   12  C   UNL     1      24.343  48.081  49.298  1.00  0.00     0.076 A 
HETATM   13  C   UNL     1      24.685  49.363  48.857  1.00  0.00     0.037 A 
HETATM   14  C   UNL     1      26.023  49.713  48.693  1.00  0.00     0.003 A 
HETATM   15  C   UNL     1      27.023  48.783  48.956  1.00  0.00     0.001 A 
HETATM   16  C   UNL     1      26.690  47.496  49.381  1.00  0.00     0.012 A 
BRANCH  12  17
HETATM   17  O   UNL     1      23.043  47.667  49.446  1.00  0.00    -0.355 OA
HETATM   18  C   UNL     1      22.107  48.221  48.521  1.00  0.00     0.210 C 
ENDBRANCH  12  17
ENDBRANCH   6  11
ENDBRANCH   5   6
ENDBRANCH   2   5
BRANCH   1  19
HETATM   19  C   UNL     1      27.495  44.567  53.394  1.00  0.00     0.150 A 
HETATM   20  O   UNL     1      28.564  43.732  53.591  1.00  0.00    -0.304 OA
HETATM   21  C   UNL     1      29.201  44.155  54.716  1.00  0.00     0.087 A 
HETATM   22  C   UNL     1      30.312  43.546  55.292  1.00  0.00     0.045 A 
HETATM   23  C   UNL     1      28.579  45.284  55.228  1.00  0.00     0.007 A 
HETATM   24  C   UNL     1      30.830  44.123  56.468  1.00  0.00    -0.053 A 
HETATM   25  C   UNL     1      30.225  45.272  57.026  1.00  0.00    -0.055 A 
HETATM   26  C   UNL     1      32.009  43.463  57.134  1.00  0.00     0.049 C 
HETATM   27  C   UNL     1      30.766  45.914  58.276  1.00  0.00     0.049 C 
HETATM   28  C   UNL     1      29.107  45.861  56.396  1.00  0.00     0.022 A 
HETATM   29  C   UNL     1      27.478  45.561  54.362  1.00  0.00    -0.009 A 
HETATM   30  C   UNL     1      26.504  46.676  54.487  1.00  0.00     0.052 C 
ENDBRANCH   1  19
TORSDOF 6
ENDMDL
MODEL 4
REMARK VINA RESULT:      -8.8      3.157      5.443
REMARK  6 active torsions:
REMARK  status: ('A' for Active; 'I' for Inactive)
REMARK    1  A    between atoms: C_10  and  C_11 
REMARK       I    between atoms: C_11  and  N_12 
REMARK    2  A    between atoms: N_12  and  C_13 
REMARK    3  A    between atoms: C_13  and  C_14 
REMARK    4  A    between atoms: C_14  and  N_15 
REMARK    5  A    between atoms: C_14  and  C_19 
REMARK    6  A    between atoms: C_20  and  O_21 
ROOT
HETATM    1  C   UNL     1      26.593  44.011  51.798  1.00  0.00     0.276 C 
HETATM    2  N   UNL     1      26.062  42.729  51.864  1.00  0.00    -0.353 N 
HETATM    3  O   UNL     1      26.311  44.758  50.865  1.00  0.00    -0.265 OA
HETATM    4  H   UNL     1      26.537  42.101  52.509  1.00  0.00     0.162 HD
ENDROOT
BRANCH   2   5
HETATM    5  C   UNL     1      25.333  42.198  50.715  1.00  0.00     0.161 C 
BRANCH   5   6
HETATM    6  C   UNL     1      26.231  42.120  49.438  1.00  0.00     0.240 C 
BRANCH   6   7
HETATM    7  N   UNL     1      25.315  42.193  48.193  1.00  0.00    -0.069 N 
HETATM    8  H   UNL     1      25.982  42.293  47.416  1.00  0.00     0.279 HD
HETATM    9  C   UNL     1      24.585  40.902  47.950  1.00  0.00     0.270 C 
HETATM   10  C   UNL     1      24.384  43.363  48.138  1.00  0.00     0.270 C 
ENDBRANCH   6   7
BRANCH   6  11
HETATM   11  C   UNL     1      27.237  40.985  49.430  1.00  0.00     0.007 A 
HETATM   12  C   UNL     1      28.076  40.799  48.308  1.00  0.00     0.076 A 
HETATM   13  C   UNL     1      29.002  39.752  48.280  1.00  0.00     0.037 A 
HETATM   14  C   UNL     1      29.124  38.897  49.373  1.00  0.00     0.003 A 
HETATM   15  C   UNL     1      28.316  39.075  50.490  1.00  0.00     0.001 A 
HETATM   16  C   UNL     1      27.378  40.107  50.520  1.00  0.00     0.012 A 
BRANCH  12  17
HETATM   17  O   UNL     1      27.885  41.653  47.252  1.00  0.00    -0.355 OA
HETATM   18  C   UNL     1      28.046  41.079  45.954  1.00  0.00     0.210 C 
ENDBRANCH  12  17
ENDBRANCH   6  11
ENDBRANCH   5   6
ENDBRANCH   2   5
BRANCH   1  19
HETATM   19  C   UNL     1      27.449  44.366  52.904  1.00  0.00     0.150 A 
HETATM   20  O   UNL     1      28.516  43.552  53.185  1.00  0.00    -0.304 OA
HETATM   21  C   UNL     1      29.103  44.036  54.314  1.00  0.00     0.087 A 
HETATM   22  C   UNL     1      30.195  43.467  54.963  1.00  0.00     0.045 A 
HETATM   23  C   UNL     1      28.452  45.182  54.743  1.00  0.00     0.007 A 
HETATM   24  C   UNL     1      30.659  44.106  56.129  1.00  0.00    -0.053 A 
HETATM   25  C   UNL     1      30.022  45.274  56.605  1.00  0.00    -0.055 A 
HETATM   26  C   UNL     1      31.815  43.491  56.875  1.00  0.00     0.049 C 
HETATM   27  C   UNL     1      30.506  45.982  57.843  1.00  0.00     0.049 C 
HETATM   28  C   UNL     1      28.926  45.821  55.903  1.00  0.00     0.022 A 
HETATM   29  C   UNL     1      27.385  45.406  53.820  1.00  0.00    -0.009 A 
HETATM   30  C   UNL     1      26.398  46.515  53.852  1.00  0.00     0.052 C 
ENDBRANCH   1  19
TORSDOF 6
ENDMDL
MODEL 5
REMARK VINA RESULT:      -8.7      2.658      5.134
REMARK  6 active torsions:
REMARK  status: ('A' for Active; 'I' for Inactive)
REMARK    1  A    between atoms: C_10  and  C_11 
REMARK       I    between atoms: C_11  and  N_12 
REMARK    2  A    between atoms: N_12  and  C_13 
REMARK    3  A    between atoms: C_13  and  C_14 
REMARK    4  A    between atoms: C_14  and  N_15 
REMARK    5  A    between atoms: C_14  and  C_19 
REMARK    6  A    between atoms: C_20  and  O_21 
ROOT
HETATM    1  C   UNL     1      25.845  43.996  52.781  1.00  0.00     0.276 C 
HETATM    2  N   UNL     1      26.132  42.924  51.946  1.00  0.00    -0.353 N 
HETATM    3  O   UNL     1      24.749  44.547  52.736  1.00  0.00    -0.265 OA
HETATM    4  H   UNL     1      27.122  42.699  51.863  1.00  0.00     0.162 HD
ENDROOT
BRANCH   2   5
HETATM    5  C   UNL     1      25.203  42.586  50.871  1.00  0.00     0.161 C 
BRANCH   5   6
HETATM    6  C   UNL     1      25.852  42.767  49.460  1.00  0.00     0.240 C 
BRANCH   6   7
HETATM    7  N   UNL     1      25.653  44.236  49.017  1.00  0.00    -0.069 N 
HETATM    8  H   UNL     1      25.751  44.187  47.994  1.00  0.00     0.279 HD
HETATM    9  C   UNL     1      24.255  44.723  49.278  1.00  0.00     0.270 C 
HETATM   10  C   UNL     1      26.671  45.211  49.519  1.00  0.00     0.270 C 
ENDBRANCH   6   7
BRANCH   6  11
HETATM   11  C   UNL     1      25.451  41.725  48.432  1.00  0.00     0.007 A 
HETATM   12  C   UNL     1      26.444  41.091  47.653  1.00  0.00     0.076 A 
HETATM   13  C   UNL     1      26.091  40.137  46.694  1.00  0.00     0.037 A 
HETATM   14  C   UNL     1      24.755  39.783  46.517  1.00  0.00     0.003 A 
HETATM   15  C   UNL     1      23.767  40.388  47.286  1.00  0.00     0.001 A 
HETATM   16  C   UNL     1      24.109  41.354  48.234  1.00  0.00     0.012 A 
BRANCH  12  17
HETATM   17  O   UNL     1      27.737  41.505  47.851  1.00  0.00    -0.355 OA
HETATM   18  C   UNL     1      28.633  40.514  48.356  1.00  0.00     0.210 C 
ENDBRANCH  12  17
ENDBRANCH   6  11
ENDBRANCH   5   6
ENDBRANCH   2   5
BRANCH   1  19
HETATM   19  C   UNL     1      26.911  44.360  53.684  1.00  0.00     0.150 A 
HETATM   20  O   UNL     1      27.955  43.485  53.840  1.00  0.00    -0.304 OA
HETATM   21  C   UNL     1      28.769  44.001  54.801  1.00  0.00     0.087 A 
HETATM   22  C   UNL     1      29.921  43.395  55.293  1.00  0.00     0.045 A 
HETATM   23  C   UNL     1      28.284  45.224  55.239  1.00  0.00     0.007 A 
HETATM   24  C   UNL     1      30.632  44.077  56.299  1.00  0.00    -0.053 A 
HETATM   25  C   UNL     1      30.171  45.324  56.779  1.00  0.00    -0.055 A 
HETATM   26  C   UNL     1      31.861  43.426  56.879  1.00  0.00     0.049 C 
HETATM   27  C   UNL     1      30.919  46.079  57.846  1.00  0.00     0.049 C 
HETATM   28  C   UNL     1      29.004  45.905  56.237  1.00  0.00     0.022 A 
HETATM   29  C   UNL     1      27.084  45.465  54.504  1.00  0.00    -0.009 A 
HETATM   30  C   UNL     1      26.195  46.650  54.614  1.00  0.00     0.052 C 
ENDBRANCH   1  19
TORSDOF 6
ENDMDL
MODEL 6
REMARK VINA RESULT:      -8.3      3.514      5.472
REMARK  6 active torsions:
REMARK  status: ('A' for Active; 'I' for Inactive)
REMARK    1  A    between atoms: C_10  and  C_11 
REMARK       I    between atoms: C_11  and  N_12 
REMARK    2  A    between atoms: N_12  and  C_13 
REMARK    3  A    between atoms: C_13  and  C_14 
REMARK    4  A    between atoms: C_14  and  N_15 
REMARK    5  A    between atoms: C_14  and  C_19 
REMARK    6  A    between atoms: C_20  and  O_21 
ROOT
HETATM    1  C   UNL     1      25.719  43.039  51.357  1.00  0.00     0.276 C 
HETATM    2  N   UNL     1      26.197  42.745  50.086  1.00  0.00    -0.353 N 
HETATM    3  O   UNL     1      24.514  43.152  51.560  1.00  0.00    -0.265 OA
HETATM    4  H   UNL     1      27.191  42.923  49.951  1.00  0.00     0.162 HD
ENDROOT
BRANCH   2   5
HETATM    5  C   UNL     1      25.278  42.776  48.952  1.00  0.00     0.161 C 
BRANCH   5   6
HETATM    6  C   UNL     1      25.586  41.642  47.920  1.00  0.00     0.240 C 
BRANCH   6   7
HETATM    7  N   UNL     1      24.244  41.127  47.348  1.00  0.00    -0.069 N 
HETATM    8  H   UNL     1      24.351  40.104  47.382  1.00  0.00     0.279 HD
HETATM    9  C   UNL     1      23.083  41.453  48.245  1.00  0.00     0.270 C 
HETATM   10  C   UNL     1      23.955  41.500  45.928  1.00  0.00     0.270 C 
ENDBRANCH   6   7
BRANCH   6  11
HETATM   11  C   UNL     1      26.530  40.563  48.415  1.00  0.00     0.007 A 
HETATM   12  C   UNL     1      27.864  40.531  47.952  1.00  0.00     0.076 A 
HETATM   13  C   UNL     1      28.744  39.538  48.391  1.00  0.00     0.037 A 
HETATM   14  C   UNL     1      28.318  38.583  49.311  1.00  0.00     0.003 A 
HETATM   15  C   UNL     1      27.012  38.608  49.788  1.00  0.00     0.001 A 
HETATM   16  C   UNL     1      26.122  39.587  49.343  1.00  0.00     0.012 A 
BRANCH  12  17
HETATM   17  O   UNL     1      28.214  41.478  47.023  1.00  0.00    -0.355 OA
HETATM   18  C   UNL     1      28.262  41.028  45.668  1.00  0.00     0.210 C 
ENDBRANCH  12  17
ENDBRANCH   6  11
ENDBRANCH   5   6
ENDBRANCH   2   5
BRANCH   1  19
HETATM   19  C   UNL     1      26.739  43.165  52.370  1.00  0.00     0.150 A 
HETATM   20  O   UNL     1      26.751  44.299  53.140  1.00  0.00    -0.304 OA
HETATM   21  C   UNL     1      27.848  44.227  53.942  1.00  0.00     0.087 A 
HETATM   22  C   UNL     1      28.253  45.206  54.844  1.00  0.00     0.045 A 
HETATM   23  C   UNL     1      28.524  43.036  53.730  1.00  0.00     0.007 A 
HETATM   24  C   UNL     1      29.426  44.959  55.584  1.00  0.00    -0.053 A 
HETATM   25  C   UNL     1      30.149  43.759  55.396  1.00  0.00    -0.055 A 
HETATM   26  C   UNL     1      29.911  46.018  56.540  1.00  0.00     0.049 C 
HETATM   27  C   UNL     1      31.400  43.466  56.182  1.00  0.00     0.049 C 
HETATM   28  C   UNL     1      29.689  42.790  54.479  1.00  0.00     0.022 A 
HETATM   29  C   UNL     1      27.797  42.338  52.719  1.00  0.00    -0.009 A 
HETATM   30  C   UNL     1      28.123  41.007  52.145  1.00  0.00     0.052 C 
ENDBRANCH   1  19
TORSDOF 6
ENDMDL
MODEL 7
REMARK VINA RESULT:      -8.2      3.090      9.879
REMARK  6 active torsions:
REMARK  status: ('A' for Active; 'I' for Inactive)
REMARK    1  A    between atoms: C_10  and  C_11 
REMARK       I    between atoms: C_11  and  N_12 
REMARK    2  A    between atoms: N_12  and  C_13 
REMARK    3  A    between atoms: C_13  and  C_14 
REMARK    4  A    between atoms: C_14  and  N_15 
REMARK    5  A    between atoms: C_14  and  C_19 
REMARK    6  A    between atoms: C_20  and  O_21 
ROOT
HETATM    1  C   UNL     1      23.483  49.002  49.352  1.00  0.00     0.276 C 
HETATM    2  N   UNL     1      23.676  47.826  50.066  1.00  0.00    -0.353 N 
HETATM    3  O   UNL     1      24.442  49.655  48.951  1.00  0.00    -0.265 OA
HETATM    4  H   UNL     1      22.858  47.493  50.573  1.00  0.00     0.162 HD
ENDROOT
BRANCH   2   5
HETATM    5  C   UNL     1      25.020  47.476  50.516  1.00  0.00     0.161 C 
BRANCH   5   6
HETATM    6  C   UNL     1      25.366  45.981  50.217  1.00  0.00     0.240 C 
BRANCH   6   7
HETATM    7  N   UNL     1      24.047  45.225  49.929  1.00  0.00    -0.069 N 
HETATM    8  H   UNL     1      23.325  45.937  50.104  1.00  0.00     0.279 HD
HETATM    9  C   UNL     1      23.914  44.846  48.482  1.00  0.00     0.270 C 
HETATM   10  C   UNL     1      23.755  44.062  50.825  1.00  0.00     0.270 C 
ENDBRANCH   6   7
BRANCH   6  11
HETATM   11  C   UNL     1      26.280  45.318  51.230  1.00  0.00     0.007 A 
HETATM   12  C   UNL     1      27.172  44.305  50.813  1.00  0.00     0.076 A 
HETATM   13  C   UNL     1      28.013  43.677  51.736  1.00  0.00     0.037 A 
HETATM   14  C   UNL     1      27.998  44.065  53.074  1.00  0.00     0.003 A 
HETATM   15  C   UNL     1      27.136  45.070  53.497  1.00  0.00     0.001 A 
HETATM   16  C   UNL     1      26.281  45.691  52.586  1.00  0.00     0.012 A 
BRANCH  12  17
HETATM   17  O   UNL     1      27.117  43.945  49.490  1.00  0.00    -0.355 OA
HETATM   18  C   UNL     1      26.761  42.586  49.233  1.00  0.00     0.210 C 
ENDBRANCH  12  17
ENDBRANCH   6  11
ENDBRANCH   5   6
ENDBRANCH   2   5
BRANCH   1  19
HETATM   19  C   UNL     1      22.100  49.345  49.120  1.00  0.00     0.150 A 
HETATM   20  O   UNL     1      21.625  50.516  49.653  1.00  0.00    -0.304 OA
HETATM   21  C   UNL     1      20.292  50.566  49.383  1.00  0.00     0.087 A 
HETATM   22  C   UNL     1      19.423  51.573  49.795  1.00  0.00     0.045 A 
HETATM   23  C   UNL     1      19.907  49.459  48.643  1.00  0.00     0.007 A 
HETATM   24  C   UNL     1      18.069  51.448  49.429  1.00  0.00    -0.053 A 
HETATM   25  C   UNL     1      17.632  50.333  48.678  1.00  0.00    -0.055 A 
HETATM   26  C   UNL     1      17.098  52.503  49.893  1.00  0.00     0.049 C 
HETATM   27  C   UNL     1      16.191  50.182  48.265  1.00  0.00     0.049 C 
HETATM   28  C   UNL     1      18.555  49.345  48.273  1.00  0.00     0.022 A 
HETATM   29  C   UNL     1      21.084  48.671  48.459  1.00  0.00    -0.009 A 
HETATM   30  C   UNL     1      21.188  47.383  47.727  1.00  0.00     0.052 C 
ENDBRANCH   1  19
TORSDOF 6
ENDMDL
MODEL 8
REMARK VINA RESULT:      -8.1      2.286      8.964
REMARK  6 active torsions:
REMARK  status: ('A' for Active; 'I' for Inactive)
REMARK    1  A    between atoms: C_10  and  C_11 
REMARK       I    between atoms: C_11  and  N_12 
REMARK    2  A    between atoms: N_12  and  C_13 
REMARK    3  A    between atoms: C_13  and  C_14 
REMARK    4  A    between atoms: C_14  and  N_15 
REMARK    5  A    between atoms: C_14  and  C_19 
REMARK    6  A    between atoms: C_20  and  O_21 
ROOT
HETATM    1  C   UNL     1      25.586  47.303  50.060  1.00  0.00     0.276 C 
HETATM    2  N   UNL     1      25.881  45.989  49.720  1.00  0.00    -0.353 N 
HETATM    3  O   UNL     1      26.373  47.968  50.728  1.00  0.00    -0.265 OA
HETATM    4  H   UNL     1      25.085  45.440  49.399  1.00  0.00     0.162 HD
ENDROOT
BRANCH   2   5
HETATM    5  C   UNL     1      27.034  45.334  50.332  1.00  0.00     0.161 C 
BRANCH   5   6
HETATM    6  C   UNL     1      26.657  43.954  50.960  1.00  0.00     0.240 C 
BRANCH   6   7
HETATM    7  N   UNL     1      25.158  43.987  51.343  1.00  0.00    -0.069 N 
HETATM    8  H   UNL     1      24.794  44.780  50.797  1.00  0.00     0.279 HD
HETATM    9  C   UNL     1      24.420  42.773  50.852  1.00  0.00     0.270 C 
HETATM   10  C   UNL     1      24.860  44.259  52.783  1.00  0.00     0.270 C 
ENDBRANCH   6   7
BRANCH   6  11
HETATM   11  C   UNL     1      27.589  43.470  52.055  1.00  0.00     0.007 A 
HETATM   12  C   UNL     1      27.891  42.094  52.161  1.00  0.00     0.076 A 
HETATM   13  C   UNL     1      28.741  41.630  53.169  1.00  0.00     0.037 A 
HETATM   14  C   UNL     1      29.319  42.528  54.065  1.00  0.00     0.003 A 
HETATM   15  C   UNL     1      29.043  43.886  53.965  1.00  0.00     0.001 A 
HETATM   16  C   UNL     1      28.183  44.356  52.971  1.00  0.00     0.012 A 
BRANCH  12  17
HETATM   17  O   UNL     1      27.266  41.258  51.271  1.00  0.00    -0.355 OA
HETATM   18  C   UNL     1      28.126  40.396  50.523  1.00  0.00     0.210 C 
ENDBRANCH  12  17
ENDBRANCH   6  11
ENDBRANCH   5   6
ENDBRANCH   2   5
BRANCH   1  19
HETATM   19  C   UNL     1      24.327  47.790  49.548  1.00  0.00     0.150 A 
HETATM   20  O   UNL     1      24.073  49.135  49.624  1.00  0.00    -0.304 OA
HETATM   21  C   UNL     1      22.804  49.328  49.174  1.00  0.00     0.087 A 
HETATM   22  C   UNL     1      22.140  50.551  49.134  1.00  0.00     0.045 A 
HETATM   23  C   UNL     1      22.247  48.126  48.766  1.00  0.00     0.007 A 
HETATM   24  C   UNL     1      20.819  50.555  48.644  1.00  0.00    -0.053 A 
HETATM   25  C   UNL     1      20.212  49.351  48.221  1.00  0.00    -0.055 A 
HETATM   26  C   UNL     1      20.063  51.857  48.625  1.00  0.00     0.049 C 
HETATM   27  C   UNL     1      18.805  49.330  47.683  1.00  0.00     0.049 C 
HETATM   28  C   UNL     1      20.932  48.138  48.269  1.00  0.00     0.022 A 
HETATM   29  C   UNL     1      23.241  47.127  48.995  1.00  0.00    -0.009 A 
HETATM   30  C   UNL     1      23.123  45.672  48.717  1.00  0.00     0.052 C 
ENDBRANCH   1  19
TORSDOF 6
ENDMDL
MODEL 9
REMARK VINA RESULT:      -8.1      3.169      4.743
REMARK  6 active torsions:
REMARK  status: ('A' for Active; 'I' for Inactive)
REMARK    1  A    between atoms: C_10  and  C_11 
REMARK       I    between atoms: C_11  and  N_12 
REMARK    2  A    between atoms: N_12  and  C_13 
REMARK    3  A    between atoms: C_13  and  C_14 
REMARK    4  A    between atoms: C_14  and  N_15 
REMARK    5  A    between atoms: C_14  and  C_19 
REMARK    6  A    between atoms: C_20  and  O_21 
ROOT
HETATM    1  C   UNL     1      26.792  43.971  52.000  1.00  0.00     0.276 C 
HETATM    2  N   UNL     1      27.455  43.397  50.923  1.00  0.00    -0.353 N 
HETATM    3  O   UNL     1      25.575  44.133  51.972  1.00  0.00    -0.265 OA
HETATM    4  H   UNL     1      28.464  43.536  50.918  1.00  0.00     0.162 HD
ENDROOT
BRANCH   2   5
HETATM    5  C   UNL     1      26.731  43.176  49.674  1.00  0.00     0.161 C 
BRANCH   5   6
HETATM    6  C   UNL     1      26.053  41.768  49.634  1.00  0.00     0.240 C 
BRANCH   6   7
HETATM    7  N   UNL     1      27.161  40.691  49.729  1.00  0.00    -0.069 N 
HETATM    8  H   UNL     1      27.626  40.911  50.620  1.00  0.00     0.279 HD
HETATM    9  C   UNL     1      26.595  39.308  49.886  1.00  0.00     0.270 C 
HETATM   10  C   UNL     1      28.204  40.734  48.656  1.00  0.00     0.270 C 
ENDBRANCH   6   7
BRANCH   6  11
HETATM   11  C   UNL     1      25.056  41.567  48.508  1.00  0.00     0.007 A 
HETATM   12  C   UNL     1      23.700  41.910  48.702  1.00  0.00     0.076 A 
HETATM   13  C   UNL     1      22.767  41.722  47.678  1.00  0.00     0.037 A 
HETATM   14  C   UNL     1      23.174  41.219  46.445  1.00  0.00     0.003 A 
HETATM   15  C   UNL     1      24.508  40.890  46.233  1.00  0.00     0.001 A 
HETATM   16  C   UNL     1      25.443  41.059  47.254  1.00  0.00     0.012 A 
BRANCH  12  17
HETATM   17  O   UNL     1      23.356  42.370  49.948  1.00  0.00    -0.355 OA
HETATM   18  C   UNL     1      22.666  43.620  49.977  1.00  0.00     0.210 C 
ENDBRANCH  12  17
ENDBRANCH   6  11
ENDBRANCH   5   6
ENDBRANCH   2   5
BRANCH   1  19
HETATM   19  C   UNL     1      27.640  44.318  53.115  1.00  0.00     0.150 A 
HETATM   20  O   UNL     1      28.699  43.496  53.404  1.00  0.00    -0.304 OA
HETATM   21  C   UNL     1      29.279  43.974  54.539  1.00  0.00     0.087 A 
HETATM   22  C   UNL     1      30.360  43.396  55.197  1.00  0.00     0.045 A 
HETATM   23  C   UNL     1      28.631  45.123  54.965  1.00  0.00     0.007 A 
HETATM   24  C   UNL     1      30.818  44.030  56.369  1.00  0.00    -0.053 A 
HETATM   25  C   UNL     1      30.184  45.201  56.841  1.00  0.00    -0.055 A 
HETATM   26  C   UNL     1      31.963  43.405  57.124  1.00  0.00     0.049 C 
HETATM   27  C   UNL     1      30.661  45.903  58.086  1.00  0.00     0.049 C 
HETATM   28  C   UNL     1      29.099  45.756  56.130  1.00  0.00     0.022 A 
HETATM   29  C   UNL     1      27.575  45.356  54.033  1.00  0.00    -0.009 A 
HETATM   30  C   UNL     1      26.595  46.472  54.057  1.00  0.00     0.052 C 
ENDBRANCH   1  19
TORSDOF 6
ENDMDL
MODEL 10
REMARK VINA RESULT:      -8.1     11.970     13.561
REMARK  6 active torsions:
REMARK  status: ('A' for Active; 'I' for Inactive)
REMARK    1  A    between atoms: C_10  and  C_11 
REMARK       I    between atoms: C_11  and  N_12 
REMARK    2  A    between atoms: N_12  and  C_13 
REMARK    3  A    between atoms: C_13  and  C_14 
REMARK    4  A    between atoms: C_14  and  N_15 
REMARK    5  A    between atoms: C_14  and  C_19 
REMARK    6  A    between atoms: C_20  and  O_21 
ROOT
HETATM    1  C   UNL     1      31.942  49.065  42.093  1.00  0.00     0.276 C 
HETATM    2  N   UNL     1      31.654  48.791  40.762  1.00  0.00    -0.353 N 
HETATM    3  O   UNL     1      31.264  48.575  42.993  1.00  0.00    -0.265 OA
HETATM    4  H   UNL     1      32.085  49.425  40.092  1.00  0.00     0.162 HD
ENDROOT
BRANCH   2   5
HETATM    5  C   UNL     1      30.420  48.086  40.428  1.00  0.00     0.161 C 
BRANCH   5   6
HETATM    6  C   UNL     1      29.254  49.073  40.099  1.00  0.00     0.240 C 
BRANCH   6   7
HETATM    7  N   UNL     1      28.768  48.790  38.658  1.00  0.00    -0.069 N 
HETATM    8  H   UNL     1      29.476  49.259  38.075  1.00  0.00     0.279 HD
HETATM    9  C   UNL     1      28.845  47.331  38.310  1.00  0.00     0.270 C 
HETATM   10  C   UNL     1      27.436  49.367  38.294  1.00  0.00     0.270 C 
ENDBRANCH   6   7
BRANCH   6  11
HETATM   11  C   UNL     1      29.541  50.531  40.406  1.00  0.00     0.007 A 
HETATM   12  C   UNL     1      30.346  51.287  39.526  1.00  0.00     0.076 A 
HETATM   13  C   UNL     1      30.628  52.629  39.799  1.00  0.00     0.037 A 
HETATM   14  C   UNL     1      30.095  53.240  40.931  1.00  0.00     0.003 A 
HETATM   15  C   UNL     1      29.289  52.513  41.800  1.00  0.00     0.001 A 
HETATM   16  C   UNL     1      29.015  51.169  41.544  1.00  0.00     0.012 A 
BRANCH  12  17
HETATM   17  O   UNL     1      30.868  50.621  38.446  1.00  0.00    -0.355 OA
HETATM   18  C   UNL     1      32.115  51.116  37.957  1.00  0.00     0.210 C 
ENDBRANCH  12  17
ENDBRANCH   6  11
ENDBRANCH   5   6
ENDBRANCH   2   5
BRANCH   1  19
HETATM   19  C   UNL     1      33.082  49.924  42.299  1.00  0.00     0.150 A 
HETATM   20  O   UNL     1      34.240  49.638  41.623  1.00  0.00    -0.304 OA
HETATM   21  C   UNL     1      35.184  50.520  42.054  1.00  0.00     0.087 A 
HETATM   22  C   UNL     1      36.515  50.538  41.648  1.00  0.00     0.045 A 
HETATM   23  C   UNL     1      34.636  51.402  42.972  1.00  0.00     0.007 A 
HETATM   24  C   UNL     1      37.350  51.522  42.213  1.00  0.00    -0.053 A 
HETATM   25  C   UNL     1      36.835  52.439  43.157  1.00  0.00    -0.055 A 
HETATM   26  C   UNL     1      38.805  51.541  41.823  1.00  0.00     0.049 C 
HETATM   27  C   UNL     1      37.704  53.507  43.767  1.00  0.00     0.049 C 
HETATM   28  C   UNL     1      35.473  52.388  43.525  1.00  0.00     0.022 A 
HETATM   29  C   UNL     1      33.267  51.026  43.122  1.00  0.00    -0.009 A 
HETATM   30  C   UNL     1      32.257  51.672  43.998  1.00  0.00     0.052 C 
ENDBRANCH   1  19
TORSDOF 6
ENDMDL
