MODEL 1
REMARK VINA RESULT:      -8.9      0.000      0.000
REMARK  4 active torsions:
REMARK  status: ('A' for Active; 'I' for Inactive)
REMARK    1  A    between atoms: N_6  and  N_7 
REMARK       I    between atoms: N_7  and  C_8 
REMARK    2  A    between atoms: C_8  and  C_9 
REMARK    3  A    between atoms: C_10  and  O_11 
REMARK    4  A    between atoms: C_14  and  N_15 
ROOT
HETATM    1  N   UNL     1      29.786  42.524  53.038  1.00  0.00    -0.242 N 
HETATM    2  C   UNL     1      28.848  41.528  52.822  1.00  0.00     0.274 C 
HETATM    3  O   UNL     1      28.344  40.811  53.683  1.00  0.00    -0.266 OA
HETATM    4  H   UNL     1      30.126  43.091  52.274  1.00  0.00     0.192 HD
ENDROOT
BRANCH   1   5
HETATM    5  N   UNL     1      30.345  42.689  54.264  1.00  0.00    -0.166 NA
HETATM    6  C   UNL     1      30.003  43.713  54.981  1.00  0.00     0.157 A 
HETATM    7  C   UNL     1      30.743  44.050  56.290  1.00  0.00     0.279 A 
HETATM    8  C   UNL     1      28.959  44.738  54.832  1.00  0.00     0.028 A 
HETATM    9  N   UNL     1      30.158  45.217  56.748  1.00  0.00    -0.316 N 
HETATM   10  O   UNL     1      31.655  43.413  56.769  1.00  0.00    -0.265 OA
HETATM   11  C   UNL     1      30.535  45.888  57.963  1.00  0.00     0.159 C 
HETATM   12  C   UNL     1      29.112  45.619  55.908  1.00  0.00     0.050 A 
HETATM   13  C   UNL     1      28.275  46.710  56.071  1.00  0.00     0.032 A 
HETATM   14  C   UNL     1      27.256  46.902  55.134  1.00  0.00     0.021 A 
HETATM   15  C   UNL     1      27.085  45.996  54.075  1.00  0.00     0.012 A 
HETATM   16  C   UNL     1      27.928  44.893  53.919  1.00  0.00     0.035 A 
HETATM   17 BR   UNL     1      25.677  46.267  52.840  1.00  0.00    -0.051 Br
ENDBRANCH   1   5
BRANCH   2  18
HETATM   18  C   UNL     1      28.340  41.419  51.430  1.00  0.00     0.068 A 
HETATM   19  C   UNL     1      28.508  40.215  50.736  1.00  0.00     0.081 A 
HETATM   20  C   UNL     1      27.937  40.044  49.480  1.00  0.00     0.039 A 
HETATM   21  C   UNL     1      27.225  41.093  48.893  1.00  0.00     0.026 A 
HETATM   22  C   UNL     1      27.134  42.337  49.524  1.00  0.00     0.006 A 
HETATM   23  C   UNL     1      27.659  42.480  50.812  1.00  0.00     0.043 A 
BRANCH  19  24
HETATM   24  O   UNL     1      29.196  39.148  51.246  1.00  0.00    -0.360 OA
HETATM   25  H   UNL     1      28.628  38.717  51.925  1.00  0.00     0.217 HD
ENDBRANCH  19  24
BRANCH  22  26
HETATM   26  N   UNL     1      26.330  43.346  48.980  1.00  0.00    -0.303 NA
HETATM   27  H   UNL     1      25.343  43.242  49.201  1.00  0.00     0.124 HD
HETATM   28  H   UNL     1      26.474  43.507  47.988  1.00  0.00     0.124 HD
ENDBRANCH  22  26
ENDBRANCH   2  18
TORSDOF 4
ENDMDL
MODEL 2
REMARK VINA RESULT:      -8.8      3.212      4.232
REMARK  4 active torsions:
REMARK  status: ('A' for Active; 'I' for Inactive)
REMARK    1  A    between atoms: N_6  and  N_7 
REMARK       I    between atoms: N_7  and  C_8 
REMARK    2  A    between atoms: C_8  and  C_9 
REMARK    3  A    between atoms: C_10  and  O_11 
REMARK    4  A    between atoms: C_14  and  N_15 
ROOT
HETATM    1  N   UNL     1      26.414  44.033  51.742  1.00  0.00    -0.242 N 
HETATM    2  C   UNL     1      26.943  43.760  50.490  1.00  0.00     0.274 C 
HETATM    3  O   UNL     1      27.219  44.589  49.626  1.00  0.00    -0.266 OA
HETATM    4  H   UNL     1      26.246  43.292  52.406  1.00  0.00     0.192 HD
ENDROOT
BRANCH   1   5
HETATM    5  N   UNL     1      26.014  45.290  52.060  1.00  0.00    -0.166 NA
HETATM    6  C   UNL     1      26.497  45.856  53.122  1.00  0.00     0.157 A 
HETATM    7  C   UNL     1      25.937  47.198  53.632  1.00  0.00     0.279 A 
HETATM    8  C   UNL     1      27.573  45.487  54.054  1.00  0.00     0.028 A 
HETATM    9  N   UNL     1      26.637  47.466  54.794  1.00  0.00    -0.316 N 
HETATM   10  O   UNL     1      25.052  47.839  53.107  1.00  0.00    -0.265 OA
HETATM   11  C   UNL     1      26.446  48.641  55.602  1.00  0.00     0.159 C 
HETATM   12  C   UNL     1      27.598  46.478  55.042  1.00  0.00     0.050 A 
HETATM   13  C   UNL     1      28.510  46.433  56.084  1.00  0.00     0.032 A 
HETATM   14  C   UNL     1      29.420  45.373  56.115  1.00  0.00     0.021 A 
HETATM   15  C   UNL     1      29.413  44.400  55.103  1.00  0.00     0.012 A 
HETATM   16  C   UNL     1      28.496  44.454  54.050  1.00  0.00     0.035 A 
HETATM   17 BR   UNL     1      30.678  42.995  55.157  1.00  0.00    -0.051 Br
ENDBRANCH   1   5
BRANCH   2  18
HETATM   18  C   UNL     1      27.305  42.340  50.245  1.00  0.00     0.068 A 
HETATM   19  C   UNL     1      26.956  41.749  49.025  1.00  0.00     0.081 A 
HETATM   20  C   UNL     1      27.387  40.463  48.720  1.00  0.00     0.039 A 
HETATM   21  C   UNL     1      28.139  39.745  49.652  1.00  0.00     0.026 A 
HETATM   22  C   UNL     1      28.409  40.276  50.916  1.00  0.00     0.006 A 
HETATM   23  C   UNL     1      28.025  41.593  51.190  1.00  0.00     0.043 A 
BRANCH  19  24
HETATM   24  O   UNL     1      26.217  42.391  48.067  1.00  0.00    -0.360 OA
HETATM   25  H   UNL     1      25.459  41.811  47.829  1.00  0.00     0.217 HD
ENDBRANCH  19  24
BRANCH  22  26
HETATM   26  N   UNL     1      29.254  39.595  51.801  1.00  0.00    -0.303 NA
HETATM   27  H   UNL     1      30.219  39.910  51.766  1.00  0.00     0.124 HD
HETATM   28  H   UNL     1      29.190  38.583  51.745  1.00  0.00     0.124 HD
ENDBRANCH  22  26
ENDBRANCH   2  18
TORSDOF 4
ENDMDL
MODEL 3
REMARK VINA RESULT:      -8.7      4.238      5.591
REMARK  4 active torsions:
REMARK  status: ('A' for Active; 'I' for Inactive)
REMARK    1  A    between atoms: N_6  and  N_7 
REMARK       I    between atoms: N_7  and  C_8 
REMARK    2  A    between atoms: C_8  and  C_9 
REMARK    3  A    between atoms: C_10  and  O_11 
REMARK    4  A    between atoms: C_14  and  N_15 
ROOT
HETATM    1  N   UNL     1      26.271  45.348  51.099  1.00  0.00    -0.242 N 
HETATM    2  C   UNL     1      26.666  46.089  49.998  1.00  0.00     0.274 C 
HETATM    3  O   UNL     1      27.566  45.796  49.215  1.00  0.00    -0.266 OA
HETATM    4  H   UNL     1      25.496  45.647  51.675  1.00  0.00     0.192 HD
ENDROOT
BRANCH   1   5
HETATM    5  N   UNL     1      26.983  44.261  51.489  1.00  0.00    -0.166 NA
HETATM    6  C   UNL     1      27.640  44.303  52.606  1.00  0.00     0.157 A 
HETATM    7  C   UNL     1      28.613  43.176  52.999  1.00  0.00     0.279 A 
HETATM    8  C   UNL     1      27.678  45.274  53.710  1.00  0.00     0.028 A 
HETATM    9  N   UNL     1      29.168  43.577  54.201  1.00  0.00    -0.316 N 
HETATM   10  O   UNL     1      28.833  42.175  52.352  1.00  0.00    -0.265 OA
HETATM   11  C   UNL     1      30.129  42.808  54.945  1.00  0.00     0.159 C 
HETATM   12  C   UNL     1      28.621  44.794  54.626  1.00  0.00     0.050 A 
HETATM   13  C   UNL     1      28.901  45.479  55.797  1.00  0.00     0.032 A 
HETATM   14  C   UNL     1      28.200  46.662  56.050  1.00  0.00     0.021 A 
HETATM   15  C   UNL     1      27.230  47.120  55.145  1.00  0.00     0.012 A 
HETATM   16  C   UNL     1      26.947  46.422  53.968  1.00  0.00     0.035 A 
HETATM   17 BR   UNL     1      26.278  48.709  55.530  1.00  0.00    -0.051 Br
ENDBRANCH   1   5
BRANCH   2  18
HETATM   18  C   UNL     1      25.831  47.281  49.695  1.00  0.00     0.068 A 
HETATM   19  C   UNL     1      26.447  48.435  49.195  1.00  0.00     0.081 A 
HETATM   20  C   UNL     1      25.678  49.520  48.790  1.00  0.00     0.039 A 
HETATM   21  C   UNL     1      24.288  49.472  48.918  1.00  0.00     0.026 A 
HETATM   22  C   UNL     1      23.662  48.372  49.512  1.00  0.00     0.006 A 
HETATM   23  C   UNL     1      24.437  47.261  49.860  1.00  0.00     0.043 A 
BRANCH  19  24
HETATM   24  O   UNL     1      27.802  48.554  49.046  1.00  0.00    -0.360 OA
HETATM   25  H   UNL     1      28.074  47.993  48.283  1.00  0.00     0.217 HD
ENDBRANCH  19  24
BRANCH  22  26
HETATM   26  N   UNL     1      22.264  48.286  49.538  1.00  0.00    -0.303 NA
HETATM   27  H   UNL     1      21.808  49.156  49.797  1.00  0.00     0.124 HD
HETATM   28  H   UNL     1      21.904  47.502  50.075  1.00  0.00     0.124 HD
ENDBRANCH  22  26
ENDBRANCH   2  18
TORSDOF 4
ENDMDL
MODEL 4
REMARK VINA RESULT:      -8.2      2.276      6.680
REMARK  4 active torsions:
REMARK  status: ('A' for Active; 'I' for Inactive)
REMARK    1  A    between atoms: N_6  and  N_7 
REMARK       I    between atoms: N_7  and  C_8 
REMARK    2  A    between atoms: C_8  and  C_9 
REMARK    3  A    between atoms: C_10  and  O_11 
REMARK    4  A    between atoms: C_14  and  N_15 
ROOT
HETATM    1  N   UNL     1      28.316  42.459  53.595  1.00  0.00    -0.242 N 
HETATM    2  C   UNL     1      29.614  42.933  53.689  1.00  0.00     0.274 C 
HETATM    3  O   UNL     1      30.494  42.803  52.841  1.00  0.00    -0.266 OA
HETATM    4  H   UNL     1      27.644  42.639  54.327  1.00  0.00     0.192 HD
ENDROOT
BRANCH   1   5
HETATM    5  N   UNL     1      27.950  41.653  52.566  1.00  0.00    -0.166 NA
HETATM    6  C   UNL     1      26.984  42.025  51.786  1.00  0.00     0.157 A 
HETATM    7  C   UNL     1      26.404  41.068  50.727  1.00  0.00     0.279 A 
HETATM    8  C   UNL     1      26.230  43.281  51.652  1.00  0.00     0.028 A 
HETATM    9  N   UNL     1      25.371  41.768  50.132  1.00  0.00    -0.316 N 
HETATM   10  O   UNL     1      26.789  39.940  50.509  1.00  0.00    -0.265 OA
HETATM   11  C   UNL     1      24.554  41.254  49.064  1.00  0.00     0.159 C 
HETATM   12  C   UNL     1      25.269  43.061  50.659  1.00  0.00     0.050 A 
HETATM   13  C   UNL     1      24.384  44.057  50.280  1.00  0.00     0.032 A 
HETATM   14  C   UNL     1      24.487  45.301  50.909  1.00  0.00     0.021 A 
HETATM   15  C   UNL     1      25.476  45.527  51.879  1.00  0.00     0.012 A 
HETATM   16  C   UNL     1      26.370  44.521  52.253  1.00  0.00     0.035 A 
HETATM   17 BR   UNL     1      25.608  47.231  52.690  1.00  0.00    -0.051 Br
ENDBRANCH   1   5
BRANCH   2  18
HETATM   18  C   UNL     1      29.905  43.771  54.881  1.00  0.00     0.068 A 
HETATM   19  C   UNL     1      29.136  44.919  55.111  1.00  0.00     0.081 A 
HETATM   20  C   UNL     1      29.304  45.652  56.280  1.00  0.00     0.039 A 
HETATM   21  C   UNL     1      30.271  45.263  57.210  1.00  0.00     0.026 A 
HETATM   22  C   UNL     1      31.119  44.183  56.951  1.00  0.00     0.006 A 
HETATM   23  C   UNL     1      30.902  43.415  55.803  1.00  0.00     0.043 A 
BRANCH  19  24
HETATM   24  O   UNL     1      28.175  45.361  54.242  1.00  0.00    -0.360 OA
HETATM   25  H   UNL     1      27.434  45.732  54.773  1.00  0.00     0.217 HD
ENDBRANCH  19  24
BRANCH  22  26
HETATM   26  N   UNL     1      32.010  43.735  57.935  1.00  0.00    -0.303 NA
HETATM   27  H   UNL     1      32.529  42.904  57.665  1.00  0.00     0.124 HD
HETATM   28  H   UNL     1      31.597  43.634  58.857  1.00  0.00     0.124 HD
ENDBRANCH  22  26
ENDBRANCH   2  18
TORSDOF 4
ENDMDL
MODEL 5
REMARK VINA RESULT:      -8.2      4.399      5.501
REMARK  4 active torsions:
REMARK  status: ('A' for Active; 'I' for Inactive)
REMARK    1  A    between atoms: N_6  and  N_7 
REMARK       I    between atoms: N_7  and  C_8 
REMARK    2  A    between atoms: C_8  and  C_9 
REMARK    3  A    between atoms: C_10  and  O_11 
REMARK    4  A    between atoms: C_14  and  N_15 
ROOT
HETATM    1  N   UNL     1      25.267  46.350  52.276  1.00  0.00    -0.242 N 
HETATM    2  C   UNL     1      25.264  46.929  51.017  1.00  0.00     0.274 C 
HETATM    3  O   UNL     1      25.931  47.899  50.667  1.00  0.00    -0.266 OA
HETATM    4  H   UNL     1      24.709  45.531  52.471  1.00  0.00     0.192 HD
ENDROOT
BRANCH   1   5
HETATM    5  N   UNL     1      25.937  46.935  53.301  1.00  0.00    -0.166 NA
HETATM    6  C   UNL     1      26.870  46.269  53.906  1.00  0.00     0.157 A 
HETATM    7  C   UNL     1      27.527  46.809  55.191  1.00  0.00     0.279 A 
HETATM    8  C   UNL     1      27.527  44.983  53.626  1.00  0.00     0.028 A 
HETATM    9  N   UNL     1      28.419  45.828  55.583  1.00  0.00    -0.316 N 
HETATM   10  O   UNL     1      27.271  47.867  55.723  1.00  0.00    -0.265 OA
HETATM   11  C   UNL     1      29.269  45.922  56.739  1.00  0.00     0.159 C 
HETATM   12  C   UNL     1      28.431  44.764  54.672  1.00  0.00     0.050 A 
HETATM   13  C   UNL     1      29.225  43.630  54.712  1.00  0.00     0.032 A 
HETATM   14  C   UNL     1      29.109  42.710  53.666  1.00  0.00     0.021 A 
HETATM   15  C   UNL     1      28.226  42.950  52.602  1.00  0.00     0.012 A 
HETATM   16  C   UNL     1      27.433  44.099  52.563  1.00  0.00     0.035 A 
HETATM   17 BR   UNL     1      28.115  41.700  51.187  1.00  0.00    -0.051 Br
ENDBRANCH   1   5
BRANCH   2  18
HETATM   18  C   UNL     1      24.460  46.219  49.988  1.00  0.00     0.068 A 
HETATM   19  C   UNL     1      23.378  46.880  49.394  1.00  0.00     0.081 A 
HETATM   20  C   UNL     1      22.686  46.287  48.344  1.00  0.00     0.039 A 
HETATM   21  C   UNL     1      23.048  45.010  47.908  1.00  0.00     0.026 A 
HETATM   22  C   UNL     1      24.056  44.292  48.556  1.00  0.00     0.006 A 
HETATM   23  C   UNL     1      24.787  44.920  49.569  1.00  0.00     0.043 A 
BRANCH  19  24
HETATM   24  O   UNL     1      22.966  48.129  49.773  1.00  0.00    -0.360 OA
HETATM   25  H   UNL     1      22.556  48.056  50.665  1.00  0.00     0.217 HD
ENDBRANCH  19  24
BRANCH  22  26
HETATM   26  N   UNL     1      24.484  43.061  48.045  1.00  0.00    -0.303 NA
HETATM   27  H   UNL     1      25.279  43.136  47.416  1.00  0.00     0.124 HD
HETATM   28  H   UNL     1      23.743  42.495  47.643  1.00  0.00     0.124 HD
ENDBRANCH  22  26
ENDBRANCH   2  18
TORSDOF 4
ENDMDL
MODEL 6
REMARK VINA RESULT:      -8.1      3.398      7.867
REMARK  4 active torsions:
REMARK  status: ('A' for Active; 'I' for Inactive)
REMARK    1  A    between atoms: N_6  and  N_7 
REMARK       I    between atoms: N_7  and  C_8 
REMARK    2  A    between atoms: C_8  and  C_9 
REMARK    3  A    between atoms: C_10  and  O_11 
REMARK    4  A    between atoms: C_14  and  N_15 
ROOT
HETATM    1  N   UNL     1      25.681  43.423  52.224  1.00  0.00    -0.242 N 
HETATM    2  C   UNL     1      25.767  43.900  53.522  1.00  0.00     0.274 C 
HETATM    3  O   UNL     1      24.823  44.235  54.232  1.00  0.00    -0.266 OA
HETATM    4  H   UNL     1      26.508  43.138  51.720  1.00  0.00     0.192 HD
ENDROOT
BRANCH   1   5
HETATM    5  N   UNL     1      24.493  43.428  51.567  1.00  0.00    -0.166 NA
HETATM    6  C   UNL     1      24.356  42.696  50.505  1.00  0.00     0.157 A 
HETATM    7  C   UNL     1      23.102  42.810  49.618  1.00  0.00     0.279 A 
HETATM    8  C   UNL     1      25.201  41.667  49.881  1.00  0.00     0.028 A 
HETATM    9  N   UNL     1      23.322  41.941  48.565  1.00  0.00    -0.316 N 
HETATM   10  O   UNL     1      22.155  43.538  49.824  1.00  0.00    -0.265 OA
HETATM   11  C   UNL     1      22.389  41.715  47.494  1.00  0.00     0.159 C 
HETATM   12  C   UNL     1      24.538  41.264  48.716  1.00  0.00     0.050 A 
HETATM   13  C   UNL     1      25.069  40.291  47.885  1.00  0.00     0.032 A 
HETATM   14  C   UNL     1      26.285  39.707  48.251  1.00  0.00     0.021 A 
HETATM   15  C   UNL     1      26.928  40.089  49.438  1.00  0.00     0.012 A 
HETATM   16  C   UNL     1      26.385  41.066  50.277  1.00  0.00     0.035 A 
HETATM   17 BR   UNL     1      28.558  39.258  49.921  1.00  0.00    -0.051 Br
ENDBRANCH   1   5
BRANCH   2  18
HETATM   18  C   UNL     1      27.128  43.883  54.120  1.00  0.00     0.068 A 
HETATM   19  C   UNL     1      27.895  42.715  54.032  1.00  0.00     0.081 A 
HETATM   20  C   UNL     1      29.213  42.708  54.474  1.00  0.00     0.039 A 
HETATM   21  C   UNL     1      29.761  43.861  55.042  1.00  0.00     0.026 A 
HETATM   22  C   UNL     1      28.980  45.004  55.234  1.00  0.00     0.006 A 
HETATM   23  C   UNL     1      27.675  45.022  54.731  1.00  0.00     0.043 A 
BRANCH  19  24
HETATM   24  O   UNL     1      27.424  41.549  53.492  1.00  0.00    -0.360 OA
HETATM   25  H   UNL     1      27.250  41.706  52.536  1.00  0.00     0.217 HD
ENDBRANCH  19  24
BRANCH  22  26
HETATM   26  N   UNL     1      29.564  46.186  55.704  1.00  0.00    -0.303 NA
HETATM   27  H   UNL     1      29.267  47.016  55.197  1.00  0.00     0.124 HD
HETATM   28  H   UNL     1      30.575  46.146  55.793  1.00  0.00     0.124 HD
ENDBRANCH  22  26
ENDBRANCH   2  18
TORSDOF 4
ENDMDL
MODEL 7
REMARK VINA RESULT:      -8.0      3.527      7.985
REMARK  4 active torsions:
REMARK  status: ('A' for Active; 'I' for Inactive)
REMARK    1  A    between atoms: N_6  and  N_7 
REMARK       I    between atoms: N_7  and  C_8 
REMARK    2  A    between atoms: C_8  and  C_9 
REMARK    3  A    between atoms: C_10  and  O_11 
REMARK    4  A    between atoms: C_14  and  N_15 
ROOT
HETATM    1  N   UNL     1      25.224  45.211  52.069  1.00  0.00    -0.242 N 
HETATM    2  C   UNL     1      25.328  44.990  53.433  1.00  0.00     0.274 C 
HETATM    3  O   UNL     1      24.582  44.286  54.109  1.00  0.00    -0.266 OA
HETATM    4  H   UNL     1      25.901  45.782  51.583  1.00  0.00     0.192 HD
ENDROOT
BRANCH   1   5
HETATM    5  N   UNL     1      24.151  44.751  51.377  1.00  0.00    -0.166 NA
HETATM    6  C   UNL     1      24.253  43.639  50.719  1.00  0.00     0.157 A 
HETATM    7  C   UNL     1      23.135  43.172  49.767  1.00  0.00     0.279 A 
HETATM    8  C   UNL     1      25.293  42.600  50.663  1.00  0.00     0.028 A 
HETATM    9  N   UNL     1      23.603  41.999  49.205  1.00  0.00    -0.316 N 
HETATM   10  O   UNL     1      22.091  43.753  49.566  1.00  0.00    -0.265 OA
HETATM   11  C   UNL     1      22.867  41.205  48.258  1.00  0.00     0.159 C 
HETATM   12  C   UNL     1      24.855  41.654  49.728  1.00  0.00     0.050 A 
HETATM   13  C   UNL     1      25.609  40.529  49.436  1.00  0.00     0.032 A 
HETATM   14  C   UNL     1      26.819  40.354  50.114  1.00  0.00     0.021 A 
HETATM   15  C   UNL     1      27.236  41.288  51.075  1.00  0.00     0.012 A 
HETATM   16  C   UNL     1      26.469  42.418  51.371  1.00  0.00     0.035 A 
HETATM   17 BR   UNL     1      28.864  41.007  51.997  1.00  0.00    -0.051 Br
ENDBRANCH   1   5
BRANCH   2  18
HETATM   18  C   UNL     1      26.526  45.578  54.087  1.00  0.00     0.068 A 
HETATM   19  C   UNL     1      26.531  46.943  54.396  1.00  0.00     0.081 A 
HETATM   20  C   UNL     1      27.586  47.494  55.116  1.00  0.00     0.039 A 
HETATM   21  C   UNL     1      28.661  46.689  55.498  1.00  0.00     0.026 A 
HETATM   22  C   UNL     1      28.724  45.348  55.108  1.00  0.00     0.006 A 
HETATM   23  C   UNL     1      27.631  44.788  54.438  1.00  0.00     0.043 A 
BRANCH  19  24
HETATM   24  O   UNL     1      25.515  47.793  54.050  1.00  0.00    -0.360 OA
HETATM   25  H   UNL     1      25.739  48.196  53.180  1.00  0.00     0.217 HD
ENDBRANCH  19  24
BRANCH  22  26
HETATM   26  N   UNL     1      29.749  44.523  55.586  1.00  0.00    -0.303 NA
HETATM   27  H   UNL     1      30.384  44.201  54.860  1.00  0.00     0.124 HD
HETATM   28  H   UNL     1      29.431  43.755  56.170  1.00  0.00     0.124 HD
ENDBRANCH  22  26
ENDBRANCH   2  18
TORSDOF 4
ENDMDL
MODEL 8
REMARK VINA RESULT:      -8.0      3.440      4.446
REMARK  4 active torsions:
REMARK  status: ('A' for Active; 'I' for Inactive)
REMARK    1  A    between atoms: N_6  and  N_7 
REMARK       I    between atoms: N_7  and  C_8 
REMARK    2  A    between atoms: C_8  and  C_9 
REMARK    3  A    between atoms: C_10  and  O_11 
REMARK    4  A    between atoms: C_14  and  N_15 
ROOT
HETATM    1  N   UNL     1      26.056  43.659  51.515  1.00  0.00    -0.242 N 
HETATM    2  C   UNL     1      26.306  44.221  50.273  1.00  0.00     0.274 C 
HETATM    3  O   UNL     1      27.267  43.975  49.549  1.00  0.00    -0.266 OA
HETATM    4  H   UNL     1      25.222  43.895  52.032  1.00  0.00     0.192 HD
ENDROOT
BRANCH   1   5
HETATM    5  N   UNL     1      26.980  42.860  52.106  1.00  0.00    -0.166 NA
HETATM    6  C   UNL     1      27.733  43.350  53.041  1.00  0.00     0.157 A 
HETATM    7  C   UNL     1      28.919  42.548  53.609  1.00  0.00     0.279 A 
HETATM    8  C   UNL     1      27.720  44.626  53.772  1.00  0.00     0.028 A 
HETATM    9  N   UNL     1      29.520  43.389  54.528  1.00  0.00    -0.316 N 
HETATM   10  O   UNL     1      29.237  41.427  53.277  1.00  0.00    -0.265 OA
HETATM   11  C   UNL     1      30.670  43.037  55.317  1.00  0.00     0.159 C 
HETATM   12  C   UNL     1      28.822  44.598  54.635  1.00  0.00     0.050 A 
HETATM   13  C   UNL     1      29.101  45.659  55.481  1.00  0.00     0.032 A 
HETATM   14  C   UNL     1      28.240  46.760  55.460  1.00  0.00     0.021 A 
HETATM   15  C   UNL     1      27.118  46.769  54.618  1.00  0.00     0.012 A 
HETATM   16  C   UNL     1      26.836  45.693  53.772  1.00  0.00     0.035 A 
HETATM   17 BR   UNL     1      25.955  48.261  54.636  1.00  0.00    -0.051 Br
ENDBRANCH   1   5
BRANCH   2  18
HETATM   18  C   UNL     1      25.238  45.111  49.747  1.00  0.00     0.068 A 
HETATM   19  C   UNL     1      24.330  44.605  48.810  1.00  0.00     0.081 A 
HETATM   20  C   UNL     1      23.250  45.375  48.394  1.00  0.00     0.039 A 
HETATM   21  C   UNL     1      23.094  46.673  48.884  1.00  0.00     0.026 A 
HETATM   22  C   UNL     1      24.047  47.234  49.739  1.00  0.00     0.006 A 
HETATM   23  C   UNL     1      25.095  46.432  50.201  1.00  0.00     0.043 A 
BRANCH  19  24
HETATM   24  O   UNL     1      24.423  43.344  48.284  1.00  0.00    -0.360 OA
HETATM   25  H   UNL     1      24.722  43.427  47.349  1.00  0.00     0.217 HD
ENDBRANCH  19  24
BRANCH  22  26
HETATM   26  N   UNL     1      23.826  48.494  50.310  1.00  0.00    -0.303 NA
HETATM   27  H   UNL     1      23.398  48.454  51.231  1.00  0.00     0.124 HD
HETATM   28  H   UNL     1      23.344  49.149  49.703  1.00  0.00     0.124 HD
ENDBRANCH  22  26
ENDBRANCH   2  18
TORSDOF 4
ENDMDL
MODEL 9
REMARK VINA RESULT:      -7.7      8.043     10.358
REMARK  4 active torsions:
REMARK  status: ('A' for Active; 'I' for Inactive)
REMARK    1  A    between atoms: N_6  and  N_7 
REMARK       I    between atoms: N_7  and  C_8 
REMARK    2  A    between atoms: C_8  and  C_9 
REMARK    3  A    between atoms: C_10  and  O_11 
REMARK    4  A    between atoms: C_14  and  N_15 
ROOT
HETATM    1  N   UNL     1      22.620  48.962  49.511  1.00  0.00    -0.242 N 
HETATM    2  C   UNL     1      22.040  50.185  49.809  1.00  0.00     0.274 C 
HETATM    3  O   UNL     1      22.605  51.144  50.328  1.00  0.00    -0.266 OA
HETATM    4  H   UNL     1      22.090  48.235  49.054  1.00  0.00     0.192 HD
ENDROOT
BRANCH   1   5
HETATM    5  N   UNL     1      23.882  48.680  49.924  1.00  0.00    -0.166 NA
HETATM    6  C   UNL     1      24.328  47.469  49.806  1.00  0.00     0.157 A 
HETATM    7  C   UNL     1      25.675  47.054  50.430  1.00  0.00     0.279 A 
HETATM    8  C   UNL     1      23.802  46.266  49.143  1.00  0.00     0.028 A 
HETATM    9  N   UNL     1      25.799  45.703  50.161  1.00  0.00    -0.316 N 
HETATM   10  O   UNL     1      26.425  47.784  51.040  1.00  0.00    -0.265 OA
HETATM   11  C   UNL     1      26.927  44.900  50.552  1.00  0.00     0.159 C 
HETATM   12  C   UNL     1      24.717  45.239  49.404  1.00  0.00     0.050 A 
HETATM   13  C   UNL     1      24.520  43.958  48.913  1.00  0.00     0.032 A 
HETATM   14  C   UNL     1      23.385  43.721  48.133  1.00  0.00     0.021 A 
HETATM   15  C   UNL     1      22.490  44.763  47.845  1.00  0.00     0.012 A 
HETATM   16  C   UNL     1      22.696  46.054  48.337  1.00  0.00     0.035 A 
HETATM   17 BR   UNL     1      20.979  44.416  46.761  1.00  0.00    -0.051 Br
ENDBRANCH   1   5
BRANCH   2  18
HETATM   18  C   UNL     1      20.641  50.360  49.341  1.00  0.00     0.068 A 
HETATM   19  C   UNL     1      19.729  49.311  49.512  1.00  0.00     0.081 A 
HETATM   20  C   UNL     1      18.388  49.490  49.196  1.00  0.00     0.039 A 
HETATM   21  C   UNL     1      17.955  50.710  48.670  1.00  0.00     0.026 A 
HETATM   22  C   UNL     1      18.867  51.733  48.395  1.00  0.00     0.006 A 
HETATM   23  C   UNL     1      20.203  51.566  48.773  1.00  0.00     0.043 A 
BRANCH  19  24
HETATM   24  O   UNL     1      20.083  48.088  50.017  1.00  0.00    -0.360 OA
HETATM   25  H   UNL     1      20.993  48.163  50.384  1.00  0.00     0.217 HD
ENDBRANCH  19  24
BRANCH  22  26
HETATM   26  N   UNL     1      18.411  52.987  47.970  1.00  0.00    -0.303 NA
HETATM   27  H   UNL     1      19.093  53.730  48.093  1.00  0.00     0.124 HD
HETATM   28  H   UNL     1      17.503  53.249  48.342  1.00  0.00     0.124 HD
ENDBRANCH  22  26
ENDBRANCH   2  18
TORSDOF 4
ENDMDL
MODEL 10
REMARK VINA RESULT:      -7.5      9.208     11.588
REMARK  4 active torsions:
REMARK  status: ('A' for Active; 'I' for Inactive)
REMARK    1  A    between atoms: N_6  and  N_7 
REMARK       I    between atoms: N_7  and  C_8 
REMARK    2  A    between atoms: C_8  and  C_9 
REMARK    3  A    between atoms: C_10  and  O_11 
REMARK    4  A    between atoms: C_14  and  N_15 
ROOT
HETATM    1  N   UNL     1      22.744  50.259  49.415  1.00  0.00    -0.242 N 
HETATM    2  C   UNL     1      23.685  49.989  48.435  1.00  0.00     0.274 C 
HETATM    3  O   UNL     1      23.732  50.499  47.318  1.00  0.00    -0.266 OA
HETATM    4  H   UNL     1      22.798  49.818  50.321  1.00  0.00     0.192 HD
ENDROOT
BRANCH   1   5
HETATM    5  N   UNL     1      21.670  51.043  49.140  1.00  0.00    -0.166 NA
HETATM    6  C   UNL     1      20.622  50.508  48.595  1.00  0.00     0.157 A 
HETATM    7  C   UNL     1      19.457  51.381  48.089  1.00  0.00     0.279 A 
HETATM    8  C   UNL     1      20.235  49.117  48.318  1.00  0.00     0.028 A 
HETATM    9  N   UNL     1      18.558  50.494  47.526  1.00  0.00    -0.316 N 
HETATM   10  O   UNL     1      19.394  52.588  48.168  1.00  0.00    -0.265 OA
HETATM   11  C   UNL     1      17.302  50.879  46.938  1.00  0.00     0.159 C 
HETATM   12  C   UNL     1      19.000  49.173  47.663  1.00  0.00     0.050 A 
HETATM   13  C   UNL     1      18.345  48.020  47.261  1.00  0.00     0.032 A 
HETATM   14  C   UNL     1      18.947  46.790  47.542  1.00  0.00     0.021 A 
HETATM   15  C   UNL     1      20.170  46.739  48.230  1.00  0.00     0.012 A 
HETATM   16  C   UNL     1      20.823  47.904  48.639  1.00  0.00     0.035 A 
HETATM   17 BR   UNL     1      20.944  45.058  48.621  1.00  0.00    -0.051 Br
ENDBRANCH   1   5
BRANCH   2  18
HETATM   18  C   UNL     1      24.793  49.086  48.843  1.00  0.00     0.068 A 
HETATM   19  C   UNL     1      26.107  49.419  48.496  1.00  0.00     0.081 A 
HETATM   20  C   UNL     1      27.171  48.659  48.967  1.00  0.00     0.039 A 
HETATM   21  C   UNL     1      26.923  47.536  49.760  1.00  0.00     0.026 A 
HETATM   22  C   UNL     1      25.615  47.126  50.031  1.00  0.00     0.006 A 
HETATM   23  C   UNL     1      24.554  47.931  49.605  1.00  0.00     0.043 A 
BRANCH  19  24
HETATM   24  O   UNL     1      26.424  50.501  47.719  1.00  0.00    -0.360 OA
HETATM   25  H   UNL     1      27.405  50.555  47.659  1.00  0.00     0.217 HD
ENDBRANCH  19  24
BRANCH  22  26
HETATM   26  N   UNL     1      25.377  46.065  50.914  1.00  0.00    -0.303 NA
HETATM   27  H   UNL     1      24.394  45.928  51.130  1.00  0.00     0.124 HD
HETATM   28  H   UNL     1      25.944  46.088  51.756  1.00  0.00     0.124 HD
ENDBRANCH  22  26
ENDBRANCH   2  18
TORSDOF 4
ENDMDL
