MODEL 1
REMARK VINA RESULT:      -9.1      0.000      0.000
REMARK  4 active torsions:
REMARK  status: ('A' for Active; 'I' for Inactive)
REMARK    1  A    between atoms: O_2  and  C_3 
REMARK    2  A    between atoms: C_7  and  N_8 
REMARK       I    between atoms: N_8  and  C_9 
REMARK    3  A    between atoms: C_9  and  C_10 
REMARK    4  A    between atoms: C_12  and  C_13 
ROOT
HETATM    1  N   UNL     1      26.818  45.142  51.574  1.00  0.00    -0.320 N 
HETATM    2  C   UNL     1      26.846  44.799  52.913  1.00  0.00     0.256 C 
HETATM    3  O   UNL     1      25.927  44.953  53.710  1.00  0.00    -0.267 OA
HETATM    4  H   UNL     1      27.673  45.066  51.036  1.00  0.00     0.169 HD
ENDROOT
BRANCH   2   5
HETATM    5  C   UNL     1      28.123  44.200  53.413  1.00  0.00     0.033 A 
HETATM    6  C   UNL     1      28.694  44.550  54.647  1.00  0.00     0.029 A 
HETATM    7  C   UNL     1      29.905  43.976  55.068  1.00  0.00    -0.023 A 
HETATM    8  C   UNL     1      30.549  43.062  54.221  1.00  0.00     0.012 A 
HETATM    9  C   UNL     1      29.996  42.723  52.985  1.00  0.00     0.002 A 
HETATM   10  C   UNL     1      28.788  43.289  52.582  1.00  0.00     0.017 A 
BRANCH   7  11
HETATM   11  C   UNL     1      30.474  44.343  56.361  1.00  0.00    -0.002 A 
HETATM   12  C   UNL     1      31.445  43.618  57.026  1.00  0.00     0.153 A 
HETATM   13  O   UNL     1      31.760  44.200  58.212  1.00  0.00    -0.334 OA
HETATM   14  C   UNL     1      30.988  45.308  58.325  1.00  0.00     0.142 A 
HETATM   15  C   UNL     1      30.180  45.441  57.219  1.00  0.00     0.038 A 
ENDBRANCH   7  11
ENDBRANCH   2   5
BRANCH   1  16
HETATM   16  C   UNL     1      25.712  45.628  50.838  1.00  0.00     0.077 A 
HETATM   17  C   UNL     1      24.750  44.825  50.231  1.00  0.00     0.077 A 
HETATM   18  C   UNL     1      23.712  45.406  49.497  1.00  0.00     0.152 A 
HETATM   19  C   UNL     1      23.614  46.794  49.350  1.00  0.00     0.109 A 
HETATM   20  F   UNL     1      22.812  44.582  48.943  1.00  0.00    -0.203 F 
HETATM   21  C   UNL     1      24.570  47.600  49.968  1.00  0.00     0.084 A 
HETATM   22  C   UNL     1      25.601  47.017  50.700  1.00  0.00     0.145 A 
HETATM   23  F   UNL     1      26.520  47.811  51.274  1.00  0.00    -0.204 F 
BRANCH  19  24
HETATM   24  O   UNL     1      22.665  47.489  48.650  1.00  0.00    -0.353 OA
HETATM   25  C   UNL     1      22.313  48.777  49.143  1.00  0.00     0.210 C 
ENDBRANCH  19  24
ENDBRANCH   1  16
TORSDOF 4
ENDMDL
MODEL 2
REMARK VINA RESULT:      -8.9      2.063      2.995
REMARK  4 active torsions:
REMARK  status: ('A' for Active; 'I' for Inactive)
REMARK    1  A    between atoms: O_2  and  C_3 
REMARK    2  A    between atoms: C_7  and  N_8 
REMARK       I    between atoms: N_8  and  C_9 
REMARK    3  A    between atoms: C_9  and  C_10 
REMARK    4  A    between atoms: C_12  and  C_13 
ROOT
HETATM    1  N   UNL     1      26.559  46.047  50.982  1.00  0.00    -0.320 N 
HETATM    2  C   UNL     1      26.992  44.804  50.562  1.00  0.00     0.256 C 
HETATM    3  O   UNL     1      26.990  44.401  49.403  1.00  0.00    -0.267 OA
HETATM    4  H   UNL     1      26.509  46.232  51.977  1.00  0.00     0.169 HD
ENDROOT
BRANCH   2   5
HETATM    5  C   UNL     1      27.490  43.883  51.631  1.00  0.00     0.033 A 
HETATM    6  C   UNL     1      28.268  44.327  52.713  1.00  0.00     0.029 A 
HETATM    7  C   UNL     1      28.731  43.425  53.685  1.00  0.00    -0.023 A 
HETATM    8  C   UNL     1      28.421  42.064  53.543  1.00  0.00     0.012 A 
HETATM    9  C   UNL     1      27.663  41.613  52.461  1.00  0.00     0.002 A 
HETATM   10  C   UNL     1      27.199  42.518  51.509  1.00  0.00     0.017 A 
BRANCH   7  11
HETATM   11  C   UNL     1      29.527  43.909  54.808  1.00  0.00    -0.002 A 
HETATM   12  C   UNL     1      29.325  45.115  55.452  1.00  0.00     0.153 A 
HETATM   13  O   UNL     1      30.234  45.295  56.445  1.00  0.00    -0.334 OA
HETATM   14  C   UNL     1      31.036  44.203  56.447  1.00  0.00     0.142 A 
HETATM   15  C   UNL     1      30.649  43.324  55.462  1.00  0.00     0.038 A 
ENDBRANCH   7  11
ENDBRANCH   2   5
BRANCH   1  16
HETATM   16  C   UNL     1      26.139  47.127  50.171  1.00  0.00     0.077 A 
HETATM   17  C   UNL     1      26.983  48.112  49.664  1.00  0.00     0.077 A 
HETATM   18  C   UNL     1      26.460  49.157  48.896  1.00  0.00     0.152 A 
HETATM   19  C   UNL     1      25.091  49.245  48.624  1.00  0.00     0.109 A 
HETATM   20  F   UNL     1      27.323  50.070  48.428  1.00  0.00    -0.203 F 
HETATM   21  C   UNL     1      24.246  48.252  49.121  1.00  0.00     0.084 A 
HETATM   22  C   UNL     1      24.772  47.212  49.882  1.00  0.00     0.145 A 
HETATM   23  F   UNL     1      23.939  46.275  50.366  1.00  0.00    -0.204 F 
BRANCH  19  24
HETATM   24  O   UNL     1      24.449  50.217  47.905  1.00  0.00    -0.353 OA
HETATM   25  C   UNL     1      23.028  50.140  47.840  1.00  0.00     0.210 C 
ENDBRANCH  19  24
ENDBRANCH   1  16
TORSDOF 4
ENDMDL
MODEL 3
REMARK VINA RESULT:      -8.6      1.425      2.110
REMARK  4 active torsions:
REMARK  status: ('A' for Active; 'I' for Inactive)
REMARK    1  A    between atoms: O_2  and  C_3 
REMARK    2  A    between atoms: C_7  and  N_8 
REMARK       I    between atoms: N_8  and  C_9 
REMARK    3  A    between atoms: C_9  and  C_10 
REMARK    4  A    between atoms: C_12  and  C_13 
ROOT
HETATM    1  N   UNL     1      26.679  44.275  51.551  1.00  0.00    -0.320 N 
HETATM    2  C   UNL     1      26.891  44.525  52.894  1.00  0.00     0.256 C 
HETATM    3  O   UNL     1      26.115  45.106  53.644  1.00  0.00    -0.267 OA
HETATM    4  H   UNL     1      27.436  43.879  51.007  1.00  0.00     0.169 HD
ENDROOT
BRANCH   2   5
HETATM    5  C   UNL     1      28.192  44.043  53.456  1.00  0.00     0.033 A 
HETATM    6  C   UNL     1      28.695  44.485  54.691  1.00  0.00     0.029 A 
HETATM    7  C   UNL     1      29.931  44.021  55.172  1.00  0.00    -0.023 A 
HETATM    8  C   UNL     1      30.668  43.125  54.383  1.00  0.00     0.012 A 
HETATM    9  C   UNL     1      30.182  42.696  53.146  1.00  0.00     0.002 A 
HETATM   10  C   UNL     1      28.950  43.153  52.685  1.00  0.00     0.017 A 
BRANCH   7  11
HETATM   11  C   UNL     1      30.429  44.480  56.464  1.00  0.00    -0.002 A 
HETATM   12  C   UNL     1      31.402  43.837  57.205  1.00  0.00     0.153 A 
HETATM   13  O   UNL     1      31.641  44.494  58.370  1.00  0.00    -0.334 OA
HETATM   14  C   UNL     1      30.818  45.570  58.391  1.00  0.00     0.142 A 
HETATM   15  C   UNL     1      30.052  45.608  57.249  1.00  0.00     0.038 A 
ENDBRANCH   7  11
ENDBRANCH   2   5
BRANCH   1  16
HETATM   16  C   UNL     1      25.504  44.534  50.808  1.00  0.00     0.077 A 
HETATM   17  C   UNL     1      25.162  45.774  50.273  1.00  0.00     0.077 A 
HETATM   18  C   UNL     1      23.959  45.930  49.579  1.00  0.00     0.152 A 
HETATM   19  C   UNL     1      23.072  44.862  49.409  1.00  0.00     0.109 A 
HETATM   20  F   UNL     1      23.688  47.145  49.080  1.00  0.00    -0.203 F 
HETATM   21  C   UNL     1      23.420  43.616  49.934  1.00  0.00     0.084 A 
HETATM   22  C   UNL     1      24.621  43.464  50.621  1.00  0.00     0.145 A 
HETATM   23  F   UNL     1      24.928  42.261  51.133  1.00  0.00    -0.204 F 
BRANCH  19  24
HETATM   24  O   UNL     1      21.862  44.881  48.770  1.00  0.00    -0.353 OA
HETATM   25  C   UNL     1      21.877  44.744  47.353  1.00  0.00     0.210 C 
ENDBRANCH  19  24
ENDBRANCH   1  16
TORSDOF 4
ENDMDL
MODEL 4
REMARK VINA RESULT:      -8.6      1.773      2.342
REMARK  4 active torsions:
REMARK  status: ('A' for Active; 'I' for Inactive)
REMARK    1  A    between atoms: O_2  and  C_3 
REMARK    2  A    between atoms: C_7  and  N_8 
REMARK       I    between atoms: N_8  and  C_9 
REMARK    3  A    between atoms: C_9  and  C_10 
REMARK    4  A    between atoms: C_12  and  C_13 
ROOT
HETATM    1  N   UNL     1      26.186  46.388  50.820  1.00  0.00    -0.320 N 
HETATM    2  C   UNL     1      26.127  46.186  52.186  1.00  0.00     0.256 C 
HETATM    3  O   UNL     1      25.513  46.884  52.986  1.00  0.00    -0.267 OA
HETATM    4  H   UNL     1      26.810  45.808  50.271  1.00  0.00     0.169 HD
ENDROOT
BRANCH   2   5
HETATM    5  C   UNL     1      26.896  45.014  52.712  1.00  0.00     0.033 A 
HETATM    6  C   UNL     1      27.885  45.138  53.701  1.00  0.00     0.029 A 
HETATM    7  C   UNL     1      28.595  44.014  54.153  1.00  0.00    -0.023 A 
HETATM    8  C   UNL     1      28.315  42.764  53.580  1.00  0.00     0.012 A 
HETATM    9  C   UNL     1      27.345  42.637  52.584  1.00  0.00     0.002 A 
HETATM   10  C   UNL     1      26.639  43.757  52.152  1.00  0.00     0.017 A 
BRANCH   7  11
HETATM   11  C   UNL     1      29.610  44.161  55.191  1.00  0.00    -0.002 A 
HETATM   12  C   UNL     1      29.706  45.242  56.048  1.00  0.00     0.153 A 
HETATM   13  O   UNL     1      30.762  45.102  56.891  1.00  0.00    -0.334 OA
HETATM   14  C   UNL     1      31.361  43.927  56.581  1.00  0.00     0.142 A 
HETATM   15  C   UNL     1      30.697  43.312  55.545  1.00  0.00     0.038 A 
ENDBRANCH   7  11
ENDBRANCH   2   5
BRANCH   1  16
HETATM   16  C   UNL     1      25.479  47.352  50.066  1.00  0.00     0.077 A 
HETATM   17  C   UNL     1      24.106  47.324  49.832  1.00  0.00     0.077 A 
HETATM   18  C   UNL     1      23.508  48.313  49.044  1.00  0.00     0.152 A 
HETATM   19  C   UNL     1      24.262  49.341  48.470  1.00  0.00     0.109 A 
HETATM   20  F   UNL     1      22.182  48.237  48.862  1.00  0.00    -0.203 F 
HETATM   21  C   UNL     1      25.636  49.377  48.714  1.00  0.00     0.084 A 
HETATM   22  C   UNL     1      26.226  48.393  49.502  1.00  0.00     0.145 A 
HETATM   23  F   UNL     1      27.553  48.437  49.710  1.00  0.00    -0.204 F 
BRANCH  19  24
HETATM   24  O   UNL     1      23.810  50.355  47.670  1.00  0.00    -0.353 OA
HETATM   25  C   UNL     1      22.896  51.279  48.252  1.00  0.00     0.210 C 
ENDBRANCH  19  24
ENDBRANCH   1  16
TORSDOF 4
ENDMDL
MODEL 5
REMARK VINA RESULT:      -8.5      2.541      8.509
REMARK  4 active torsions:
REMARK  status: ('A' for Active; 'I' for Inactive)
REMARK    1  A    between atoms: O_2  and  C_3 
REMARK    2  A    between atoms: C_7  and  N_8 
REMARK       I    between atoms: N_8  and  C_9 
REMARK    3  A    between atoms: C_9  and  C_10 
REMARK    4  A    between atoms: C_12  and  C_13 
ROOT
HETATM    1  N   UNL     1      27.696  45.382  53.524  1.00  0.00    -0.320 N 
HETATM    2  C   UNL     1      26.347  45.090  53.441  1.00  0.00     0.256 C 
HETATM    3  O   UNL     1      25.682  44.534  54.307  1.00  0.00    -0.267 OA
HETATM    4  H   UNL     1      28.163  45.750  52.704  1.00  0.00     0.169 HD
ENDROOT
BRANCH   2   5
HETATM    5  C   UNL     1      25.664  45.489  52.170  1.00  0.00     0.033 A 
HETATM    6  C   UNL     1      26.017  46.641  51.448  1.00  0.00     0.029 A 
HETATM    7  C   UNL     1      25.336  46.987  50.269  1.00  0.00    -0.023 A 
HETATM    8  C   UNL     1      24.278  46.174  49.838  1.00  0.00     0.012 A 
HETATM    9  C   UNL     1      23.910  45.038  50.560  1.00  0.00     0.002 A 
HETATM   10  C   UNL     1      24.600  44.696  51.721  1.00  0.00     0.017 A 
BRANCH   7  11
HETATM   11  C   UNL     1      25.728  48.180  49.526  1.00  0.00    -0.002 A 
HETATM   12  C   UNL     1      24.848  49.025  48.876  1.00  0.00     0.153 A 
HETATM   13  O   UNL     1      25.511  50.037  48.258  1.00  0.00    -0.334 OA
HETATM   14  C   UNL     1      26.831  49.850  48.502  1.00  0.00     0.142 A 
HETATM   15  C   UNL     1      27.019  48.725  49.271  1.00  0.00     0.038 A 
ENDBRANCH   7  11
ENDBRANCH   2   5
BRANCH   1  16
HETATM   16  C   UNL     1      28.543  45.203  54.642  1.00  0.00     0.077 A 
HETATM   17  C   UNL     1      28.492  45.966  55.805  1.00  0.00     0.077 A 
HETATM   18  C   UNL     1      29.399  45.727  56.842  1.00  0.00     0.152 A 
HETATM   19  C   UNL     1      30.374  44.730  56.740  1.00  0.00     0.109 A 
HETATM   20  F   UNL     1      29.295  46.489  57.940  1.00  0.00    -0.203 F 
HETATM   21  C   UNL     1      30.418  43.956  55.579  1.00  0.00     0.084 A 
HETATM   22  C   UNL     1      29.511  44.196  54.551  1.00  0.00     0.145 A 
HETATM   23  F   UNL     1      29.582  43.450  53.436  1.00  0.00    -0.204 F 
BRANCH  19  24
HETATM   24  O   UNL     1      31.327  44.403  57.665  1.00  0.00    -0.353 OA
HETATM   25  C   UNL     1      32.135  43.264  57.388  1.00  0.00     0.210 C 
ENDBRANCH  19  24
ENDBRANCH   1  16
TORSDOF 4
ENDMDL
MODEL 6
REMARK VINA RESULT:      -8.5      4.436      7.514
REMARK  4 active torsions:
REMARK  status: ('A' for Active; 'I' for Inactive)
REMARK    1  A    between atoms: O_2  and  C_3 
REMARK    2  A    between atoms: C_7  and  N_8 
REMARK       I    between atoms: N_8  and  C_9 
REMARK    3  A    between atoms: C_9  and  C_10 
REMARK    4  A    between atoms: C_12  and  C_13 
ROOT
HETATM    1  N   UNL     1      22.380  49.687  49.097  1.00  0.00    -0.320 N 
HETATM    2  C   UNL     1      23.437  49.816  48.216  1.00  0.00     0.256 C 
HETATM    3  O   UNL     1      23.374  50.294  47.089  1.00  0.00    -0.267 OA
HETATM    4  H   UNL     1      22.528  49.180  49.961  1.00  0.00     0.169 HD
ENDROOT
BRANCH   2   5
HETATM    5  C   UNL     1      24.761  49.310  48.698  1.00  0.00     0.033 A 
HETATM    6  C   UNL     1      24.882  48.258  49.620  1.00  0.00     0.029 A 
HETATM    7  C   UNL     1      26.144  47.828  50.060  1.00  0.00    -0.023 A 
HETATM    8  C   UNL     1      27.286  48.487  49.579  1.00  0.00     0.012 A 
HETATM    9  C   UNL     1      27.173  49.545  48.676  1.00  0.00     0.002 A 
HETATM   10  C   UNL     1      25.916  49.955  48.237  1.00  0.00     0.017 A 
BRANCH   7  11
HETATM   11  C   UNL     1      26.249  46.724  51.007  1.00  0.00    -0.002 A 
HETATM   12  C   UNL     1      26.514  45.412  50.660  1.00  0.00     0.153 A 
HETATM   13  O   UNL     1      26.531  44.612  51.757  1.00  0.00    -0.334 OA
HETATM   14  C   UNL     1      26.272  45.403  52.826  1.00  0.00     0.142 A 
HETATM   15  C   UNL     1      26.088  46.705  52.423  1.00  0.00     0.038 A 
ENDBRANCH   7  11
ENDBRANCH   2   5
BRANCH   1  16
HETATM   16  C   UNL     1      21.061  50.169  48.927  1.00  0.00     0.077 A 
HETATM   17  C   UNL     1      20.734  51.484  48.605  1.00  0.00     0.077 A 
HETATM   18  C   UNL     1      19.394  51.866  48.492  1.00  0.00     0.152 A 
HETATM   19  C   UNL     1      18.356  50.952  48.702  1.00  0.00     0.109 A 
HETATM   20  F   UNL     1      19.141  53.143  48.171  1.00  0.00    -0.203 F 
HETATM   21  C   UNL     1      18.683  49.631  49.013  1.00  0.00     0.084 A 
HETATM   22  C   UNL     1      20.019  49.255  49.121  1.00  0.00     0.145 A 
HETATM   23  F   UNL     1      20.312  47.982  49.438  1.00  0.00    -0.204 F 
BRANCH  19  24
HETATM   24  O   UNL     1      17.011  51.194  48.640  1.00  0.00    -0.353 OA
HETATM   25  C   UNL     1      16.438  51.938  49.710  1.00  0.00     0.210 C 
ENDBRANCH  19  24
ENDBRANCH   1  16
TORSDOF 4
ENDMDL
MODEL 7
REMARK VINA RESULT:      -8.3      3.541      5.024
REMARK  4 active torsions:
REMARK  status: ('A' for Active; 'I' for Inactive)
REMARK    1  A    between atoms: O_2  and  C_3 
REMARK    2  A    between atoms: C_7  and  N_8 
REMARK       I    between atoms: N_8  and  C_9 
REMARK    3  A    between atoms: C_9  and  C_10 
REMARK    4  A    between atoms: C_12  and  C_13 
ROOT
HETATM    1  N   UNL     1      27.961  43.104  51.920  1.00  0.00    -0.320 N 
HETATM    2  C   UNL     1      27.098  43.870  52.681  1.00  0.00     0.256 C 
HETATM    3  O   UNL     1      25.882  43.932  52.537  1.00  0.00    -0.267 OA
HETATM    4  H   UNL     1      28.959  43.213  52.062  1.00  0.00     0.169 HD
ENDROOT
BRANCH   2   5
HETATM    5  C   UNL     1      27.727  44.695  53.759  1.00  0.00     0.033 A 
HETATM    6  C   UNL     1      28.745  44.206  54.593  1.00  0.00     0.029 A 
HETATM    7  C   UNL     1      29.295  45.009  55.606  1.00  0.00    -0.023 A 
HETATM    8  C   UNL     1      28.789  46.305  55.787  1.00  0.00     0.012 A 
HETATM    9  C   UNL     1      27.764  46.792  54.974  1.00  0.00     0.002 A 
HETATM   10  C   UNL     1      27.235  45.991  53.964  1.00  0.00     0.017 A 
BRANCH   7  11
HETATM   11  C   UNL     1      30.362  44.487  56.452  1.00  0.00    -0.002 A 
HETATM   12  C   UNL     1      30.737  45.027  57.668  1.00  0.00     0.153 A 
HETATM   13  O   UNL     1      31.772  44.334  58.210  1.00  0.00    -0.334 OA
HETATM   14  C   UNL     1      32.076  43.338  57.344  1.00  0.00     0.142 A 
HETATM   15  C   UNL     1      31.245  43.387  56.248  1.00  0.00     0.038 A 
ENDBRANCH   7  11
ENDBRANCH   2   5
BRANCH   1  16
HETATM   16  C   UNL     1      27.618  42.170  50.915  1.00  0.00     0.077 A 
HETATM   17  C   UNL     1      26.839  42.460  49.797  1.00  0.00     0.077 A 
HETATM   18  C   UNL     1      26.531  41.453  48.877  1.00  0.00     0.152 A 
HETATM   19  C   UNL     1      26.984  40.142  49.053  1.00  0.00     0.109 A 
HETATM   20  F   UNL     1      25.785  41.795  47.816  1.00  0.00    -0.203 F 
HETATM   21  C   UNL     1      27.775  39.854  50.167  1.00  0.00     0.084 A 
HETATM   22  C   UNL     1      28.082  40.860  51.079  1.00  0.00     0.145 A 
HETATM   23  F   UNL     1      28.830  40.557  52.153  1.00  0.00    -0.204 F 
BRANCH  19  24
HETATM   24  O   UNL     1      26.744  39.065  48.245  1.00  0.00    -0.353 OA
HETATM   25  C   UNL     1      26.833  37.775  48.842  1.00  0.00     0.210 C 
ENDBRANCH  19  24
ENDBRANCH   1  16
TORSDOF 4
ENDMDL
MODEL 8
REMARK VINA RESULT:      -8.3      2.805      3.796
REMARK  4 active torsions:
REMARK  status: ('A' for Active; 'I' for Inactive)
REMARK    1  A    between atoms: O_2  and  C_3 
REMARK    2  A    between atoms: C_7  and  N_8 
REMARK       I    between atoms: N_8  and  C_9 
REMARK    3  A    between atoms: C_9  and  C_10 
REMARK    4  A    between atoms: C_12  and  C_13 
ROOT
HETATM    1  N   UNL     1      26.861  43.891  51.959  1.00  0.00    -0.320 N 
HETATM    2  C   UNL     1      26.359  44.319  53.174  1.00  0.00     0.256 C 
HETATM    3  O   UNL     1      25.227  44.107  53.594  1.00  0.00    -0.267 OA
HETATM    4  H   UNL     1      27.777  44.214  51.672  1.00  0.00     0.169 HD
ENDROOT
BRANCH   2   5
HETATM    5  C   UNL     1      27.294  45.117  54.028  1.00  0.00     0.033 A 
HETATM    6  C   UNL     1      28.307  44.526  54.801  1.00  0.00     0.029 A 
HETATM    7  C   UNL     1      29.150  45.312  55.603  1.00  0.00    -0.023 A 
HETATM    8  C   UNL     1      28.946  46.700  55.638  1.00  0.00     0.012 A 
HETATM    9  C   UNL     1      27.930  47.292  54.886  1.00  0.00     0.002 A 
HETATM   10  C   UNL     1      27.107  46.504  54.085  1.00  0.00     0.017 A 
BRANCH   7  11
HETATM   11  C   UNL     1      30.206  44.681  56.387  1.00  0.00    -0.002 A 
HETATM   12  C   UNL     1      30.641  45.125  57.622  1.00  0.00     0.153 A 
HETATM   13  O   UNL     1      31.646  44.344  58.095  1.00  0.00    -0.334 OA
HETATM   14  C   UNL     1      31.872  43.387  57.163  1.00  0.00     0.142 A 
HETATM   15  C   UNL     1      31.020  43.548  56.096  1.00  0.00     0.038 A 
ENDBRANCH   7  11
ENDBRANCH   2   5
BRANCH   1  16
HETATM   16  C   UNL     1      26.224  43.046  51.020  1.00  0.00     0.077 A 
HETATM   17  C   UNL     1      26.422  41.670  50.930  1.00  0.00     0.077 A 
HETATM   18  C   UNL     1      25.765  40.930  49.942  1.00  0.00     0.152 A 
HETATM   19  C   UNL     1      24.907  41.543  49.023  1.00  0.00     0.109 A 
HETATM   20  F   UNL     1      25.989  39.609  49.910  1.00  0.00    -0.203 F 
HETATM   21  C   UNL     1      24.699  42.920  49.120  1.00  0.00     0.084 A 
HETATM   22  C   UNL     1      25.352  43.652  50.108  1.00  0.00     0.145 A 
HETATM   23  F   UNL     1      25.151  44.979  50.173  1.00  0.00    -0.204 F 
BRANCH  19  24
HETATM   24  O   UNL     1      24.219  40.945  48.003  1.00  0.00    -0.353 OA
HETATM   25  C   UNL     1      22.810  41.143  47.970  1.00  0.00     0.210 C 
ENDBRANCH  19  24
ENDBRANCH   1  16
TORSDOF 4
ENDMDL
MODEL 9
REMARK VINA RESULT:      -8.1      3.008      9.587
REMARK  4 active torsions:
REMARK  status: ('A' for Active; 'I' for Inactive)
REMARK    1  A    between atoms: O_2  and  C_3 
REMARK    2  A    between atoms: C_7  and  N_8 
REMARK       I    between atoms: N_8  and  C_9 
REMARK    3  A    between atoms: C_9  and  C_10 
REMARK    4  A    between atoms: C_12  and  C_13 
ROOT
HETATM    1  N   UNL     1      24.895  47.246  50.504  1.00  0.00    -0.320 N 
HETATM    2  C   UNL     1      23.883  47.282  49.563  1.00  0.00     0.256 C 
HETATM    3  O   UNL     1      23.356  46.304  49.044  1.00  0.00    -0.267 OA
HETATM    4  H   UNL     1      25.326  48.119  50.785  1.00  0.00     0.169 HD
ENDROOT
BRANCH   2   5
HETATM    5  C   UNL     1      23.416  48.642  49.150  1.00  0.00     0.033 A 
HETATM    6  C   UNL     1      22.129  49.124  49.443  1.00  0.00     0.029 A 
HETATM    7  C   UNL     1      21.726  50.401  49.019  1.00  0.00    -0.023 A 
HETATM    8  C   UNL     1      22.625  51.180  48.275  1.00  0.00     0.012 A 
HETATM    9  C   UNL     1      23.898  50.700  47.965  1.00  0.00     0.002 A 
HETATM   10  C   UNL     1      24.292  49.437  48.400  1.00  0.00     0.017 A 
BRANCH   7  11
HETATM   11  C   UNL     1      20.390  50.888  49.346  1.00  0.00    -0.002 A 
HETATM   12  C   UNL     1      19.549  50.312  50.279  1.00  0.00     0.153 A 
HETATM   13  O   UNL     1      18.368  50.978  50.348  1.00  0.00    -0.334 OA
HETATM   14  C   UNL     1      18.435  51.992  49.453  1.00  0.00     0.142 A 
HETATM   15  C   UNL     1      19.651  51.981  48.809  1.00  0.00     0.038 A 
ENDBRANCH   7  11
ENDBRANCH   2   5
BRANCH   1  16
HETATM   16  C   UNL     1      25.442  46.102  51.130  1.00  0.00     0.077 A 
HETATM   17  C   UNL     1      24.974  45.550  52.320  1.00  0.00     0.077 A 
HETATM   18  C   UNL     1      25.608  44.432  52.872  1.00  0.00     0.152 A 
HETATM   19  C   UNL     1      26.720  43.849  52.257  1.00  0.00     0.109 A 
HETATM   20  F   UNL     1      25.107  43.941  54.014  1.00  0.00    -0.203 F 
HETATM   21  C   UNL     1      27.182  44.394  51.058  1.00  0.00     0.084 A 
HETATM   22  C   UNL     1      26.546  45.504  50.510  1.00  0.00     0.145 A 
HETATM   23  F   UNL     1      27.017  46.023  49.364  1.00  0.00    -0.204 F 
BRANCH  19  24
HETATM   24  O   UNL     1      27.440  42.771  52.695  1.00  0.00    -0.353 OA
HETATM   25  C   UNL     1      28.291  42.975  53.818  1.00  0.00     0.210 C 
ENDBRANCH  19  24
ENDBRANCH   1  16
TORSDOF 4
ENDMDL
MODEL 10
REMARK VINA RESULT:      -8.1      2.172      8.350
REMARK  4 active torsions:
REMARK  status: ('A' for Active; 'I' for Inactive)
REMARK    1  A    between atoms: O_2  and  C_3 
REMARK    2  A    between atoms: C_7  and  N_8 
REMARK       I    between atoms: N_8  and  C_9 
REMARK    3  A    between atoms: C_9  and  C_10 
REMARK    4  A    between atoms: C_12  and  C_13 
ROOT
HETATM    1  N   UNL     1      27.325  44.972  52.929  1.00  0.00    -0.320 N 
HETATM    2  C   UNL     1      25.979  44.667  53.004  1.00  0.00     0.256 C 
HETATM    3  O   UNL     1      25.409  44.184  53.976  1.00  0.00    -0.267 OA
HETATM    4  H   UNL     1      27.705  45.270  52.038  1.00  0.00     0.169 HD
ENDROOT
BRANCH   2   5
HETATM    5  C   UNL     1      25.170  44.949  51.777  1.00  0.00     0.033 A 
HETATM    6  C   UNL     1      25.048  46.236  51.228  1.00  0.00     0.029 A 
HETATM    7  C   UNL     1      24.263  46.459  50.085  1.00  0.00    -0.023 A 
HETATM    8  C   UNL     1      23.581  45.374  49.513  1.00  0.00     0.012 A 
HETATM    9  C   UNL     1      23.684  44.096  50.064  1.00  0.00     0.002 A 
HETATM   10  C   UNL     1      24.475  43.884  51.191  1.00  0.00     0.017 A 
BRANCH   7  11
HETATM   11  C   UNL     1      24.160  47.801  49.522  1.00  0.00    -0.002 A 
HETATM   12  C   UNL     1      25.238  48.613  49.222  1.00  0.00     0.153 A 
HETATM   13  O   UNL     1      24.825  49.809  48.730  1.00  0.00    -0.334 OA
HETATM   14  C   UNL     1      23.470  49.781  48.711  1.00  0.00     0.142 A 
HETATM   15  C   UNL     1      23.011  48.575  49.189  1.00  0.00     0.038 A 
ENDBRANCH   7  11
ENDBRANCH   2   5
BRANCH   1  16
HETATM   16  C   UNL     1      28.280  44.896  53.969  1.00  0.00     0.077 A 
HETATM   17  C   UNL     1      29.126  43.812  54.191  1.00  0.00     0.077 A 
HETATM   18  C   UNL     1      30.014  43.824  55.271  1.00  0.00     0.152 A 
HETATM   19  C   UNL     1      30.074  44.908  56.152  1.00  0.00     0.109 A 
HETATM   20  F   UNL     1      30.809  42.756  55.428  1.00  0.00    -0.203 F 
HETATM   21  C   UNL     1      29.235  46.001  55.923  1.00  0.00     0.084 A 
HETATM   22  C   UNL     1      28.355  45.985  54.845  1.00  0.00     0.145 A 
HETATM   23  F   UNL     1      27.544  47.040  54.653  1.00  0.00    -0.204 F 
BRANCH  19  24
HETATM   24  O   UNL     1      30.878  45.042  57.250  1.00  0.00    -0.353 OA
HETATM   25  C   UNL     1      30.458  45.964  58.251  1.00  0.00     0.210 C 
ENDBRANCH  19  24
ENDBRANCH   1  16
TORSDOF 4
ENDMDL
