MODEL 1
REMARK VINA RESULT:     -10.8      0.000      0.000
REMARK  9 active torsions:
REMARK  status: ('A' for Active; 'I' for Inactive)
REMARK    1  A    between atoms: O_2  and  C_3 
REMARK    2  A    between atoms: C_4  and  O_5 
REMARK    3  A    between atoms: C_8  and  C_9 
REMARK    4  A    between atoms: C_9  and  C_10 
REMARK    5  A    between atoms: C_10  and  N_11 
REMARK       I    between atoms: N_11  and  C_12 
REMARK    6  A    between atoms: C_12  and  C_13 
REMARK    7  A    between atoms: C_13  and  C_14 
REMARK    8  A    between atoms: N_21  and  C_22 
REMARK    9  A    between atoms: C_22  and  C_23 
REMARK       I    between atoms: C_23  and  N_24 
ROOT
HETATM    1  C   UNL     1      24.796  47.062  50.427  1.00  0.00     0.048 C 
HETATM    2  C   UNL     1      25.694  48.000  49.819  1.00  0.00     0.006 A 
HETATM    3  C   UNL     1      24.956  48.739  48.884  1.00  0.00     0.045 A 
HETATM    4  C   UNL     1      25.533  49.766  48.117  1.00  0.00     0.030 A 
HETATM    5  C   UNL     1      26.892  50.038  48.285  1.00  0.00     0.002 A 
HETATM    6  C   UNL     1      27.651  49.317  49.197  1.00  0.00     0.001 A 
HETATM    7  C   UNL     1      27.067  48.306  49.970  1.00  0.00     0.015 A 
HETATM    8  N   UNL     1      23.661  48.269  48.922  1.00  0.00    -0.346 N 
HETATM    9  C   UNL     1      23.582  47.204  49.775  1.00  0.00     0.108 C 
ENDROOT
BRANCH   1  10
HETATM   10  C   UNL     1      24.996  46.094  51.504  1.00  0.00     0.251 C 
HETATM   11  O   UNL     1      25.393  46.440  52.617  1.00  0.00    -0.281 OA
BRANCH  10  12
HETATM   12  C   UNL     1      24.747  44.598  51.296  1.00  0.00     0.292 C 
HETATM   13  N   UNL     1      25.832  43.744  51.305  1.00  0.00    -0.354 N 
HETATM   14  H   UNL     1      25.597  42.809  50.992  1.00  0.00     0.162 HD
HETATM   15  O   UNL     1      23.613  44.177  51.104  1.00  0.00    -0.264 OA
BRANCH  13  16
HETATM   16  C   UNL     1      27.222  44.167  51.294  1.00  0.00     0.127 C 
BRANCH  16  17
HETATM   17  C   UNL     1      28.156  43.071  51.807  1.00  0.00     0.058 C 
BRANCH  17  18
HETATM   18  C   UNL     1      28.831  43.471  53.094  1.00  0.00    -0.054 A 
HETATM   19  C   UNL     1      28.289  44.488  53.895  1.00  0.00     0.046 A 
HETATM   20  C   UNL     1      28.913  44.900  55.086  1.00  0.00     0.102 A 
HETATM   21  C   UNL     1      30.110  44.272  55.475  1.00  0.00     0.101 A 
HETATM   22  C   UNL     1      30.653  43.265  54.665  1.00  0.00     0.040 A 
HETATM   23  C   UNL     1      30.023  42.863  53.488  1.00  0.00     0.010 A 
BRANCH  20  24
HETATM   24  O   UNL     1      28.419  45.904  55.876  1.00  0.00    -0.353 OA
HETATM   25  C   UNL     1      27.890  47.063  55.246  1.00  0.00     0.210 C 
ENDBRANCH  20  24
BRANCH  21  26
HETATM   26  O   UNL     1      30.886  44.515  56.580  1.00  0.00    -0.353 OA
HETATM   27  C   UNL     1      31.486  43.417  57.248  1.00  0.00     0.210 C 
ENDBRANCH  21  26
ENDBRANCH  17  18
ENDBRANCH  16  17
ENDBRANCH  13  16
ENDBRANCH  10  12
ENDBRANCH   1  10
BRANCH   8  28
HETATM   28  C   UNL     1      22.544  48.778  48.140  1.00  0.00     0.231 C 
BRANCH  28  29
HETATM   29  C   UNL     1      21.201  48.459  48.778  1.00  0.00     0.238 C 
HETATM   30  N   UNL     1      20.464  49.467  49.406  1.00  0.00    -0.351 N 
HETATM   31  C   UNL     1      19.162  49.116  49.979  1.00  0.00     0.126 C 
HETATM   32  C   UNL     1      20.880  50.867  49.546  1.00  0.00     0.126 C 
HETATM   33  C   UNL     1      17.985  49.894  49.385  1.00  0.00     0.020 C 
HETATM   34  C   UNL     1      17.932  51.345  49.859  1.00  0.00     0.002 C 
HETATM   35  C   UNL     1      18.814  52.318  49.079  1.00  0.00     0.002 C 
HETATM   36  C   UNL     1      20.148  51.780  48.567  1.00  0.00     0.020 C 
HETATM   37  O   UNL     1      20.794  47.291  48.740  1.00  0.00    -0.272 OA
ENDBRANCH  28  29
ENDBRANCH   8  28
TORSDOF 9
ENDMDL
MODEL 2
REMARK VINA RESULT:      -9.8      2.324     10.833
REMARK  9 active torsions:
REMARK  status: ('A' for Active; 'I' for Inactive)
REMARK    1  A    between atoms: O_2  and  C_3 
REMARK    2  A    between atoms: C_4  and  O_5 
REMARK    3  A    between atoms: C_8  and  C_9 
REMARK    4  A    between atoms: C_9  and  C_10 
REMARK    5  A    between atoms: C_10  and  N_11 
REMARK       I    between atoms: N_11  and  C_12 
REMARK    6  A    between atoms: C_12  and  C_13 
REMARK    7  A    between atoms: C_13  and  C_14 
REMARK    8  A    between atoms: N_21  and  C_22 
REMARK    9  A    between atoms: C_22  and  C_23 
REMARK       I    between atoms: C_23  and  N_24 
ROOT
HETATM    1  C   UNL     1      23.409  48.116  48.894  1.00  0.00     0.048 C 
HETATM    2  C   UNL     1      24.690  48.754  48.790  1.00  0.00     0.006 A 
HETATM    3  C   UNL     1      25.606  47.973  49.509  1.00  0.00     0.045 A 
HETATM    4  C   UNL     1      26.968  48.305  49.597  1.00  0.00     0.030 A 
HETATM    5  C   UNL     1      27.411  49.465  48.960  1.00  0.00     0.002 A 
HETATM    6  C   UNL     1      26.527  50.264  48.246  1.00  0.00     0.001 A 
HETATM    7  C   UNL     1      25.174  49.918  48.149  1.00  0.00     0.015 A 
HETATM    8  N   UNL     1      24.908  46.903  50.031  1.00  0.00    -0.346 N 
HETATM    9  C   UNL     1      23.579  47.036  49.744  1.00  0.00     0.108 C 
ENDROOT
BRANCH   1  10
HETATM   10  C   UNL     1      22.117  48.445  48.296  1.00  0.00     0.251 C 
HETATM   11  O   UNL     1      22.030  48.887  47.149  1.00  0.00    -0.281 OA
BRANCH  10  12
HETATM   12  C   UNL     1      20.807  48.282  49.071  1.00  0.00     0.292 C 
HETATM   13  N   UNL     1      20.311  49.370  49.761  1.00  0.00    -0.354 N 
HETATM   14  H   UNL     1      19.544  49.127  50.377  1.00  0.00     0.162 HD
HETATM   15  O   UNL     1      20.230  47.202  49.095  1.00  0.00    -0.264 OA
BRANCH  13  16
HETATM   16  C   UNL     1      21.033  50.611  49.982  1.00  0.00     0.127 C 
BRANCH  16  17
HETATM   17  C   UNL     1      20.791  51.621  48.860  1.00  0.00     0.058 C 
BRANCH  17  18
HETATM   18  C   UNL     1      19.324  51.765  48.545  1.00  0.00    -0.054 A 
HETATM   19  C   UNL     1      18.425  52.205  49.530  1.00  0.00     0.046 A 
HETATM   20  C   UNL     1      17.048  52.321  49.273  1.00  0.00     0.102 A 
HETATM   21  C   UNL     1      16.568  51.986  47.994  1.00  0.00     0.101 A 
HETATM   22  C   UNL     1      17.469  51.536  47.018  1.00  0.00     0.040 A 
HETATM   23  C   UNL     1      18.833  51.427  47.285  1.00  0.00     0.010 A 
BRANCH  20  24
HETATM   24  O   UNL     1      16.146  52.727  50.220  1.00  0.00    -0.353 OA
HETATM   25  C   UNL     1      15.747  54.091  50.234  1.00  0.00     0.210 C 
ENDBRANCH  20  24
BRANCH  21  26
HETATM   26  O   UNL     1      15.279  52.014  47.527  1.00  0.00    -0.353 OA
HETATM   27  C   UNL     1      14.862  53.117  46.737  1.00  0.00     0.210 C 
ENDBRANCH  21  26
ENDBRANCH  17  18
ENDBRANCH  16  17
ENDBRANCH  13  16
ENDBRANCH  10  12
ENDBRANCH   1  10
BRANCH   8  28
HETATM   28  C   UNL     1      25.474  45.817  50.817  1.00  0.00     0.231 C 
BRANCH  28  29
HETATM   29  C   UNL     1      25.795  46.242  52.241  1.00  0.00     0.238 C 
HETATM   30  N   UNL     1      26.455  45.365  53.106  1.00  0.00    -0.351 N 
HETATM   31  C   UNL     1      26.768  45.833  54.458  1.00  0.00     0.126 C 
HETATM   32  C   UNL     1      26.871  43.997  52.778  1.00  0.00     0.126 C 
HETATM   33  C   UNL     1      28.262  45.829  54.794  1.00  0.00     0.020 C 
HETATM   34  C   UNL     1      28.816  44.425  55.026  1.00  0.00     0.002 C 
HETATM   35  C   UNL     1      29.219  43.666  53.763  1.00  0.00     0.002 C 
HETATM   36  C   UNL     1      28.371  43.904  52.515  1.00  0.00     0.020 C 
HETATM   37  O   UNL     1      25.441  47.368  52.613  1.00  0.00    -0.272 OA
ENDBRANCH  28  29
ENDBRANCH   8  28
TORSDOF 9
ENDMDL
MODEL 3
REMARK VINA RESULT:      -9.8      1.920      3.023
REMARK  9 active torsions:
REMARK  status: ('A' for Active; 'I' for Inactive)
REMARK    1  A    between atoms: O_2  and  C_3 
REMARK    2  A    between atoms: C_4  and  O_5 
REMARK    3  A    between atoms: C_8  and  C_9 
REMARK    4  A    between atoms: C_9  and  C_10 
REMARK    5  A    between atoms: C_10  and  N_11 
REMARK       I    between atoms: N_11  and  C_12 
REMARK    6  A    between atoms: C_12  and  C_13 
REMARK    7  A    between atoms: C_13  and  C_14 
REMARK    8  A    between atoms: N_21  and  C_22 
REMARK    9  A    between atoms: C_22  and  C_23 
REMARK       I    between atoms: C_23  and  N_24 
ROOT
HETATM    1  C   UNL     1      24.505  46.045  49.370  1.00  0.00     0.048 C 
HETATM    2  C   UNL     1      23.970  44.800  48.900  1.00  0.00     0.006 A 
HETATM    3  C   UNL     1      22.764  45.084  48.243  1.00  0.00     0.045 A 
HETATM    4  C   UNL     1      21.984  44.083  47.641  1.00  0.00     0.030 A 
HETATM    5  C   UNL     1      22.423  42.760  47.723  1.00  0.00     0.002 A 
HETATM    6  C   UNL     1      23.608  42.445  48.375  1.00  0.00     0.001 A 
HETATM    7  C   UNL     1      24.389  43.450  48.958  1.00  0.00     0.015 A 
HETATM    8  N   UNL     1      22.574  46.448  48.312  1.00  0.00    -0.346 N 
HETATM    9  C   UNL     1      23.564  47.014  49.065  1.00  0.00     0.108 C 
ENDROOT
BRANCH   1  10
HETATM   10  C   UNL     1      25.757  46.359  50.055  1.00  0.00     0.251 C 
HETATM   11  O   UNL     1      26.833  46.378  49.457  1.00  0.00    -0.281 OA
BRANCH  10  12
HETATM   12  C   UNL     1      25.799  46.655  51.557  1.00  0.00     0.292 C 
HETATM   13  N   UNL     1      26.376  45.721  52.394  1.00  0.00    -0.354 N 
HETATM   14  H   UNL     1      26.207  45.917  53.374  1.00  0.00     0.162 HD
HETATM   15  O   UNL     1      25.311  47.686  52.001  1.00  0.00    -0.264 OA
BRANCH  13  16
HETATM   16  C   UNL     1      26.769  44.380  51.997  1.00  0.00     0.127 C 
BRANCH  16  17
HETATM   17  C   UNL     1      26.834  43.427  53.191  1.00  0.00     0.058 C 
BRANCH  17  18
HETATM   18  C   UNL     1      28.064  43.665  54.029  1.00  0.00    -0.054 A 
HETATM   19  C   UNL     1      28.153  44.796  54.857  1.00  0.00     0.046 A 
HETATM   20  C   UNL     1      29.299  45.058  55.627  1.00  0.00     0.102 A 
HETATM   21  C   UNL     1      30.379  44.159  55.561  1.00  0.00     0.101 A 
HETATM   22  C   UNL     1      30.289  43.038  54.724  1.00  0.00     0.040 A 
HETATM   23  C   UNL     1      29.146  42.788  53.966  1.00  0.00     0.010 A 
BRANCH  20  24
HETATM   24  O   UNL     1      29.421  46.163  56.427  1.00  0.00    -0.353 OA
HETATM   25  C   UNL     1      29.069  46.049  57.799  1.00  0.00     0.210 C 
ENDBRANCH  20  24
BRANCH  21  26
HETATM   26  O   UNL     1      31.585  44.218  56.211  1.00  0.00    -0.353 OA
HETATM   27  C   UNL     1      31.818  43.338  57.299  1.00  0.00     0.210 C 
ENDBRANCH  21  26
ENDBRANCH  17  18
ENDBRANCH  16  17
ENDBRANCH  13  16
ENDBRANCH  10  12
ENDBRANCH   1  10
BRANCH   8  28
HETATM   28  C   UNL     1      21.465  47.186  47.725  1.00  0.00     0.231 C 
BRANCH  28  29
HETATM   29  C   UNL     1      20.387  47.514  48.746  1.00  0.00     0.238 C 
HETATM   30  N   UNL     1      20.291  48.803  49.279  1.00  0.00    -0.351 N 
HETATM   31  C   UNL     1      19.216  49.077  50.236  1.00  0.00     0.126 C 
HETATM   32  C   UNL     1      21.181  49.925  48.961  1.00  0.00     0.126 C 
HETATM   33  C   UNL     1      18.250  50.179  49.796  1.00  0.00     0.020 C 
HETATM   34  C   UNL     1      18.856  51.578  49.900  1.00  0.00     0.002 C 
HETATM   35  C   UNL     1      19.705  52.010  48.706  1.00  0.00     0.002 C 
HETATM   36  C   UNL     1      20.525  50.924  48.014  1.00  0.00     0.020 C 
HETATM   37  O   UNL     1      19.618  46.612  49.100  1.00  0.00    -0.272 OA
ENDBRANCH  28  29
ENDBRANCH   8  28
TORSDOF 9
ENDMDL
MODEL 4
REMARK VINA RESULT:      -9.8      1.463      2.498
REMARK  9 active torsions:
REMARK  status: ('A' for Active; 'I' for Inactive)
REMARK    1  A    between atoms: O_2  and  C_3 
REMARK    2  A    between atoms: C_4  and  O_5 
REMARK    3  A    between atoms: C_8  and  C_9 
REMARK    4  A    between atoms: C_9  and  C_10 
REMARK    5  A    between atoms: C_10  and  N_11 
REMARK       I    between atoms: N_11  and  C_12 
REMARK    6  A    between atoms: C_12  and  C_13 
REMARK    7  A    between atoms: C_13  and  C_14 
REMARK    8  A    between atoms: N_21  and  C_22 
REMARK    9  A    between atoms: C_22  and  C_23 
REMARK       I    between atoms: C_23  and  N_24 
ROOT
HETATM    1  C   UNL     1      23.807  45.607  49.518  1.00  0.00     0.048 C 
HETATM    2  C   UNL     1      24.538  46.834  49.387  1.00  0.00     0.006 A 
HETATM    3  C   UNL     1      23.686  47.766  48.778  1.00  0.00     0.045 A 
HETATM    4  C   UNL     1      24.085  49.088  48.517  1.00  0.00     0.030 A 
HETATM    5  C   UNL     1      25.382  49.471  48.861  1.00  0.00     0.002 A 
HETATM    6  C   UNL     1      26.253  48.569  49.458  1.00  0.00     0.001 A 
HETATM    7  C   UNL     1      25.844  47.258  49.730  1.00  0.00     0.015 A 
HETATM    8  N   UNL     1      22.485  47.130  48.547  1.00  0.00    -0.346 N 
HETATM    9  C   UNL     1      22.584  45.815  48.902  1.00  0.00     0.108 C 
ENDROOT
BRANCH   1  10
HETATM   10  C   UNL     1      24.167  44.332  50.133  1.00  0.00     0.251 C 
HETATM   11  O   UNL     1      23.871  44.072  51.300  1.00  0.00    -0.281 OA
BRANCH  10  12
HETATM   12  C   UNL     1      24.952  43.263  49.368  1.00  0.00     0.292 C 
HETATM   13  N   UNL     1      26.294  43.105  49.651  1.00  0.00    -0.354 N 
HETATM   14  H   UNL     1      26.766  42.504  48.985  1.00  0.00     0.162 HD
HETATM   15  O   UNL     1      24.403  42.584  48.509  1.00  0.00    -0.264 OA
BRANCH  13  16
HETATM   16  C   UNL     1      27.080  44.006  50.475  1.00  0.00     0.127 C 
BRANCH  16  17
HETATM   17  C   UNL     1      27.313  43.442  51.876  1.00  0.00     0.058 C 
BRANCH  17  18
HETATM   18  C   UNL     1      27.383  44.534  52.914  1.00  0.00    -0.054 A 
HETATM   19  C   UNL     1      28.190  44.382  54.052  1.00  0.00     0.046 A 
HETATM   20  C   UNL     1      28.251  45.371  55.050  1.00  0.00     0.102 A 
HETATM   21  C   UNL     1      27.482  46.538  54.893  1.00  0.00     0.101 A 
HETATM   22  C   UNL     1      26.668  46.678  53.760  1.00  0.00     0.040 A 
HETATM   23  C   UNL     1      26.618  45.692  52.777  1.00  0.00     0.010 A 
BRANCH  20  24
HETATM   24  O   UNL     1      29.013  45.241  56.180  1.00  0.00    -0.353 OA
HETATM   25  C   UNL     1      30.322  45.795  56.183  1.00  0.00     0.210 C 
ENDBRANCH  20  24
BRANCH  21  26
HETATM   26  O   UNL     1      27.381  47.618  55.733  1.00  0.00    -0.353 OA
HETATM   27  C   UNL     1      26.291  48.511  55.570  1.00  0.00     0.210 C 
ENDBRANCH  21  26
ENDBRANCH  17  18
ENDBRANCH  16  17
ENDBRANCH  13  16
ENDBRANCH  10  12
ENDBRANCH   1  10
BRANCH   8  28
HETATM   28  C   UNL     1      21.296  47.736  47.964  1.00  0.00     0.231 C 
BRANCH  28  29
HETATM   29  C   UNL     1      20.249  48.076  49.012  1.00  0.00     0.238 C 
HETATM   30  N   UNL     1      20.068  49.401  49.422  1.00  0.00    -0.351 N 
HETATM   31  C   UNL     1      19.026  49.681  50.412  1.00  0.00     0.126 C 
HETATM   32  C   UNL     1      20.836  50.554  48.941  1.00  0.00     0.126 C 
HETATM   33  C   UNL     1      17.943  50.649  49.927  1.00  0.00     0.020 C 
HETATM   34  C   UNL     1      18.427  52.096  49.856  1.00  0.00     0.002 C 
HETATM   35  C   UNL     1      19.169  52.471  48.575  1.00  0.00     0.002 C 
HETATM   36  C   UNL     1      20.044  51.392  47.942  1.00  0.00     0.020 C 
HETATM   37  O   UNL     1      19.584  47.154  49.501  1.00  0.00    -0.272 OA
ENDBRANCH  28  29
ENDBRANCH   8  28
TORSDOF 9
ENDMDL
MODEL 5
REMARK VINA RESULT:      -9.3      2.119     10.808
REMARK  9 active torsions:
REMARK  status: ('A' for Active; 'I' for Inactive)
REMARK    1  A    between atoms: O_2  and  C_3 
REMARK    2  A    between atoms: C_4  and  O_5 
REMARK    3  A    between atoms: C_8  and  C_9 
REMARK    4  A    between atoms: C_9  and  C_10 
REMARK    5  A    between atoms: C_10  and  N_11 
REMARK       I    between atoms: N_11  and  C_12 
REMARK    6  A    between atoms: C_12  and  C_13 
REMARK    7  A    between atoms: C_13  and  C_14 
REMARK    8  A    between atoms: N_21  and  C_22 
REMARK    9  A    between atoms: C_22  and  C_23 
REMARK       I    between atoms: C_23  and  N_24 
ROOT
HETATM    1  C   UNL     1      23.823  48.201  49.112  1.00  0.00     0.048 C 
HETATM    2  C   UNL     1      25.165  48.698  49.023  1.00  0.00     0.006 A 
HETATM    3  C   UNL     1      25.998  47.769  49.663  1.00  0.00     0.045 A 
HETATM    4  C   UNL     1      27.391  47.940  49.742  1.00  0.00     0.030 A 
HETATM    5  C   UNL     1      27.952  49.087  49.178  1.00  0.00     0.002 A 
HETATM    6  C   UNL     1      27.153  50.029  48.544  1.00  0.00     0.001 A 
HETATM    7  C   UNL     1      25.768  49.844  48.455  1.00  0.00     0.015 A 
HETATM    8  N   UNL     1      25.193  46.749  50.124  1.00  0.00    -0.346 N 
HETATM    9  C   UNL     1      23.883  47.050  49.879  1.00  0.00     0.108 C 
ENDROOT
BRANCH   1  10
HETATM   10  C   UNL     1      22.567  48.715  48.569  1.00  0.00     0.251 C 
HETATM   11  O   UNL     1      21.560  48.010  48.493  1.00  0.00    -0.281 OA
BRANCH  10  12
HETATM   12  C   UNL     1      22.445  50.147  48.042  1.00  0.00     0.292 C 
HETATM   13  N   UNL     1      21.814  51.087  48.831  1.00  0.00    -0.354 N 
HETATM   14  H   UNL     1      21.628  51.952  48.338  1.00  0.00     0.162 HD
HETATM   15  O   UNL     1      22.878  50.440  46.934  1.00  0.00    -0.264 OA
BRANCH  13  16
HETATM   16  C   UNL     1      21.071  50.788  50.044  1.00  0.00     0.127 C 
BRANCH  16  17
HETATM   17  C   UNL     1      19.737  51.532  50.093  1.00  0.00     0.058 C 
BRANCH  17  18
HETATM   18  C   UNL     1      18.885  51.232  48.885  1.00  0.00    -0.054 A 
HETATM   19  C   UNL     1      18.426  49.928  48.645  1.00  0.00     0.046 A 
HETATM   20  C   UNL     1      17.655  49.615  47.512  1.00  0.00     0.102 A 
HETATM   21  C   UNL     1      17.340  50.641  46.603  1.00  0.00     0.101 A 
HETATM   22  C   UNL     1      17.812  51.940  46.843  1.00  0.00     0.040 A 
HETATM   23  C   UNL     1      18.573  52.238  47.971  1.00  0.00     0.010 A 
BRANCH  20  24
HETATM   24  O   UNL     1      17.212  48.347  47.241  1.00  0.00    -0.353 OA
HETATM   25  C   UNL     1      16.327  47.727  48.165  1.00  0.00     0.210 C 
ENDBRANCH  20  24
BRANCH  21  26
HETATM   26  O   UNL     1      16.617  50.564  45.440  1.00  0.00    -0.353 OA
HETATM   27  C   UNL     1      15.272  51.016  45.441  1.00  0.00     0.210 C 
ENDBRANCH  21  26
ENDBRANCH  17  18
ENDBRANCH  16  17
ENDBRANCH  13  16
ENDBRANCH  10  12
ENDBRANCH   1  10
BRANCH   8  28
HETATM   28  C   UNL     1      25.644  45.552  50.818  1.00  0.00     0.231 C 
BRANCH  28  29
HETATM   29  C   UNL     1      26.015  45.831  52.267  1.00  0.00     0.238 C 
HETATM   30  N   UNL     1      26.736  44.886  53.002  1.00  0.00    -0.351 N 
HETATM   31  C   UNL     1      27.095  45.215  54.384  1.00  0.00     0.126 C 
HETATM   32  C   UNL     1      27.177  43.577  52.509  1.00  0.00     0.126 C 
HETATM   33  C   UNL     1      28.602  45.224  54.657  1.00  0.00     0.020 C 
HETATM   34  C   UNL     1      29.205  43.822  54.711  1.00  0.00     0.002 C 
HETATM   35  C   UNL     1      29.573  43.218  53.357  1.00  0.00     0.002 C 
HETATM   36  C   UNL     1      28.666  43.562  52.178  1.00  0.00     0.020 C 
HETATM   37  O   UNL     1      25.646  46.898  52.774  1.00  0.00    -0.272 OA
ENDBRANCH  28  29
ENDBRANCH   8  28
TORSDOF 9
ENDMDL
MODEL 6
REMARK VINA RESULT:      -9.2      2.123      2.878
REMARK  9 active torsions:
REMARK  status: ('A' for Active; 'I' for Inactive)
REMARK    1  A    between atoms: O_2  and  C_3 
REMARK    2  A    between atoms: C_4  and  O_5 
REMARK    3  A    between atoms: C_8  and  C_9 
REMARK    4  A    between atoms: C_9  and  C_10 
REMARK    5  A    between atoms: C_10  and  N_11 
REMARK       I    between atoms: N_11  and  C_12 
REMARK    6  A    between atoms: C_12  and  C_13 
REMARK    7  A    between atoms: C_13  and  C_14 
REMARK    8  A    between atoms: N_21  and  C_22 
REMARK    9  A    between atoms: C_22  and  C_23 
REMARK       I    between atoms: C_23  and  N_24 
ROOT
HETATM    1  C   UNL     1      22.856  44.693  49.301  1.00  0.00     0.048 C 
HETATM    2  C   UNL     1      23.789  45.772  49.457  1.00  0.00     0.006 A 
HETATM    3  C   UNL     1      23.178  46.929  48.952  1.00  0.00     0.045 A 
HETATM    4  C   UNL     1      23.816  48.181  48.969  1.00  0.00     0.030 A 
HETATM    5  C   UNL     1      25.108  48.262  49.490  1.00  0.00     0.002 A 
HETATM    6  C   UNL     1      25.743  47.132  49.990  1.00  0.00     0.001 A 
HETATM    7  C   UNL     1      25.096  45.890  49.985  1.00  0.00     0.015 A 
HETATM    8  N   UNL     1      21.925  46.567  48.506  1.00  0.00    -0.346 N 
HETATM    9  C   UNL     1      21.765  45.215  48.626  1.00  0.00     0.108 C 
ENDROOT
BRANCH   1  10
HETATM   10  C   UNL     1      22.927  43.291  49.706  1.00  0.00     0.251 C 
HETATM   11  O   UNL     1      22.808  42.953  50.885  1.00  0.00    -0.281 OA
BRANCH  10  12
HETATM   12  C   UNL     1      23.179  42.173  48.692  1.00  0.00     0.292 C 
HETATM   13  N   UNL     1      24.460  41.673  48.569  1.00  0.00    -0.354 N 
HETATM   14  H   UNL     1      24.568  41.066  47.765  1.00  0.00     0.162 HD
HETATM   15  O   UNL     1      22.267  41.751  47.992  1.00  0.00    -0.264 OA
BRANCH  13  16
HETATM   16  C   UNL     1      25.642  42.258  49.179  1.00  0.00     0.127 C 
BRANCH  16  17
HETATM   17  C   UNL     1      26.642  41.192  49.624  1.00  0.00     0.058 C 
BRANCH  17  18
HETATM   18  C   UNL     1      27.259  41.526  50.959  1.00  0.00    -0.054 A 
HETATM   19  C   UNL     1      26.763  42.593  51.724  1.00  0.00     0.046 A 
HETATM   20  C   UNL     1      27.337  42.945  52.958  1.00  0.00     0.102 A 
HETATM   21  C   UNL     1      28.435  42.203  53.430  1.00  0.00     0.101 A 
HETATM   22  C   UNL     1      28.933  41.146  52.655  1.00  0.00     0.040 A 
HETATM   23  C   UNL     1      28.354  40.805  51.434  1.00  0.00     0.010 A 
BRANCH  20  24
HETATM   24  O   UNL     1      26.887  43.994  53.715  1.00  0.00    -0.353 OA
HETATM   25  C   UNL     1      26.820  45.281  53.116  1.00  0.00     0.210 C 
ENDBRANCH  20  24
BRANCH  21  26
HETATM   26  O   UNL     1      29.149  42.371  54.588  1.00  0.00    -0.353 OA
HETATM   27  C   UNL     1      30.270  43.241  54.579  1.00  0.00     0.210 C 
ENDBRANCH  21  26
ENDBRANCH  17  18
ENDBRANCH  16  17
ENDBRANCH  13  16
ENDBRANCH  10  12
ENDBRANCH   1  10
BRANCH   8  28
HETATM   28  C   UNL     1      20.929  47.464  47.938  1.00  0.00     0.231 C 
BRANCH  28  29
HETATM   29  C   UNL     1      19.904  47.913  48.968  1.00  0.00     0.238 C 
HETATM   30  N   UNL     1      19.860  49.247  49.382  1.00  0.00    -0.351 N 
HETATM   31  C   UNL     1      18.835  49.636  50.354  1.00  0.00     0.126 C 
HETATM   32  C   UNL     1      20.761  50.312  48.925  1.00  0.00     0.126 C 
HETATM   33  C   UNL     1      17.875  50.719  49.853  1.00  0.00     0.020 C 
HETATM   34  C   UNL     1      18.516  52.104  49.802  1.00  0.00     0.002 C 
HETATM   35  C   UNL     1      19.322  52.402  48.539  1.00  0.00     0.002 C 
HETATM   36  C   UNL     1      20.086  51.236  47.917  1.00  0.00     0.020 C 
HETATM   37  O   UNL     1      19.131  47.067  49.436  1.00  0.00    -0.272 OA
ENDBRANCH  28  29
ENDBRANCH   8  28
TORSDOF 9
ENDMDL
MODEL 7
REMARK VINA RESULT:      -9.1      3.739      9.980
REMARK  9 active torsions:
REMARK  status: ('A' for Active; 'I' for Inactive)
REMARK    1  A    between atoms: O_2  and  C_3 
REMARK    2  A    between atoms: C_4  and  O_5 
REMARK    3  A    between atoms: C_8  and  C_9 
REMARK    4  A    between atoms: C_9  and  C_10 
REMARK    5  A    between atoms: C_10  and  N_11 
REMARK       I    between atoms: N_11  and  C_12 
REMARK    6  A    between atoms: C_12  and  C_13 
REMARK    7  A    between atoms: C_13  and  C_14 
REMARK    8  A    between atoms: N_21  and  C_22 
REMARK    9  A    between atoms: C_22  and  C_23 
REMARK       I    between atoms: C_23  and  N_24 
ROOT
HETATM    1  C   UNL     1      22.254  46.925  47.827  1.00  0.00     0.048 C 
HETATM    2  C   UNL     1      22.065  48.334  48.014  1.00  0.00     0.006 A 
HETATM    3  C   UNL     1      22.934  48.741  49.036  1.00  0.00     0.045 A 
HETATM    4  C   UNL     1      23.019  50.078  49.461  1.00  0.00     0.030 A 
HETATM    5  C   UNL     1      22.190  51.022  48.853  1.00  0.00     0.002 A 
HETATM    6  C   UNL     1      21.312  50.649  47.844  1.00  0.00     0.001 A 
HETATM    7  C   UNL     1      21.245  49.318  47.414  1.00  0.00     0.015 A 
HETATM    8  N   UNL     1      23.624  47.623  49.454  1.00  0.00    -0.346 N 
HETATM    9  C   UNL     1      23.153  46.520  48.799  1.00  0.00     0.108 C 
ENDROOT
BRANCH   1  10
HETATM   10  C   UNL     1      21.671  45.994  46.865  1.00  0.00     0.251 C 
HETATM   11  O   UNL     1      21.873  46.104  45.655  1.00  0.00    -0.281 OA
BRANCH  10  12
HETATM   12  C   UNL     1      20.756  44.848  47.306  1.00  0.00     0.292 C 
HETATM   13  N   UNL     1      19.418  45.117  47.511  1.00  0.00    -0.354 N 
HETATM   14  H   UNL     1      18.929  44.352  47.963  1.00  0.00     0.162 HD
HETATM   15  O   UNL     1      21.212  43.727  47.495  1.00  0.00    -0.264 OA
BRANCH  13  16
HETATM   16  C   UNL     1      18.833  46.446  47.539  1.00  0.00     0.127 C 
BRANCH  16  17
HETATM   17  C   UNL     1      18.440  46.868  48.955  1.00  0.00     0.058 C 
BRANCH  17  18
HETATM   18  C   UNL     1      18.228  48.357  49.056  1.00  0.00    -0.054 A 
HETATM   19  C   UNL     1      17.601  49.058  48.014  1.00  0.00     0.046 A 
HETATM   20  C   UNL     1      17.416  50.451  48.069  1.00  0.00     0.102 A 
HETATM   21  C   UNL     1      17.874  51.150  49.200  1.00  0.00     0.101 A 
HETATM   22  C   UNL     1      18.510  50.446  50.232  1.00  0.00     0.040 A 
HETATM   23  C   UNL     1      18.685  49.065  50.167  1.00  0.00     0.010 A 
BRANCH  20  24
HETATM   24  O   UNL     1      16.826  51.163  47.058  1.00  0.00    -0.353 OA
HETATM   25  C   UNL     1      17.647  51.647  46.004  1.00  0.00     0.210 C 
ENDBRANCH  20  24
BRANCH  21  26
HETATM   26  O   UNL     1      17.809  52.495  49.462  1.00  0.00    -0.353 OA
HETATM   27  C   UNL     1      16.603  53.032  49.981  1.00  0.00     0.210 C 
ENDBRANCH  21  26
ENDBRANCH  17  18
ENDBRANCH  16  17
ENDBRANCH  13  16
ENDBRANCH  10  12
ENDBRANCH   1  10
BRANCH   8  28
HETATM   28  C   UNL     1      24.661  47.591  50.475  1.00  0.00     0.231 C 
BRANCH  28  29
HETATM   29  C   UNL     1      25.835  46.711  50.077  1.00  0.00     0.238 C 
HETATM   30  N   UNL     1      25.955  45.419  50.597  1.00  0.00    -0.351 N 
HETATM   31  C   UNL     1      27.088  44.600  50.158  1.00  0.00     0.126 C 
HETATM   32  C   UNL     1      25.034  44.797  51.555  1.00  0.00     0.126 C 
HETATM   33  C   UNL     1      26.687  43.294  49.466  1.00  0.00     0.020 C 
HETATM   34  C   UNL     1      26.156  42.244  50.439  1.00  0.00     0.002 C 
HETATM   35  C   UNL     1      24.675  42.373  50.791  1.00  0.00     0.002 C 
HETATM   36  C   UNL     1      24.108  43.788  50.884  1.00  0.00     0.020 C 
HETATM   37  O   UNL     1      26.682  47.175  49.302  1.00  0.00    -0.272 OA
ENDBRANCH  28  29
ENDBRANCH   8  28
TORSDOF 9
ENDMDL
MODEL 8
REMARK VINA RESULT:      -9.1      2.157     10.486
REMARK  9 active torsions:
REMARK  status: ('A' for Active; 'I' for Inactive)
REMARK    1  A    between atoms: O_2  and  C_3 
REMARK    2  A    between atoms: C_4  and  O_5 
REMARK    3  A    between atoms: C_8  and  C_9 
REMARK    4  A    between atoms: C_9  and  C_10 
REMARK    5  A    between atoms: C_10  and  N_11 
REMARK       I    between atoms: N_11  and  C_12 
REMARK    6  A    between atoms: C_12  and  C_13 
REMARK    7  A    between atoms: C_13  and  C_14 
REMARK    8  A    between atoms: N_21  and  C_22 
REMARK    9  A    between atoms: C_22  and  C_23 
REMARK       I    between atoms: C_23  and  N_24 
ROOT
HETATM    1  C   UNL     1      25.712  45.724  51.384  1.00  0.00     0.048 C 
HETATM    2  C   UNL     1      25.626  44.487  50.663  1.00  0.00     0.006 A 
HETATM    3  C   UNL     1      25.911  43.455  51.569  1.00  0.00     0.045 A 
HETATM    4  C   UNL     1      25.895  42.101  51.193  1.00  0.00     0.030 A 
HETATM    5  C   UNL     1      25.604  41.784  49.865  1.00  0.00     0.002 A 
HETATM    6  C   UNL     1      25.325  42.783  48.942  1.00  0.00     0.001 A 
HETATM    7  C   UNL     1      25.327  44.129  49.328  1.00  0.00     0.015 A 
HETATM    8  N   UNL     1      26.161  44.042  52.791  1.00  0.00    -0.346 N 
HETATM    9  C   UNL     1      26.135  45.402  52.662  1.00  0.00     0.108 C 
ENDROOT
BRANCH   1  10
HETATM   10  C   UNL     1      25.451  47.100  50.969  1.00  0.00     0.251 C 
HETATM   11  O   UNL     1      24.795  47.873  51.669  1.00  0.00    -0.281 OA
BRANCH  10  12
HETATM   12  C   UNL     1      25.956  47.647  49.631  1.00  0.00     0.292 C 
HETATM   13  N   UNL     1      25.129  48.481  48.907  1.00  0.00    -0.354 N 
HETATM   14  H   UNL     1      25.470  48.653  47.968  1.00  0.00     0.162 HD
HETATM   15  O   UNL     1      27.060  47.328  49.207  1.00  0.00    -0.264 OA
BRANCH  13  16
HETATM   16  C   UNL     1      23.729  48.729  49.209  1.00  0.00     0.127 C 
BRANCH  16  17
HETATM   17  C   UNL     1      23.130  49.802  48.300  1.00  0.00     0.058 C 
BRANCH  17  18
HETATM   18  C   UNL     1      21.713  50.136  48.689  1.00  0.00    -0.054 A 
HETATM   19  C   UNL     1      20.887  49.162  49.272  1.00  0.00     0.046 A 
HETATM   20  C   UNL     1      19.553  49.437  49.619  1.00  0.00     0.102 A 
HETATM   21  C   UNL     1      19.041  50.724  49.370  1.00  0.00     0.101 A 
HETATM   22  C   UNL     1      19.867  51.689  48.776  1.00  0.00     0.040 A 
HETATM   23  C   UNL     1      21.189  51.405  48.440  1.00  0.00     0.010 A 
BRANCH  20  24
HETATM   24  O   UNL     1      18.719  48.500  50.169  1.00  0.00    -0.353 OA
HETATM   25  C   UNL     1      18.568  48.476  51.582  1.00  0.00     0.210 C 
ENDBRANCH  20  24
BRANCH  21  26
HETATM   26  O   UNL     1      17.782  51.207  49.615  1.00  0.00    -0.353 OA
HETATM   27  C   UNL     1      17.594  52.611  49.704  1.00  0.00     0.210 C 
ENDBRANCH  21  26
ENDBRANCH  17  18
ENDBRANCH  16  17
ENDBRANCH  13  16
ENDBRANCH  10  12
ENDBRANCH   1  10
BRANCH   8  28
HETATM   28  C   UNL     1      26.464  43.341  54.030  1.00  0.00     0.231 C 
BRANCH  28  29
HETATM   29  C   UNL     1      27.904  42.856  54.080  1.00  0.00     0.238 C 
HETATM   30  N   UNL     1      28.926  43.725  54.474  1.00  0.00    -0.351 N 
HETATM   31  C   UNL     1      30.293  43.201  54.535  1.00  0.00     0.126 C 
HETATM   32  C   UNL     1      28.752  45.135  54.838  1.00  0.00     0.126 C 
HETATM   33  C   UNL     1      30.937  43.289  55.922  1.00  0.00     0.020 C 
HETATM   34  C   UNL     1      31.341  44.712  56.300  1.00  0.00     0.002 C 
HETATM   35  C   UNL     1      30.226  45.570  56.895  1.00  0.00     0.002 C 
HETATM   36  C   UNL     1      28.818  45.347  56.347  1.00  0.00     0.020 C 
HETATM   37  O   UNL     1      28.144  41.688  53.749  1.00  0.00    -0.272 OA
ENDBRANCH  28  29
ENDBRANCH   8  28
TORSDOF 9
ENDMDL
MODEL 9
REMARK VINA RESULT:      -9.0      2.344      4.073
REMARK  9 active torsions:
REMARK  status: ('A' for Active; 'I' for Inactive)
REMARK    1  A    between atoms: O_2  and  C_3 
REMARK    2  A    between atoms: C_4  and  O_5 
REMARK    3  A    between atoms: C_8  and  C_9 
REMARK    4  A    between atoms: C_9  and  C_10 
REMARK    5  A    between atoms: C_10  and  N_11 
REMARK       I    between atoms: N_11  and  C_12 
REMARK    6  A    between atoms: C_12  and  C_13 
REMARK    7  A    between atoms: C_13  and  C_14 
REMARK    8  A    between atoms: N_21  and  C_22 
REMARK    9  A    between atoms: C_22  and  C_23 
REMARK       I    between atoms: C_23  and  N_24 
ROOT
HETATM    1  C   UNL     1      21.724  47.248  48.431  1.00  0.00     0.048 C 
HETATM    2  C   UNL     1      22.267  48.574  48.479  1.00  0.00     0.006 A 
HETATM    3  C   UNL     1      21.267  49.418  48.984  1.00  0.00     0.045 A 
HETATM    4  C   UNL     1      21.475  50.794  49.180  1.00  0.00     0.030 A 
HETATM    5  C   UNL     1      22.717  51.333  48.839  1.00  0.00     0.002 A 
HETATM    6  C   UNL     1      23.725  50.525  48.330  1.00  0.00     0.001 A 
HETATM    7  C   UNL     1      23.516  49.152  48.152  1.00  0.00     0.015 A 
HETATM    8  N   UNL     1      20.159  48.635  49.230  1.00  0.00    -0.346 N 
HETATM    9  C   UNL     1      20.397  47.356  48.814  1.00  0.00     0.108 C 
ENDROOT
BRANCH   1  10
HETATM   10  C   UNL     1      22.329  45.972  48.058  1.00  0.00     0.251 C 
HETATM   11  O   UNL     1      22.711  45.749  46.909  1.00  0.00    -0.281 OA
BRANCH  10  12
HETATM   12  C   UNL     1      22.495  44.835  49.071  1.00  0.00     0.292 C 
HETATM   13  N   UNL     1      23.586  44.862  49.916  1.00  0.00    -0.354 N 
HETATM   14  H   UNL     1      23.708  43.995  50.426  1.00  0.00     0.162 HD
HETATM   15  O   UNL     1      21.689  43.914  49.108  1.00  0.00    -0.264 OA
BRANCH  13  16
HETATM   16  C   UNL     1      24.708  45.776  49.794  1.00  0.00     0.127 C 
BRANCH  16  17
HETATM   17  C   UNL     1      24.739  46.797  50.932  1.00  0.00     0.058 C 
BRANCH  17  18
HETATM   18  C   UNL     1      25.674  46.374  52.036  1.00  0.00    -0.054 A 
HETATM   19  C   UNL     1      26.316  45.127  51.986  1.00  0.00     0.046 A 
HETATM   20  C   UNL     1      27.170  44.695  53.016  1.00  0.00     0.102 A 
HETATM   21  C   UNL     1      27.381  45.541  54.120  1.00  0.00     0.101 A 
HETATM   22  C   UNL     1      26.727  46.781  54.170  1.00  0.00     0.040 A 
HETATM   23  C   UNL     1      25.885  47.199  53.141  1.00  0.00     0.010 A 
BRANCH  20  24
HETATM   24  O   UNL     1      27.793  43.475  53.003  1.00  0.00    -0.353 OA
HETATM   25  C   UNL     1      29.110  43.392  52.475  1.00  0.00     0.210 C 
ENDBRANCH  20  24
BRANCH  21  26
HETATM   26  O   UNL     1      28.156  45.325  55.230  1.00  0.00    -0.353 OA
HETATM   27  C   UNL     1      28.315  46.378  56.168  1.00  0.00     0.210 C 
ENDBRANCH  21  26
ENDBRANCH  17  18
ENDBRANCH  16  17
ENDBRANCH  13  16
ENDBRANCH  10  12
ENDBRANCH   1  10
BRANCH   8  28
HETATM   28  C   UNL     1      18.899  49.093  49.797  1.00  0.00     0.231 C 
BRANCH  28  29
HETATM   29  C   UNL     1      17.712  48.759  48.907  1.00  0.00     0.238 C 
HETATM   30  N   UNL     1      17.412  49.563  47.804  1.00  0.00    -0.351 N 
HETATM   31  C   UNL     1      16.276  49.182  46.960  1.00  0.00     0.126 C 
HETATM   32  C   UNL     1      18.142  50.772  47.406  1.00  0.00     0.126 C 
HETATM   33  C   UNL     1      16.644  48.906  45.500  1.00  0.00     0.020 C 
HETATM   34  C   UNL     1      16.950  50.179  44.713  1.00  0.00     0.002 C 
HETATM   35  C   UNL     1      18.379  50.702  44.851  1.00  0.00     0.002 C 
HETATM   36  C   UNL     1      19.053  50.520  46.209  1.00  0.00     0.020 C 
HETATM   37  O   UNL     1      17.017  47.777  49.197  1.00  0.00    -0.272 OA
ENDBRANCH  28  29
ENDBRANCH   8  28
TORSDOF 9
ENDMDL
MODEL 10
REMARK VINA RESULT:      -9.0      1.840      3.017
REMARK  9 active torsions:
REMARK  status: ('A' for Active; 'I' for Inactive)
REMARK    1  A    between atoms: O_2  and  C_3 
REMARK    2  A    between atoms: C_4  and  O_5 
REMARK    3  A    between atoms: C_8  and  C_9 
REMARK    4  A    between atoms: C_9  and  C_10 
REMARK    5  A    between atoms: C_10  and  N_11 
REMARK       I    between atoms: N_11  and  C_12 
REMARK    6  A    between atoms: C_12  and  C_13 
REMARK    7  A    between atoms: C_13  and  C_14 
REMARK    8  A    between atoms: N_21  and  C_22 
REMARK    9  A    between atoms: C_22  and  C_23 
REMARK       I    between atoms: C_23  and  N_24 
ROOT
HETATM    1  C   UNL     1      23.711  47.194  49.138  1.00  0.00     0.048 C 
HETATM    2  C   UNL     1      23.557  48.590  48.848  1.00  0.00     0.006 A 
HETATM    3  C   UNL     1      22.187  48.832  48.671  1.00  0.00     0.045 A 
HETATM    4  C   UNL     1      21.681  50.112  48.389  1.00  0.00     0.030 A 
HETATM    5  C   UNL     1      22.584  51.170  48.265  1.00  0.00     0.002 A 
HETATM    6  C   UNL     1      23.947  50.962  48.427  1.00  0.00     0.001 A 
HETATM    7  C   UNL     1      24.443  49.686  48.723  1.00  0.00     0.015 A 
HETATM    8  N   UNL     1      21.535  47.629  48.845  1.00  0.00    -0.346 N 
HETATM    9  C   UNL     1      22.450  46.632  49.031  1.00  0.00     0.108 C 
ENDROOT
BRANCH   1  10
HETATM   10  C   UNL     1      24.894  46.405  49.473  1.00  0.00     0.251 C 
HETATM   11  O   UNL     1      24.888  45.174  49.413  1.00  0.00    -0.281 OA
BRANCH  10  12
HETATM   12  C   UNL     1      26.194  47.063  49.943  1.00  0.00     0.292 C 
HETATM   13  N   UNL     1      26.379  47.260  51.297  1.00  0.00    -0.354 N 
HETATM   14  H   UNL     1      27.178  47.850  51.501  1.00  0.00     0.162 HD
HETATM   15  O   UNL     1      27.035  47.426  49.130  1.00  0.00    -0.264 OA
BRANCH  13  16
HETATM   16  C   UNL     1      25.354  47.079  52.310  1.00  0.00     0.127 C 
BRANCH  16  17
HETATM   17  C   UNL     1      25.896  47.320  53.719  1.00  0.00     0.058 C 
BRANCH  17  18
HETATM   18  C   UNL     1      26.934  46.296  54.102  1.00  0.00    -0.054 A 
HETATM   19  C   UNL     1      27.998  46.645  54.949  1.00  0.00     0.046 A 
HETATM   20  C   UNL     1      28.995  45.718  55.299  1.00  0.00     0.102 A 
HETATM   21  C   UNL     1      28.917  44.412  54.783  1.00  0.00     0.101 A 
HETATM   22  C   UNL     1      27.858  44.073  53.928  1.00  0.00     0.040 A 
HETATM   23  C   UNL     1      26.874  45.000  53.590  1.00  0.00     0.010 A 
BRANCH  20  24
HETATM   24  O   UNL     1      30.056  46.036  56.106  1.00  0.00    -0.353 OA
HETATM   25  C   UNL     1      29.898  45.910  57.512  1.00  0.00     0.210 C 
ENDBRANCH  20  24
BRANCH  21  26
HETATM   26  O   UNL     1      29.773  43.359  54.981  1.00  0.00    -0.353 OA
HETATM   27  C   UNL     1      30.446  42.805  53.862  1.00  0.00     0.210 C 
ENDBRANCH  21  26
ENDBRANCH  17  18
ENDBRANCH  16  17
ENDBRANCH  13  16
ENDBRANCH  10  12
ENDBRANCH   1  10
BRANCH   8  28
HETATM   28  C   UNL     1      20.096  47.422  48.788  1.00  0.00     0.231 C 
BRANCH  28  29
HETATM   29  C   UNL     1      19.426  48.309  47.750  1.00  0.00     0.238 C 
HETATM   30  N   UNL     1      18.543  49.316  48.148  1.00  0.00    -0.351 N 
HETATM   31  C   UNL     1      17.948  50.162  47.111  1.00  0.00     0.126 C 
HETATM   32  C   UNL     1      18.152  49.609  49.531  1.00  0.00     0.126 C 
HETATM   33  C   UNL     1      18.265  51.653  47.259  1.00  0.00     0.020 C 
HETATM   34  C   UNL     1      17.498  52.314  48.402  1.00  0.00     0.002 C 
HETATM   35  C   UNL     1      18.131  52.163  49.784  1.00  0.00     0.002 C 
HETATM   36  C   UNL     1      18.855  50.850  50.072  1.00  0.00     0.020 C 
HETATM   37  O   UNL     1      19.670  48.101  46.554  1.00  0.00    -0.272 OA
ENDBRANCH  28  29
ENDBRANCH   8  28
TORSDOF 9
ENDMDL
