MODEL 1
REMARK VINA RESULT:      -8.9      0.000      0.000
REMARK  3 active torsions:
REMARK  status: ('A' for Active; 'I' for Inactive)
REMARK    1  A    between atoms: C_4  and  N_5 
REMARK       I    between atoms: N_5  and  C_6 
REMARK    2  A    between atoms: C_6  and  C_7 
REMARK    3  A    between atoms: C_7  and  C_8 
ROOT
HETATM    1  C   UNL     1      26.681  42.705  51.288  1.00  0.00     0.286 C 
HETATM    2  N   UNL     1      25.587  43.246  52.208  1.00  0.00    -0.056 N 
HETATM    3  H   UNL     1      24.790  42.602  52.129  1.00  0.00     0.278 HD
HETATM    4  H   UNL     1      25.906  43.117  53.191  1.00  0.00     0.278 HD
HETATM    5  C   UNL     1      25.088  44.640  51.966  1.00  0.00     0.209 C 
HETATM    6  C   UNL     1      24.782  44.822  50.461  1.00  0.00     0.115 C 
HETATM    7  N   UNL     1      25.872  44.362  49.607  1.00  0.00    -0.353 N 
HETATM    8  C   UNL     1      26.575  43.206  49.839  1.00  0.00     0.249 C 
HETATM    9  O   UNL     1      27.176  42.660  48.919  1.00  0.00    -0.271 OA
HETATM   10  C   UNL     1      26.064  45.674  52.525  1.00  0.00     0.035 C 
HETATM   11  C   UNL     1      25.603  47.094  52.205  1.00  0.00     0.002 C 
HETATM   12  C   UNL     1      25.404  47.282  50.704  1.00  0.00     0.002 C 
HETATM   13  C   UNL     1      24.404  46.273  50.140  1.00  0.00     0.027 C 
HETATM   14  H   UNL     1      25.826  44.586  48.613  1.00  0.00     0.163 HD
ENDROOT
BRANCH   1  15
HETATM   15  C   UNL     1      28.108  42.987  51.786  1.00  0.00     0.146 C 
BRANCH  15  16
HETATM   16  C   UNL     1      28.650  41.901  52.671  1.00  0.00     0.224 C 
HETATM   17  N   UNL     1      29.271  42.161  53.849  1.00  0.00    -0.327 N 
HETATM   18  H   UNL     1      29.631  41.309  54.274  1.00  0.00     0.169 HD
HETATM   19  O   UNL     1      28.497  40.720  52.327  1.00  0.00    -0.273 OA
BRANCH  17  20
HETATM   20  C   UNL     1      29.510  43.331  54.601  1.00  0.00     0.035 A 
HETATM   21  C   UNL     1      28.692  44.462  54.644  1.00  0.00     0.036 A 
HETATM   22  C   UNL     1      29.021  45.568  55.448  1.00  0.00    -0.060 A 
HETATM   23  C   UNL     1      28.127  46.773  55.509  1.00  0.00     0.048 C 
HETATM   24  C   UNL     1      30.181  45.532  56.225  1.00  0.00     0.007 A 
HETATM   25  C   UNL     1      31.003  44.411  56.198  1.00  0.00     0.003 A 
HETATM   26  C   UNL     1      30.666  43.320  55.395  1.00  0.00     0.029 A 
ENDBRANCH  17  20
ENDBRANCH  15  16
ENDBRANCH   1  15
TORSDOF 3
ENDMDL
MODEL 2
REMARK VINA RESULT:      -8.7      2.608      6.782
REMARK  3 active torsions:
REMARK  status: ('A' for Active; 'I' for Inactive)
REMARK    1  A    between atoms: C_4  and  N_5 
REMARK       I    between atoms: N_5  and  C_6 
REMARK    2  A    between atoms: C_6  and  C_7 
REMARK    3  A    between atoms: C_7  and  C_8 
ROOT
HETATM    1  C   UNL     1      26.195  45.277  53.774  1.00  0.00     0.286 C 
HETATM    2  N   UNL     1      26.124  43.758  53.932  1.00  0.00    -0.056 N 
HETATM    3  H   UNL     1      25.658  43.576  54.829  1.00  0.00     0.278 HD
HETATM    4  H   UNL     1      25.447  43.397  53.228  1.00  0.00     0.278 HD
HETATM    5  C   UNL     1      27.411  42.986  53.908  1.00  0.00     0.209 C 
HETATM    6  C   UNL     1      28.432  43.663  54.851  1.00  0.00     0.115 C 
HETATM    7  N   UNL     1      28.532  45.102  54.632  1.00  0.00    -0.353 N 
HETATM    8  C   UNL     1      27.443  45.908  54.414  1.00  0.00     0.249 C 
HETATM    9  O   UNL     1      27.517  47.112  54.635  1.00  0.00    -0.271 OA
HETATM   10  C   UNL     1      27.916  42.810  52.477  1.00  0.00     0.035 C 
HETATM   11  C   UNL     1      29.267  42.101  52.454  1.00  0.00     0.002 C 
HETATM   12  C   UNL     1      30.291  42.841  53.311  1.00  0.00     0.002 C 
HETATM   13  C   UNL     1      29.809  42.994  54.753  1.00  0.00     0.027 C 
HETATM   14  H   UNL     1      29.289  45.603  55.095  1.00  0.00     0.163 HD
ENDROOT
BRANCH   1  15
HETATM   15  C   UNL     1      26.114  45.755  52.315  1.00  0.00     0.146 C 
BRANCH  15  16
HETATM   16  C   UNL     1      24.799  45.438  51.662  1.00  0.00     0.224 C 
HETATM   17  N   UNL     1      24.255  46.223  50.698  1.00  0.00    -0.327 N 
HETATM   18  H   UNL     1      23.333  45.888  50.425  1.00  0.00     0.169 HD
HETATM   19  O   UNL     1      24.203  44.403  51.994  1.00  0.00    -0.273 OA
BRANCH  17  20
HETATM   20  C   UNL     1      24.686  47.371  50.000  1.00  0.00     0.035 A 
HETATM   21  C   UNL     1      26.007  47.805  49.869  1.00  0.00     0.036 A 
HETATM   22  C   UNL     1      26.324  48.959  49.130  1.00  0.00    -0.060 A 
HETATM   23  C   UNL     1      27.748  49.409  48.972  1.00  0.00     0.048 C 
HETATM   24  C   UNL     1      25.301  49.679  48.508  1.00  0.00     0.007 A 
HETATM   25  C   UNL     1      23.982  49.256  48.624  1.00  0.00     0.003 A 
HETATM   26  C   UNL     1      23.680  48.110  49.361  1.00  0.00     0.029 A 
ENDBRANCH  17  20
ENDBRANCH  15  16
ENDBRANCH   1  15
TORSDOF 3
ENDMDL
MODEL 3
REMARK VINA RESULT:      -8.1      2.675      3.948
REMARK  3 active torsions:
REMARK  status: ('A' for Active; 'I' for Inactive)
REMARK    1  A    between atoms: C_4  and  N_5 
REMARK       I    between atoms: N_5  and  C_6 
REMARK    2  A    between atoms: C_6  and  C_7 
REMARK    3  A    between atoms: C_7  and  C_8 
ROOT
HETATM    1  C   UNL     1      26.234  46.144  51.609  1.00  0.00     0.286 C 
HETATM    2  N   UNL     1      26.894  44.952  50.918  1.00  0.00    -0.056 N 
HETATM    3  H   UNL     1      27.610  45.335  50.287  1.00  0.00     0.278 HD
HETATM    4  H   UNL     1      27.451  44.438  51.633  1.00  0.00     0.278 HD
HETATM    5  C   UNL     1      26.021  44.024  50.125  1.00  0.00     0.209 C 
HETATM    6  C   UNL     1      25.103  44.853  49.196  1.00  0.00     0.115 C 
HETATM    7  N   UNL     1      24.431  45.943  49.897  1.00  0.00    -0.353 N 
HETATM    8  C   UNL     1      25.053  46.738  50.825  1.00  0.00     0.249 C 
HETATM    9  O   UNL     1      24.603  47.852  51.079  1.00  0.00    -0.271 OA
HETATM   10  C   UNL     1      25.264  43.068  51.045  1.00  0.00     0.035 C 
HETATM   11  C   UNL     1      24.309  42.181  50.249  1.00  0.00     0.002 C 
HETATM   12  C   UNL     1      23.344  43.021  49.416  1.00  0.00     0.002 C 
HETATM   13  C   UNL     1      24.092  43.959  48.469  1.00  0.00     0.027 C 
HETATM   14  H   UNL     1      23.690  46.440  49.405  1.00  0.00     0.163 HD
ENDROOT
BRANCH   1  15
HETATM   15  C   UNL     1      25.755  45.847  53.040  1.00  0.00     0.146 C 
BRANCH  15  16
HETATM   16  C   UNL     1      26.241  46.850  54.046  1.00  0.00     0.224 C 
HETATM   17  N   UNL     1      27.332  46.634  54.824  1.00  0.00    -0.327 N 
HETATM   18  H   UNL     1      27.467  47.391  55.491  1.00  0.00     0.169 HD
HETATM   19  O   UNL     1      25.642  47.930  54.149  1.00  0.00    -0.273 OA
BRANCH  17  20
HETATM   20  C   UNL     1      28.305  45.615  54.898  1.00  0.00     0.035 A 
HETATM   21  C   UNL     1      28.403  44.509  54.050  1.00  0.00     0.036 A 
HETATM   22  C   UNL     1      29.431  43.562  54.206  1.00  0.00    -0.060 A 
HETATM   23  C   UNL     1      29.546  42.387  53.278  1.00  0.00     0.048 C 
HETATM   24  C   UNL     1      30.377  43.734  55.219  1.00  0.00     0.007 A 
HETATM   25  C   UNL     1      30.296  44.833  56.067  1.00  0.00     0.003 A 
HETATM   26  C   UNL     1      29.271  45.766  55.903  1.00  0.00     0.029 A 
ENDBRANCH  17  20
ENDBRANCH  15  16
ENDBRANCH   1  15
TORSDOF 3
ENDMDL
MODEL 4
REMARK VINA RESULT:      -8.0      2.399      4.626
REMARK  3 active torsions:
REMARK  status: ('A' for Active; 'I' for Inactive)
REMARK    1  A    between atoms: C_4  and  N_5 
REMARK       I    between atoms: N_5  and  C_6 
REMARK    2  A    between atoms: C_6  and  C_7 
REMARK    3  A    between atoms: C_7  and  C_8 
ROOT
HETATM    1  C   UNL     1      26.971  41.712  51.929  1.00  0.00     0.286 C 
HETATM    2  N   UNL     1      26.017  40.842  51.111  1.00  0.00    -0.056 N 
HETATM    3  H   UNL     1      25.785  40.028  51.694  1.00  0.00     0.278 HD
HETATM    4  H   UNL     1      25.111  41.351  51.034  1.00  0.00     0.278 HD
HETATM    5  C   UNL     1      26.486  40.343  49.776  1.00  0.00     0.209 C 
HETATM    6  C   UNL     1      27.903  39.743  49.922  1.00  0.00     0.115 C 
HETATM    7  N   UNL     1      28.815  40.624  50.646  1.00  0.00    -0.353 N 
HETATM    8  C   UNL     1      28.451  41.327  51.767  1.00  0.00     0.249 C 
HETATM    9  O   UNL     1      29.310  41.714  52.553  1.00  0.00    -0.271 OA
HETATM   10  C   UNL     1      26.388  41.441  48.717  1.00  0.00     0.035 C 
HETATM   11  C   UNL     1      26.945  40.964  47.379  1.00  0.00     0.002 C 
HETATM   12  C   UNL     1      28.381  40.469  47.525  1.00  0.00     0.002 C 
HETATM   13  C   UNL     1      28.485  39.349  48.559  1.00  0.00     0.027 C 
HETATM   14  H   UNL     1      29.805  40.383  50.653  1.00  0.00     0.163 HD
ENDROOT
BRANCH   1  15
HETATM   15  C   UNL     1      26.837  43.217  51.648  1.00  0.00     0.146 C 
BRANCH  15  16
HETATM   16  C   UNL     1      25.712  43.862  52.407  1.00  0.00     0.224 C 
HETATM   17  N   UNL     1      25.917  44.610  53.520  1.00  0.00    -0.327 N 
HETATM   18  H   UNL     1      25.036  44.905  53.934  1.00  0.00     0.169 HD
HETATM   19  O   UNL     1      24.555  43.731  51.982  1.00  0.00    -0.273 OA
BRANCH  17  20
HETATM   20  C   UNL     1      27.063  45.067  54.204  1.00  0.00     0.035 A 
HETATM   21  C   UNL     1      28.160  44.289  54.581  1.00  0.00     0.036 A 
HETATM   22  C   UNL     1      29.262  44.858  55.246  1.00  0.00    -0.060 A 
HETATM   23  C   UNL     1      30.449  44.023  55.630  1.00  0.00     0.048 C 
HETATM   24  C   UNL     1      29.265  46.227  55.524  1.00  0.00     0.007 A 
HETATM   25  C   UNL     1      28.183  47.016  55.149  1.00  0.00     0.003 A 
HETATM   26  C   UNL     1      27.095  46.440  54.491  1.00  0.00     0.029 A 
ENDBRANCH  17  20
ENDBRANCH  15  16
ENDBRANCH   1  15
TORSDOF 3
ENDMDL
MODEL 5
REMARK VINA RESULT:      -8.0      1.716      2.205
REMARK  3 active torsions:
REMARK  status: ('A' for Active; 'I' for Inactive)
REMARK    1  A    between atoms: C_4  and  N_5 
REMARK       I    between atoms: N_5  and  C_6 
REMARK    2  A    between atoms: C_6  and  C_7 
REMARK    3  A    between atoms: C_7  and  C_8 
ROOT
HETATM    1  C   UNL     1      24.874  42.443  50.236  1.00  0.00     0.286 C 
HETATM    2  N   UNL     1      24.469  43.290  51.442  1.00  0.00    -0.056 N 
HETATM    3  H   UNL     1      23.491  43.054  51.654  1.00  0.00     0.278 HD
HETATM    4  H   UNL     1      24.989  42.932  52.271  1.00  0.00     0.278 HD
HETATM    5  C   UNL     1      24.576  44.782  51.324  1.00  0.00     0.209 C 
HETATM    6  C   UNL     1      23.927  45.239  49.997  1.00  0.00     0.115 C 
HETATM    7  N   UNL     1      24.384  44.459  48.850  1.00  0.00    -0.353 N 
HETATM    8  C   UNL     1      24.550  43.098  48.884  1.00  0.00     0.249 C 
HETATM    9  O   UNL     1      24.536  42.453  47.840  1.00  0.00    -0.271 OA
HETATM   10  C   UNL     1      26.023  45.241  51.492  1.00  0.00     0.035 C 
HETATM   11  C   UNL     1      26.149  46.748  51.286  1.00  0.00     0.002 C 
HETATM   12  C   UNL     1      25.594  47.166  49.927  1.00  0.00     0.002 C 
HETATM   13  C   UNL     1      24.136  46.739  49.761  1.00  0.00     0.027 C 
HETATM   14  H   UNL     1      24.132  44.789  47.919  1.00  0.00     0.163 HD
ENDROOT
BRANCH   1  15
HETATM   15  C   UNL     1      26.358  42.041  50.228  1.00  0.00     0.146 C 
BRANCH  15  16
HETATM   16  C   UNL     1      26.645  40.823  51.058  1.00  0.00     0.224 C 
HETATM   17  N   UNL     1      27.422  40.863  52.170  1.00  0.00    -0.327 N 
HETATM   18  H   UNL     1      27.559  39.933  52.559  1.00  0.00     0.169 HD
HETATM   19  O   UNL     1      26.127  39.745  50.733  1.00  0.00    -0.273 OA
BRANCH  17  20
HETATM   20  C   UNL     1      28.056  41.896  52.893  1.00  0.00     0.035 A 
HETATM   21  C   UNL     1      27.418  42.891  53.636  1.00  0.00     0.036 A 
HETATM   22  C   UNL     1      28.156  43.863  54.336  1.00  0.00    -0.060 A 
HETATM   23  C   UNL     1      27.466  44.918  55.152  1.00  0.00     0.048 C 
HETATM   24  C   UNL     1      29.552  43.826  54.296  1.00  0.00     0.007 A 
HETATM   25  C   UNL     1      30.202  42.838  53.565  1.00  0.00     0.003 A 
HETATM   26  C   UNL     1      29.459  41.880  52.874  1.00  0.00     0.029 A 
ENDBRANCH  17  20
ENDBRANCH  15  16
ENDBRANCH   1  15
TORSDOF 3
ENDMDL
MODEL 6
REMARK VINA RESULT:      -8.0     12.771     14.531
REMARK  3 active torsions:
REMARK  status: ('A' for Active; 'I' for Inactive)
REMARK    1  A    between atoms: C_4  and  N_5 
REMARK       I    between atoms: N_5  and  C_6 
REMARK    2  A    between atoms: C_6  and  C_7 
REMARK    3  A    between atoms: C_7  and  C_8 
ROOT
HETATM    1  C   UNL     1      31.793  48.289  40.390  1.00  0.00     0.286 C 
HETATM    2  N   UNL     1      31.794  49.744  39.920  1.00  0.00    -0.056 N 
HETATM    3  H   UNL     1      32.352  49.775  39.058  1.00  0.00     0.278 HD
HETATM    4  H   UNL     1      30.831  49.972  39.594  1.00  0.00     0.278 HD
HETATM    5  C   UNL     1      32.322  50.788  40.859  1.00  0.00     0.209 C 
HETATM    6  C   UNL     1      33.678  50.320  41.436  1.00  0.00     0.115 C 
HETATM    7  N   UNL     1      33.631  48.952  41.942  1.00  0.00    -0.353 N 
HETATM    8  C   UNL     1      32.985  47.931  41.293  1.00  0.00     0.249 C 
HETATM    9  O   UNL     1      33.298  46.766  41.517  1.00  0.00    -0.271 OA
HETATM   10  C   UNL     1      31.286  51.137  41.926  1.00  0.00     0.035 C 
HETATM   11  C   UNL     1      31.850  52.135  42.934  1.00  0.00     0.002 C 
HETATM   12  C   UNL     1      33.136  51.609  43.567  1.00  0.00     0.002 C 
HETATM   13  C   UNL     1      34.191  51.288  42.509  1.00  0.00     0.027 C 
HETATM   14  H   UNL     1      34.429  48.616  42.480  1.00  0.00     0.163 HD
ENDROOT
BRANCH   1  15
HETATM   15  C   UNL     1      30.504  47.870  41.114  1.00  0.00     0.146 C 
BRANCH  15  16
HETATM   16  C   UNL     1      29.383  47.529  40.174  1.00  0.00     0.224 C 
HETATM   17  N   UNL     1      28.500  48.457  39.724  1.00  0.00    -0.327 N 
HETATM   18  H   UNL     1      27.773  48.029  39.154  1.00  0.00     0.169 HD
HETATM   19  O   UNL     1      29.278  46.362  39.770  1.00  0.00    -0.273 OA
BRANCH  17  20
HETATM   20  C   UNL     1      28.382  49.856  39.863  1.00  0.00     0.035 A 
HETATM   21  C   UNL     1      28.688  50.807  38.887  1.00  0.00     0.036 A 
HETATM   22  C   UNL     1      28.513  52.181  39.131  1.00  0.00    -0.060 A 
HETATM   23  C   UNL     1      28.821  53.200  38.071  1.00  0.00     0.048 C 
HETATM   24  C   UNL     1      28.015  52.602  40.367  1.00  0.00     0.007 A 
HETATM   25  C   UNL     1      27.701  51.667  41.346  1.00  0.00     0.003 A 
HETATM   26  C   UNL     1      27.880  50.306  41.093  1.00  0.00     0.029 A 
ENDBRANCH  17  20
ENDBRANCH  15  16
ENDBRANCH   1  15
TORSDOF 3
ENDMDL
MODEL 7
REMARK VINA RESULT:      -7.9      6.430      9.408
REMARK  3 active torsions:
REMARK  status: ('A' for Active; 'I' for Inactive)
REMARK    1  A    between atoms: C_4  and  N_5 
REMARK       I    between atoms: N_5  and  C_6 
REMARK    2  A    between atoms: C_6  and  C_7 
REMARK    3  A    between atoms: C_7  and  C_8 
ROOT
HETATM    1  C   UNL     1      18.963  47.712  49.572  1.00  0.00     0.286 C 
HETATM    2  N   UNL     1      19.698  48.742  50.429  1.00  0.00    -0.056 N 
HETATM    3  H   UNL     1      19.400  48.585  51.400  1.00  0.00     0.278 HD
HETATM    4  H   UNL     1      20.707  48.484  50.441  1.00  0.00     0.278 HD
HETATM    5  C   UNL     1      19.503  50.195  50.109  1.00  0.00     0.209 C 
HETATM    6  C   UNL     1      17.993  50.485  49.945  1.00  0.00     0.115 C 
HETATM    7  N   UNL     1      17.329  49.528  49.066  1.00  0.00    -0.353 N 
HETATM    8  C   UNL     1      17.579  48.180  49.095  1.00  0.00     0.249 C 
HETATM    9  O   UNL     1      16.746  47.393  48.655  1.00  0.00    -0.271 OA
HETATM   10  C   UNL     1      20.344  50.606  48.901  1.00  0.00     0.035 C 
HETATM   11  C   UNL     1      20.082  52.060  48.519  1.00  0.00     0.002 C 
HETATM   12  C   UNL     1      18.597  52.303  48.263  1.00  0.00     0.002 C 
HETATM   13  C   UNL     1      17.750  51.925  49.477  1.00  0.00     0.027 C 
HETATM   14  H   UNL     1      16.373  49.733  48.775  1.00  0.00     0.163 HD
ENDROOT
BRANCH   1  15
HETATM   15  C   UNL     1      19.758  47.246  48.342  1.00  0.00     0.146 C 
BRANCH  15  16
HETATM   16  C   UNL     1      20.512  45.968  48.576  1.00  0.00     0.224 C 
HETATM   17  N   UNL     1      21.858  45.935  48.747  1.00  0.00    -0.327 N 
HETATM   18  H   UNL     1      22.198  44.979  48.823  1.00  0.00     0.169 HD
HETATM   19  O   UNL     1      19.877  44.906  48.646  1.00  0.00    -0.273 OA
BRANCH  17  20
HETATM   20  C   UNL     1      22.863  46.919  48.853  1.00  0.00     0.035 A 
HETATM   21  C   UNL     1      22.841  48.183  48.258  1.00  0.00     0.036 A 
HETATM   22  C   UNL     1      23.896  49.095  48.449  1.00  0.00    -0.060 A 
HETATM   23  C   UNL     1      23.858  50.461  47.827  1.00  0.00     0.048 C 
HETATM   24  C   UNL     1      24.978  48.735  49.255  1.00  0.00     0.007 A 
HETATM   25  C   UNL     1      25.012  47.483  49.858  1.00  0.00     0.003 A 
HETATM   26  C   UNL     1      23.960  46.586  49.660  1.00  0.00     0.029 A 
ENDBRANCH  17  20
ENDBRANCH  15  16
ENDBRANCH   1  15
TORSDOF 3
ENDMDL
MODEL 8
REMARK VINA RESULT:      -7.8      1.855      2.996
REMARK  3 active torsions:
REMARK  status: ('A' for Active; 'I' for Inactive)
REMARK    1  A    between atoms: C_4  and  N_5 
REMARK       I    between atoms: N_5  and  C_6 
REMARK    2  A    between atoms: C_6  and  C_7 
REMARK    3  A    between atoms: C_7  and  C_8 
ROOT
HETATM    1  C   UNL     1      26.880  44.624  51.401  1.00  0.00     0.286 C 
HETATM    2  N   UNL     1      26.758  43.960  50.030  1.00  0.00    -0.056 N 
HETATM    3  H   UNL     1      27.340  44.508  49.383  1.00  0.00     0.278 HD
HETATM    4  H   UNL     1      27.247  43.042  50.076  1.00  0.00     0.278 HD
HETATM    5  C   UNL     1      25.389  43.828  49.430  1.00  0.00     0.209 C 
HETATM    6  C   UNL     1      24.651  45.183  49.534  1.00  0.00     0.115 C 
HETATM    7  N   UNL     1      24.724  45.761  50.872  1.00  0.00    -0.353 N 
HETATM    8  C   UNL     1      25.864  45.752  51.635  1.00  0.00     0.249 C 
HETATM    9  O   UNL     1      26.002  46.570  52.539  1.00  0.00    -0.271 OA
HETATM   10  C   UNL     1      24.628  42.662  50.058  1.00  0.00     0.035 C 
HETATM   11  C   UNL     1      23.205  42.578  49.513  1.00  0.00     0.002 C 
HETATM   12  C   UNL     1      22.459  43.894  49.717  1.00  0.00     0.002 C 
HETATM   13  C   UNL     1      23.196  45.063  49.064  1.00  0.00     0.027 C 
HETATM   14  H   UNL     1      24.136  46.569  51.075  1.00  0.00     0.163 HD
ENDROOT
BRANCH   1  15
HETATM   15  C   UNL     1      26.780  43.640  52.579  1.00  0.00     0.146 C 
BRANCH  15  16
HETATM   16  C   UNL     1      27.784  42.525  52.504  1.00  0.00     0.224 C 
HETATM   17  N   UNL     1      28.897  42.492  53.279  1.00  0.00    -0.327 N 
HETATM   18  H   UNL     1      29.490  41.700  53.041  1.00  0.00     0.169 HD
HETATM   19  O   UNL     1      27.571  41.583  51.727  1.00  0.00    -0.273 OA
BRANCH  17  20
HETATM   20  C   UNL     1      29.393  43.294  54.329  1.00  0.00     0.035 A 
HETATM   21  C   UNL     1      30.415  42.948  55.215  1.00  0.00     0.036 A 
HETATM   22  C   UNL     1      30.843  43.840  56.216  1.00  0.00    -0.060 A 
HETATM   23  C   UNL     1      31.958  43.473  57.153  1.00  0.00     0.048 C 
HETATM   24  C   UNL     1      30.242  45.097  56.320  1.00  0.00     0.007 A 
HETATM   25  C   UNL     1      29.227  45.457  55.441  1.00  0.00     0.003 A 
HETATM   26  C   UNL     1      28.811  44.564  54.453  1.00  0.00     0.029 A 
ENDBRANCH  17  20
ENDBRANCH  15  16
ENDBRANCH   1  15
TORSDOF 3
ENDMDL
MODEL 9
REMARK VINA RESULT:      -7.8      2.356      3.462
REMARK  3 active torsions:
REMARK  status: ('A' for Active; 'I' for Inactive)
REMARK    1  A    between atoms: C_4  and  N_5 
REMARK       I    between atoms: N_5  and  C_6 
REMARK    2  A    between atoms: C_6  and  C_7 
REMARK    3  A    between atoms: C_7  and  C_8 
ROOT
HETATM    1  C   UNL     1      26.577  44.287  53.742  1.00  0.00     0.286 C 
HETATM    2  N   UNL     1      25.147  44.770  53.504  1.00  0.00    -0.056 N 
HETATM    3  H   UNL     1      24.532  44.154  54.051  1.00  0.00     0.278 HD
HETATM    4  H   UNL     1      25.042  45.695  53.972  1.00  0.00     0.278 HD
HETATM    5  C   UNL     1      24.639  44.804  52.092  1.00  0.00     0.209 C 
HETATM    6  C   UNL     1      24.967  43.461  51.398  1.00  0.00     0.115 C 
HETATM    7  N   UNL     1      26.358  43.058  51.582  1.00  0.00    -0.353 N 
HETATM    8  C   UNL     1      27.026  43.181  52.774  1.00  0.00     0.249 C 
HETATM    9  O   UNL     1      28.012  42.486  52.998  1.00  0.00    -0.271 OA
HETATM   10  C   UNL     1      25.173  46.027  51.349  1.00  0.00     0.035 C 
HETATM   11  C   UNL     1      24.730  46.019  49.889  1.00  0.00     0.002 C 
HETATM   12  C   UNL     1      25.152  44.728  49.193  1.00  0.00     0.002 C 
HETATM   13  C   UNL     1      24.596  43.498  49.911  1.00  0.00     0.027 C 
HETATM   14  H   UNL     1      26.703  42.272  51.031  1.00  0.00     0.163 HD
ENDROOT
BRANCH   1  15
HETATM   15  C   UNL     1      27.627  45.409  53.703  1.00  0.00     0.146 C 
BRANCH  15  16
HETATM   16  C   UNL     1      27.339  46.523  54.669  1.00  0.00     0.224 C 
HETATM   17  N   UNL     1      27.955  46.622  55.874  1.00  0.00    -0.327 N 
HETATM   18  H   UNL     1      27.583  47.398  56.417  1.00  0.00     0.169 HD
HETATM   19  O   UNL     1      26.529  47.402  54.340  1.00  0.00    -0.273 OA
BRANCH  17  20
HETATM   20  C   UNL     1      28.986  45.904  56.516  1.00  0.00     0.035 A 
HETATM   21  C   UNL     1      29.827  44.963  55.919  1.00  0.00     0.036 A 
HETATM   22  C   UNL     1      30.839  44.320  56.656  1.00  0.00    -0.060 A 
HETATM   23  C   UNL     1      31.756  43.325  56.005  1.00  0.00     0.048 C 
HETATM   24  C   UNL     1      31.013  44.637  58.006  1.00  0.00     0.007 A 
HETATM   25  C   UNL     1      30.187  45.576  58.612  1.00  0.00     0.003 A 
HETATM   26  C   UNL     1      29.186  46.206  57.871  1.00  0.00     0.029 A 
ENDBRANCH  17  20
ENDBRANCH  15  16
ENDBRANCH   1  15
TORSDOF 3
ENDMDL
MODEL 10
REMARK VINA RESULT:      -7.7     13.314     15.335
REMARK  3 active torsions:
REMARK  status: ('A' for Active; 'I' for Inactive)
REMARK    1  A    between atoms: C_4  and  N_5 
REMARK       I    between atoms: N_5  and  C_6 
REMARK    2  A    between atoms: C_6  and  C_7 
REMARK    3  A    between atoms: C_7  and  C_8 
ROOT
HETATM    1  C   UNL     1      29.868  52.507  40.643  1.00  0.00     0.286 C 
HETATM    2  N   UNL     1      29.651  51.248  41.482  1.00  0.00    -0.056 N 
HETATM    3  H   UNL     1      29.042  51.517  42.265  1.00  0.00     0.278 HD
HETATM    4  H   UNL     1      29.058  50.595  40.927  1.00  0.00     0.278 HD
HETATM    5  C   UNL     1      30.858  50.557  42.043  1.00  0.00     0.209 C 
HETATM    6  C   UNL     1      31.780  51.600  42.715  1.00  0.00     0.115 C 
HETATM    7  N   UNL     1      32.029  52.761  41.865  1.00  0.00    -0.353 N 
HETATM    8  C   UNL     1      31.054  53.365  41.112  1.00  0.00     0.249 C 
HETATM    9  O   UNL     1      31.193  54.529  40.750  1.00  0.00    -0.271 OA
HETATM   10  C   UNL     1      31.555  49.718  40.972  1.00  0.00     0.035 C 
HETATM   11  C   UNL     1      32.831  49.083  41.516  1.00  0.00     0.002 C 
HETATM   12  C   UNL     1      33.774  50.142  42.084  1.00  0.00     0.002 C 
HETATM   13  C   UNL     1      33.096  50.965  43.179  1.00  0.00     0.027 C 
HETATM   14  H   UNL     1      32.747  53.422  42.159  1.00  0.00     0.163 HD
ENDROOT
BRANCH   1  15
HETATM   15  C   UNL     1      30.045  52.231  39.141  1.00  0.00     0.146 C 
BRANCH  15  16
HETATM   16  C   UNL     1      28.754  52.286  38.375  1.00  0.00     0.224 C 
HETATM   17  N   UNL     1      27.893  51.238  38.319  1.00  0.00    -0.327 N 
HETATM   18  H   UNL     1      27.110  51.435  37.699  1.00  0.00     0.169 HD
HETATM   19  O   UNL     1      28.448  53.339  37.797  1.00  0.00    -0.273 OA
BRANCH  17  20
HETATM   20  C   UNL     1      27.845  49.967  38.930  1.00  0.00     0.035 A 
HETATM   21  C   UNL     1      28.758  48.928  38.738  1.00  0.00     0.036 A 
HETATM   22  C   UNL     1      28.621  47.704  39.419  1.00  0.00    -0.060 A 
HETATM   23  C   UNL     1      29.617  46.597  39.227  1.00  0.00     0.048 C 
HETATM   24  C   UNL     1      27.559  47.528  40.309  1.00  0.00     0.007 A 
HETATM   25  C   UNL     1      26.646  48.555  40.515  1.00  0.00     0.003 A 
HETATM   26  C   UNL     1      26.792  49.765  39.833  1.00  0.00     0.029 A 
ENDBRANCH  17  20
ENDBRANCH  15  16
ENDBRANCH   1  15
TORSDOF 3
ENDMDL
