MODEL 1
REMARK VINA RESULT:      -9.2      0.000      0.000
REMARK  8 active torsions:
REMARK  status: ('A' for Active; 'I' for Inactive)
REMARK    1  A    between atoms: C_2  and  O_3 
REMARK    2  A    between atoms: O_3  and  C_4 
REMARK    3  A    between atoms: C_5  and  O_6 
REMARK    4  A    between atoms: C_9  and  C_10 
REMARK    5  A    between atoms: C_10  and  N_11 
REMARK       I    between atoms: N_11  and  C_12 
REMARK    6  A    between atoms: C_12  and  C_13 
REMARK    7  A    between atoms: C_14  and  N_15 
REMARK       I    between atoms: N_15  and  C_16 
REMARK    8  A    between atoms: C_16  and  C_17 
ROOT
HETATM    1  C   UNL     1      25.722  47.915  49.900  1.00  0.00     0.058 A 
HETATM    2  C   UNL     1      24.841  48.799  49.229  1.00  0.00     0.050 A 
HETATM    3  C   UNL     1      25.386  49.834  48.461  1.00  0.00     0.030 A 
HETATM    4  C   UNL     1      26.770  49.987  48.337  1.00  0.00     0.002 A 
HETATM    5  C   UNL     1      27.632  49.102  48.974  1.00  0.00     0.001 A 
HETATM    6  C   UNL     1      27.113  48.066  49.748  1.00  0.00     0.019 A 
ENDROOT
BRANCH   1   7
HETATM    7  C   UNL     1      25.185  46.787  50.726  1.00  0.00     0.254 C 
HETATM    8  N   UNL     1      25.761  46.578  51.961  1.00  0.00    -0.353 N 
HETATM    9  H   UNL     1      26.419  47.242  52.341  1.00  0.00     0.163 HD
HETATM   10  O   UNL     1      24.249  46.111  50.308  1.00  0.00    -0.268 OA
BRANCH   8  11
HETATM   11  C   UNL     1      25.365  45.475  52.808  1.00  0.00     0.161 C 
BRANCH  11  12
HETATM   12  C   UNL     1      26.565  44.769  53.383  1.00  0.00    -0.038 A 
HETATM   13  C   UNL     1      26.750  43.389  53.198  1.00  0.00     0.048 A 
HETATM   14  C   UNL     1      27.854  42.714  53.749  1.00  0.00     0.102 A 
HETATM   15  C   UNL     1      28.791  43.446  54.501  1.00  0.00     0.102 A 
HETATM   16  C   UNL     1      28.611  44.827  54.667  1.00  0.00     0.040 A 
HETATM   17  C   UNL     1      27.510  45.484  54.121  1.00  0.00     0.012 A 
BRANCH  14  18
HETATM   18  O   UNL     1      28.076  41.376  53.564  1.00  0.00    -0.353 OA
HETATM   19  C   UNL     1      28.755  40.961  52.387  1.00  0.00     0.210 C 
ENDBRANCH  14  18
BRANCH  15  20
HETATM   20  O   UNL     1      29.929  42.997  55.117  1.00  0.00    -0.349 OA
BRANCH  20  21
HETATM   21  C   UNL     1      30.802  43.947  55.722  1.00  0.00     0.171 C 
HETATM   22  C   UNL     1      31.443  43.283  56.930  1.00  0.00     0.034 C 
ENDBRANCH  20  21
ENDBRANCH  15  20
ENDBRANCH  11  12
ENDBRANCH   8  11
ENDBRANCH   1   7
BRANCH   2  23
HETATM   23  N   UNL     1      23.442  48.624  49.364  1.00  0.00    -0.321 N 
HETATM   24  C   UNL     1      22.444  48.915  48.459  1.00  0.00     0.265 C 
HETATM   25  O   UNL     1      22.578  49.342  47.317  1.00  0.00    -0.267 OA
HETATM   26  H   UNL     1      23.143  48.169  50.231  1.00  0.00     0.169 HD
BRANCH  24  27
HETATM   27  C   UNL     1      21.075  48.615  49.000  1.00  0.00     0.097 C 
HETATM   28  S   UNL     1      20.328  49.920  49.878  1.00  0.00    -0.120 SA
HETATM   29  C   UNL     1      18.871  49.058  50.518  1.00  0.00     0.106 C 
HETATM   30  C   UNL     1      18.326  48.143  49.438  1.00  0.00     0.185 C 
HETATM   31  O   UNL     1      19.217  47.058  49.169  1.00  0.00    -0.353 OA
HETATM   32  C   UNL     1      20.500  47.413  48.777  1.00  0.00     0.064 C 
HETATM   33  C   UNL     1      21.201  46.264  48.100  1.00  0.00     0.078 C 
ENDBRANCH  24  27
ENDBRANCH   2  23
TORSDOF 8
ENDMDL
MODEL 2
REMARK VINA RESULT:      -8.6      1.713      3.162
REMARK  8 active torsions:
REMARK  status: ('A' for Active; 'I' for Inactive)
REMARK    1  A    between atoms: C_2  and  O_3 
REMARK    2  A    between atoms: O_3  and  C_4 
REMARK    3  A    between atoms: C_5  and  O_6 
REMARK    4  A    between atoms: C_9  and  C_10 
REMARK    5  A    between atoms: C_10  and  N_11 
REMARK       I    between atoms: N_11  and  C_12 
REMARK    6  A    between atoms: C_12  and  C_13 
REMARK    7  A    between atoms: C_14  and  N_15 
REMARK       I    between atoms: N_15  and  C_16 
REMARK    8  A    between atoms: C_16  and  C_17 
ROOT
HETATM    1  C   UNL     1      25.528  47.665  49.752  1.00  0.00     0.058 A 
HETATM    2  C   UNL     1      24.729  48.712  49.231  1.00  0.00     0.050 A 
HETATM    3  C   UNL     1      25.364  49.802  48.624  1.00  0.00     0.030 A 
HETATM    4  C   UNL     1      26.757  49.854  48.514  1.00  0.00     0.002 A 
HETATM    5  C   UNL     1      27.537  48.812  49.002  1.00  0.00     0.001 A 
HETATM    6  C   UNL     1      26.928  47.719  49.614  1.00  0.00     0.019 A 
ENDROOT
BRANCH   1   7
HETATM    7  C   UNL     1      24.894  46.474  50.402  1.00  0.00     0.254 C 
HETATM    8  N   UNL     1      25.419  46.055  51.606  1.00  0.00    -0.353 N 
HETATM    9  H   UNL     1      26.111  46.612  52.087  1.00  0.00     0.163 HD
HETATM   10  O   UNL     1      23.927  45.930  49.877  1.00  0.00    -0.268 OA
BRANCH   8  11
HETATM   11  C   UNL     1      24.927  44.876  52.282  1.00  0.00     0.161 C 
BRANCH  11  12
HETATM   12  C   UNL     1      25.779  43.673  51.975  1.00  0.00    -0.038 A 
HETATM   13  C   UNL     1      26.960  43.421  52.693  1.00  0.00     0.048 A 
HETATM   14  C   UNL     1      27.777  42.314  52.400  1.00  0.00     0.102 A 
HETATM   15  C   UNL     1      27.393  41.443  51.364  1.00  0.00     0.102 A 
HETATM   16  C   UNL     1      26.204  41.690  50.663  1.00  0.00     0.040 A 
HETATM   17  C   UNL     1      25.407  42.793  50.957  1.00  0.00     0.012 A 
BRANCH  14  18
HETATM   18  O   UNL     1      28.918  42.026  53.100  1.00  0.00    -0.353 OA
HETATM   19  C   UNL     1      30.030  42.901  52.969  1.00  0.00     0.210 C 
ENDBRANCH  14  18
BRANCH  15  20
HETATM   20  O   UNL     1      28.029  40.313  50.919  1.00  0.00    -0.349 OA
BRANCH  20  21
HETATM   21  C   UNL     1      28.346  40.206  49.535  1.00  0.00     0.171 C 
HETATM   22  C   UNL     1      29.039  38.870  49.321  1.00  0.00     0.034 C 
ENDBRANCH  20  21
ENDBRANCH  15  20
ENDBRANCH  11  12
ENDBRANCH   8  11
ENDBRANCH   1   7
BRANCH   2  23
HETATM   23  N   UNL     1      23.319  48.637  49.349  1.00  0.00    -0.321 N 
HETATM   24  C   UNL     1      22.357  48.958  48.416  1.00  0.00     0.265 C 
HETATM   25  O   UNL     1      22.535  49.329  47.261  1.00  0.00    -0.267 OA
HETATM   26  H   UNL     1      22.978  48.240  50.228  1.00  0.00     0.169 HD
BRANCH  24  27
HETATM   27  C   UNL     1      20.963  48.775  48.946  1.00  0.00     0.097 C 
HETATM   28  S   UNL     1      20.231  47.239  48.577  1.00  0.00    -0.120 SA
HETATM   29  C   UNL     1      18.552  47.553  49.175  1.00  0.00     0.106 C 
HETATM   30  C   UNL     1      18.630  48.334  50.473  1.00  0.00     0.185 C 
HETATM   31  O   UNL     1      19.122  49.660  50.261  1.00  0.00    -0.353 OA
HETATM   32  C   UNL     1      20.372  49.753  49.668  1.00  0.00     0.064 C 
HETATM   33  C   UNL     1      20.983  51.111  49.893  1.00  0.00     0.078 C 
ENDBRANCH  24  27
ENDBRANCH   2  23
TORSDOF 8
ENDMDL
MODEL 3
REMARK VINA RESULT:      -8.5      1.243      1.575
REMARK  8 active torsions:
REMARK  status: ('A' for Active; 'I' for Inactive)
REMARK    1  A    between atoms: C_2  and  O_3 
REMARK    2  A    between atoms: O_3  and  C_4 
REMARK    3  A    between atoms: C_5  and  O_6 
REMARK    4  A    between atoms: C_9  and  C_10 
REMARK    5  A    between atoms: C_10  and  N_11 
REMARK       I    between atoms: N_11  and  C_12 
REMARK    6  A    between atoms: C_12  and  C_13 
REMARK    7  A    between atoms: C_14  and  N_15 
REMARK       I    between atoms: N_15  and  C_16 
REMARK    8  A    between atoms: C_16  and  C_17 
ROOT
HETATM    1  C   UNL     1      25.628  48.113  49.917  1.00  0.00     0.058 A 
HETATM    2  C   UNL     1      24.728  48.930  49.187  1.00  0.00     0.050 A 
HETATM    3  C   UNL     1      25.252  49.891  48.315  1.00  0.00     0.030 A 
HETATM    4  C   UNL     1      26.632  50.037  48.148  1.00  0.00     0.002 A 
HETATM    5  C   UNL     1      27.512  49.217  48.845  1.00  0.00     0.001 A 
HETATM    6  C   UNL     1      27.015  48.255  49.722  1.00  0.00     0.019 A 
ENDROOT
BRANCH   1   7
HETATM    7  C   UNL     1      25.115  47.064  50.854  1.00  0.00     0.254 C 
HETATM    8  N   UNL     1      24.977  45.786  50.358  1.00  0.00    -0.353 N 
HETATM    9  H   UNL     1      25.334  45.546  49.445  1.00  0.00     0.163 HD
HETATM   10  O   UNL     1      24.864  47.353  52.021  1.00  0.00    -0.268 OA
BRANCH   8  11
HETATM   11  C   UNL     1      24.425  44.715  51.158  1.00  0.00     0.161 C 
BRANCH  11  12
HETATM   12  C   UNL     1      25.508  43.958  51.882  1.00  0.00    -0.038 A 
HETATM   13  C   UNL     1      26.253  42.962  51.231  1.00  0.00     0.048 A 
HETATM   14  C   UNL     1      27.251  42.232  51.902  1.00  0.00     0.102 A 
HETATM   15  C   UNL     1      27.503  42.516  53.257  1.00  0.00     0.102 A 
HETATM   16  C   UNL     1      26.768  43.524  53.897  1.00  0.00     0.040 A 
HETATM   17  C   UNL     1      25.778  44.236  53.223  1.00  0.00     0.012 A 
BRANCH  14  18
HETATM   18  O   UNL     1      28.012  41.275  51.288  1.00  0.00    -0.353 OA
HETATM   19  C   UNL     1      27.658  40.871  49.972  1.00  0.00     0.210 C 
ENDBRANCH  14  18
BRANCH  15  20
HETATM   20  O   UNL     1      28.422  41.938  54.093  1.00  0.00    -0.349 OA
BRANCH  20  21
HETATM   21  C   UNL     1      29.554  42.700  54.500  1.00  0.00     0.171 C 
HETATM   22  C   UNL     1      30.431  42.916  53.277  1.00  0.00     0.034 C 
ENDBRANCH  20  21
ENDBRANCH  15  20
ENDBRANCH  11  12
ENDBRANCH   8  11
ENDBRANCH   1   7
BRANCH   2  23
HETATM   23  N   UNL     1      23.333  48.762  49.367  1.00  0.00    -0.321 N 
HETATM   24  C   UNL     1      22.312  48.998  48.471  1.00  0.00     0.265 C 
HETATM   25  O   UNL     1      22.417  49.355  47.303  1.00  0.00    -0.267 OA
HETATM   26  H   UNL     1      23.057  48.361  50.267  1.00  0.00     0.169 HD
BRANCH  24  27
HETATM   27  C   UNL     1      20.958  48.731  49.064  1.00  0.00     0.097 C 
HETATM   28  S   UNL     1      20.255  50.070  49.926  1.00  0.00    -0.120 SA
HETATM   29  C   UNL     1      18.809  49.245  50.637  1.00  0.00     0.106 C 
HETATM   30  C   UNL     1      18.219  48.307  49.602  1.00  0.00     0.185 C 
HETATM   31  O   UNL     1      19.089  47.203  49.336  1.00  0.00    -0.353 OA
HETATM   32  C   UNL     1      20.363  47.530  48.894  1.00  0.00     0.064 C 
HETATM   33  C   UNL     1      21.028  46.353  48.229  1.00  0.00     0.078 C 
ENDBRANCH  24  27
ENDBRANCH   2  23
TORSDOF 8
ENDMDL
MODEL 4
REMARK VINA RESULT:      -8.4      2.794      9.507
REMARK  8 active torsions:
REMARK  status: ('A' for Active; 'I' for Inactive)
REMARK    1  A    between atoms: C_2  and  O_3 
REMARK    2  A    between atoms: O_3  and  C_4 
REMARK    3  A    between atoms: C_5  and  O_6 
REMARK    4  A    between atoms: C_9  and  C_10 
REMARK    5  A    between atoms: C_10  and  N_11 
REMARK       I    between atoms: N_11  and  C_12 
REMARK    6  A    between atoms: C_12  and  C_13 
REMARK    7  A    between atoms: C_14  and  N_15 
REMARK       I    between atoms: N_15  and  C_16 
REMARK    8  A    between atoms: C_16  and  C_17 
ROOT
HETATM    1  C   UNL     1      24.894  44.688  49.552  1.00  0.00     0.058 A 
HETATM    2  C   UNL     1      25.339  43.904  50.645  1.00  0.00     0.050 A 
HETATM    3  C   UNL     1      25.065  42.531  50.640  1.00  0.00     0.030 A 
HETATM    4  C   UNL     1      24.386  41.936  49.573  1.00  0.00     0.002 A 
HETATM    5  C   UNL     1      23.974  42.703  48.490  1.00  0.00     0.001 A 
HETATM    6  C   UNL     1      24.231  44.072  48.474  1.00  0.00     0.019 A 
ENDROOT
BRANCH   1   7
HETATM    7  C   UNL     1      25.171  46.159  49.508  1.00  0.00     0.254 C 
HETATM    8  N   UNL     1      24.089  47.009  49.588  1.00  0.00    -0.353 N 
HETATM    9  H   UNL     1      23.169  46.653  49.802  1.00  0.00     0.163 HD
HETATM   10  O   UNL     1      26.328  46.564  49.434  1.00  0.00    -0.268 OA
BRANCH   8  11
HETATM   11  C   UNL     1      24.238  48.443  49.484  1.00  0.00     0.161 C 
BRANCH  11  12
HETATM   12  C   UNL     1      22.945  49.101  49.081  1.00  0.00    -0.038 A 
HETATM   13  C   UNL     1      21.757  48.359  48.981  1.00  0.00     0.048 A 
HETATM   14  C   UNL     1      20.547  48.957  48.582  1.00  0.00     0.102 A 
HETATM   15  C   UNL     1      20.536  50.331  48.281  1.00  0.00     0.102 A 
HETATM   16  C   UNL     1      21.722  51.070  48.400  1.00  0.00     0.040 A 
HETATM   17  C   UNL     1      22.915  50.466  48.790  1.00  0.00     0.012 A 
BRANCH  14  18
HETATM   18  O   UNL     1      19.368  48.266  48.502  1.00  0.00    -0.353 OA
HETATM   19  C   UNL     1      18.534  48.217  49.652  1.00  0.00     0.210 C 
ENDBRANCH  14  18
BRANCH  15  20
HETATM   20  O   UNL     1      19.481  51.109  47.884  1.00  0.00    -0.349 OA
BRANCH  20  21
HETATM   21  C   UNL     1      19.263  52.355  48.539  1.00  0.00     0.171 C 
HETATM   22  C   UNL     1      18.380  52.094  49.748  1.00  0.00     0.034 C 
ENDBRANCH  20  21
ENDBRANCH  15  20
ENDBRANCH  11  12
ENDBRANCH   8  11
ENDBRANCH   1   7
BRANCH   2  23
HETATM   23  N   UNL     1      26.030  44.526  51.713  1.00  0.00    -0.321 N 
HETATM   24  C   UNL     1      25.658  44.634  53.036  1.00  0.00     0.265 C 
HETATM   25  O   UNL     1      24.661  44.159  53.569  1.00  0.00    -0.267 OA
HETATM   26  H   UNL     1      26.954  44.895  51.476  1.00  0.00     0.169 HD
BRANCH  24  27
HETATM   27  C   UNL     1      26.656  45.408  53.850  1.00  0.00     0.097 C 
HETATM   28  S   UNL     1      26.334  47.113  53.983  1.00  0.00    -0.120 SA
HETATM   29  C   UNL     1      27.856  47.644  54.805  1.00  0.00     0.106 C 
HETATM   30  C   UNL     1      28.234  46.616  55.855  1.00  0.00     0.185 C 
HETATM   31  O   UNL     1      28.634  45.379  55.260  1.00  0.00    -0.353 OA
HETATM   32  C   UNL     1      27.698  44.775  54.432  1.00  0.00     0.064 C 
HETATM   33  C   UNL     1      28.014  43.317  54.225  1.00  0.00     0.078 C 
ENDBRANCH  24  27
ENDBRANCH   2  23
TORSDOF 8
ENDMDL
MODEL 5
REMARK VINA RESULT:      -8.2      2.988      9.307
REMARK  8 active torsions:
REMARK  status: ('A' for Active; 'I' for Inactive)
REMARK    1  A    between atoms: C_2  and  O_3 
REMARK    2  A    between atoms: O_3  and  C_4 
REMARK    3  A    between atoms: C_5  and  O_6 
REMARK    4  A    between atoms: C_9  and  C_10 
REMARK    5  A    between atoms: C_10  and  N_11 
REMARK       I    between atoms: N_11  and  C_12 
REMARK    6  A    between atoms: C_12  and  C_13 
REMARK    7  A    between atoms: C_14  and  N_15 
REMARK       I    between atoms: N_15  and  C_16 
REMARK    8  A    between atoms: C_16  and  C_17 
ROOT
HETATM    1  C   UNL     1      25.960  46.048  53.029  1.00  0.00     0.058 A 
HETATM    2  C   UNL     1      27.010  45.191  53.443  1.00  0.00     0.050 A 
HETATM    3  C   UNL     1      27.850  45.613  54.480  1.00  0.00     0.030 A 
HETATM    4  C   UNL     1      27.653  46.845  55.111  1.00  0.00     0.002 A 
HETATM    5  C   UNL     1      26.605  47.672  54.721  1.00  0.00     0.001 A 
HETATM    6  C   UNL     1      25.758  47.275  53.689  1.00  0.00     0.019 A 
ENDROOT
BRANCH   1   7
HETATM    7  C   UNL     1      25.029  45.635  51.931  1.00  0.00     0.254 C 
HETATM    8  N   UNL     1      25.149  46.287  50.722  1.00  0.00    -0.353 N 
HETATM    9  H   UNL     1      25.919  46.916  50.550  1.00  0.00     0.163 HD
HETATM   10  O   UNL     1      24.221  44.729  52.118  1.00  0.00    -0.268 OA
BRANCH   8  11
HETATM   11  C   UNL     1      24.255  46.015  49.619  1.00  0.00     0.161 C 
BRANCH  11  12
HETATM   12  C   UNL     1      23.453  47.235  49.250  1.00  0.00    -0.038 A 
HETATM   13  C   UNL     1      22.200  47.116  48.627  1.00  0.00     0.048 A 
HETATM   14  C   UNL     1      21.452  48.248  48.256  1.00  0.00     0.102 A 
HETATM   15  C   UNL     1      21.978  49.525  48.522  1.00  0.00     0.102 A 
HETATM   16  C   UNL     1      23.221  49.638  49.161  1.00  0.00     0.040 A 
HETATM   17  C   UNL     1      23.956  48.510  49.517  1.00  0.00     0.012 A 
BRANCH  14  18
HETATM   18  O   UNL     1      20.216  48.165  47.673  1.00  0.00    -0.353 OA
HETATM   19  C   UNL     1      19.222  47.371  48.306  1.00  0.00     0.210 C 
ENDBRANCH  14  18
BRANCH  15  20
HETATM   20  O   UNL     1      21.423  50.750  48.255  1.00  0.00    -0.349 OA
BRANCH  20  21
HETATM   21  C   UNL     1      20.545  51.330  49.214  1.00  0.00     0.171 C 
HETATM   22  C   UNL     1      19.476  52.100  48.457  1.00  0.00     0.034 C 
ENDBRANCH  20  21
ENDBRANCH  15  20
ENDBRANCH  11  12
ENDBRANCH   8  11
ENDBRANCH   1   7
BRANCH   2  23
HETATM   23  N   UNL     1      27.190  43.945  52.794  1.00  0.00    -0.321 N 
HETATM   24  C   UNL     1      27.568  43.698  51.492  1.00  0.00     0.265 C 
HETATM   25  O   UNL     1      27.881  44.521  50.639  1.00  0.00    -0.267 OA
HETATM   26  H   UNL     1      27.074  43.123  53.392  1.00  0.00     0.169 HD
BRANCH  24  27
HETATM   27  C   UNL     1      27.608  42.229  51.177  1.00  0.00     0.097 C 
HETATM   28  S   UNL     1      26.398  41.685  50.050  1.00  0.00    -0.120 SA
HETATM   29  C   UNL     1      26.665  39.898  50.160  1.00  0.00     0.106 C 
HETATM   30  C   UNL     1      28.155  39.626  50.231  1.00  0.00     0.185 C 
HETATM   31  O   UNL     1      28.716  40.086  51.463  1.00  0.00    -0.353 OA
HETATM   32  C   UNL     1      28.546  41.435  51.738  1.00  0.00     0.064 C 
HETATM   33  C   UNL     1      29.521  41.905  52.786  1.00  0.00     0.078 C 
ENDBRANCH  24  27
ENDBRANCH   2  23
TORSDOF 8
ENDMDL
MODEL 6
REMARK VINA RESULT:      -8.0      3.545      8.522
REMARK  8 active torsions:
REMARK  status: ('A' for Active; 'I' for Inactive)
REMARK    1  A    between atoms: C_2  and  O_3 
REMARK    2  A    between atoms: O_3  and  C_4 
REMARK    3  A    between atoms: C_5  and  O_6 
REMARK    4  A    between atoms: C_9  and  C_10 
REMARK    5  A    between atoms: C_10  and  N_11 
REMARK       I    between atoms: N_11  and  C_12 
REMARK    6  A    between atoms: C_12  and  C_13 
REMARK    7  A    between atoms: C_14  and  N_15 
REMARK       I    between atoms: N_15  and  C_16 
REMARK    8  A    between atoms: C_16  and  C_17 
ROOT
HETATM    1  C   UNL     1      28.752  45.018  55.496  1.00  0.00     0.058 A 
HETATM    2  C   UNL     1      29.375  43.876  54.933  1.00  0.00     0.050 A 
HETATM    3  C   UNL     1      30.597  43.450  55.464  1.00  0.00     0.030 A 
HETATM    4  C   UNL     1      31.189  44.119  56.539  1.00  0.00     0.002 A 
HETATM    5  C   UNL     1      30.562  45.223  57.107  1.00  0.00     0.001 A 
HETATM    6  C   UNL     1      29.346  45.669  56.593  1.00  0.00     0.019 A 
ENDROOT
BRANCH   1   7
HETATM    7  C   UNL     1      27.439  45.507  54.968  1.00  0.00     0.254 C 
HETATM    8  N   UNL     1      27.406  46.775  54.428  1.00  0.00    -0.353 N 
HETATM    9  H   UNL     1      28.260  47.292  54.276  1.00  0.00     0.163 HD
HETATM   10  O   UNL     1      26.453  44.775  54.999  1.00  0.00    -0.268 OA
BRANCH   8  11
HETATM   11  C   UNL     1      26.176  47.369  53.955  1.00  0.00     0.161 C 
BRANCH  11  12
HETATM   12  C   UNL     1      25.855  46.920  52.553  1.00  0.00    -0.038 A 
HETATM   13  C   UNL     1      26.528  47.464  51.447  1.00  0.00     0.048 A 
HETATM   14  C   UNL     1      26.221  47.070  50.133  1.00  0.00     0.102 A 
HETATM   15  C   UNL     1      25.217  46.106  49.930  1.00  0.00     0.102 A 
HETATM   16  C   UNL     1      24.561  45.553  51.039  1.00  0.00     0.040 A 
HETATM   17  C   UNL     1      24.869  45.956  52.336  1.00  0.00     0.012 A 
BRANCH  14  18
HETATM   18  O   UNL     1      26.878  47.562  49.037  1.00  0.00    -0.353 OA
HETATM   19  C   UNL     1      27.039  48.969  48.920  1.00  0.00     0.210 C 
ENDBRANCH  14  18
BRANCH  15  20
HETATM   20  O   UNL     1      24.765  45.579  48.749  1.00  0.00    -0.349 OA
BRANCH  20  21
HETATM   21  C   UNL     1      23.479  44.969  48.717  1.00  0.00     0.171 C 
HETATM   22  C   UNL     1      23.542  43.803  47.744  1.00  0.00     0.034 C 
ENDBRANCH  20  21
ENDBRANCH  15  20
ENDBRANCH  11  12
ENDBRANCH   8  11
ENDBRANCH   1   7
BRANCH   2  23
HETATM   23  N   UNL     1      28.756  43.210  53.847  1.00  0.00    -0.321 N 
HETATM   24  C   UNL     1      29.256  42.967  52.586  1.00  0.00     0.265 C 
HETATM   25  O   UNL     1      30.375  43.238  52.164  1.00  0.00    -0.267 OA
HETATM   26  H   UNL     1      27.836  42.810  54.050  1.00  0.00     0.169 HD
BRANCH  24  27
HETATM   27  C   UNL     1      28.266  42.258  51.704  1.00  0.00     0.097 C 
HETATM   28  S   UNL     1      27.220  43.302  50.785  1.00  0.00    -0.120 SA
HETATM   29  C   UNL     1      26.092  42.066  50.095  1.00  0.00     0.106 C 
HETATM   30  C   UNL     1      26.891  40.844  49.685  1.00  0.00     0.185 C 
HETATM   31  O   UNL     1      27.424  40.158  50.821  1.00  0.00    -0.353 OA
HETATM   32  C   UNL     1      28.245  40.908  51.650  1.00  0.00     0.064 C 
HETATM   33  C   UNL     1      29.091  40.022  52.526  1.00  0.00     0.078 C 
ENDBRANCH  24  27
ENDBRANCH   2  23
TORSDOF 8
ENDMDL
MODEL 7
REMARK VINA RESULT:      -8.0      3.834      9.439
REMARK  8 active torsions:
REMARK  status: ('A' for Active; 'I' for Inactive)
REMARK    1  A    between atoms: C_2  and  O_3 
REMARK    2  A    between atoms: O_3  and  C_4 
REMARK    3  A    between atoms: C_5  and  O_6 
REMARK    4  A    between atoms: C_9  and  C_10 
REMARK    5  A    between atoms: C_10  and  N_11 
REMARK       I    between atoms: N_11  and  C_12 
REMARK    6  A    between atoms: C_12  and  C_13 
REMARK    7  A    between atoms: C_14  and  N_15 
REMARK       I    between atoms: N_15  and  C_16 
REMARK    8  A    between atoms: C_16  and  C_17 
ROOT
HETATM    1  C   UNL     1      27.665  44.000  52.220  1.00  0.00     0.058 A 
HETATM    2  C   UNL     1      28.431  42.845  52.513  1.00  0.00     0.050 A 
HETATM    3  C   UNL     1      29.003  42.723  53.785  1.00  0.00     0.030 A 
HETATM    4  C   UNL     1      28.811  43.709  54.757  1.00  0.00     0.002 A 
HETATM    5  C   UNL     1      28.037  44.829  54.476  1.00  0.00     0.001 A 
HETATM    6  C   UNL     1      27.461  44.974  53.216  1.00  0.00     0.019 A 
ENDROOT
BRANCH   1   7
HETATM    7  C   UNL     1      27.026  44.170  50.877  1.00  0.00     0.254 C 
HETATM    8  N   UNL     1      25.666  43.962  50.792  1.00  0.00    -0.353 N 
HETATM    9  H   UNL     1      25.112  43.834  51.625  1.00  0.00     0.163 HD
HETATM   10  O   UNL     1      27.706  44.512  49.912  1.00  0.00    -0.268 OA
BRANCH   8  11
HETATM   11  C   UNL     1      24.963  44.032  49.530  1.00  0.00     0.161 C 
BRANCH  11  12
HETATM   12  C   UNL     1      24.209  45.329  49.395  1.00  0.00    -0.038 A 
HETATM   13  C   UNL     1      23.061  45.416  48.590  1.00  0.00     0.048 A 
HETATM   14  C   UNL     1      22.361  46.627  48.437  1.00  0.00     0.102 A 
HETATM   15  C   UNL     1      22.827  47.770  49.110  1.00  0.00     0.102 A 
HETATM   16  C   UNL     1      23.964  47.672  49.926  1.00  0.00     0.040 A 
HETATM   17  C   UNL     1      24.653  46.470  50.065  1.00  0.00     0.012 A 
BRANCH  14  18
HETATM   18  O   UNL     1      21.224  46.738  47.683  1.00  0.00    -0.353 OA
HETATM   19  C   UNL     1      21.265  46.305  46.330  1.00  0.00     0.210 C 
ENDBRANCH  14  18
BRANCH  15  20
HETATM   20  O   UNL     1      22.303  49.036  49.108  1.00  0.00    -0.349 OA
BRANCH  20  21
HETATM   21  C   UNL     1      23.193  50.147  49.135  1.00  0.00     0.171 C 
HETATM   22  C   UNL     1      23.553  50.489  47.699  1.00  0.00     0.034 C 
ENDBRANCH  20  21
ENDBRANCH  15  20
ENDBRANCH  11  12
ENDBRANCH   8  11
ENDBRANCH   1   7
BRANCH   2  23
HETATM   23  N   UNL     1      28.609  41.856  51.514  1.00  0.00    -0.321 N 
HETATM   24  C   UNL     1      27.708  40.919  51.057  1.00  0.00     0.265 C 
HETATM   25  O   UNL     1      26.537  40.787  51.395  1.00  0.00    -0.267 OA
HETATM   26  H   UNL     1      29.512  41.882  51.033  1.00  0.00     0.169 HD
BRANCH  24  27
HETATM   27  C   UNL     1      28.299  40.019  50.008  1.00  0.00     0.097 C 
HETATM   28  S   UNL     1      29.286  38.723  50.621  1.00  0.00    -0.120 SA
HETATM   29  C   UNL     1      29.948  38.086  49.062  1.00  0.00     0.106 C 
HETATM   30  C   UNL     1      28.847  38.093  48.019  1.00  0.00     0.185 C 
HETATM   31  O   UNL     1      28.472  39.425  47.659  1.00  0.00    -0.353 OA
HETATM   32  C   UNL     1      28.038  40.233  48.700  1.00  0.00     0.064 C 
HETATM   33  C   UNL     1      27.263  41.417  48.184  1.00  0.00     0.078 C 
ENDBRANCH  24  27
ENDBRANCH   2  23
TORSDOF 8
ENDMDL
MODEL 8
REMARK VINA RESULT:      -7.9      7.784     12.367
REMARK  8 active torsions:
REMARK  status: ('A' for Active; 'I' for Inactive)
REMARK    1  A    between atoms: C_2  and  O_3 
REMARK    2  A    between atoms: O_3  and  C_4 
REMARK    3  A    between atoms: C_5  and  O_6 
REMARK    4  A    between atoms: C_9  and  C_10 
REMARK    5  A    between atoms: C_10  and  N_11 
REMARK       I    between atoms: N_11  and  C_12 
REMARK    6  A    between atoms: C_12  and  C_13 
REMARK    7  A    between atoms: C_14  and  N_15 
REMARK       I    between atoms: N_15  and  C_16 
REMARK    8  A    between atoms: C_16  and  C_17 
ROOT
HETATM    1  C   UNL     1      14.981  55.395  51.450  1.00  0.00     0.058 A 
HETATM    2  C   UNL     1      14.889  56.475  50.537  1.00  0.00     0.050 A 
HETATM    3  C   UNL     1      14.967  57.781  51.034  1.00  0.00     0.030 A 
HETATM    4  C   UNL     1      15.151  58.023  52.398  1.00  0.00     0.002 A 
HETATM    5  C   UNL     1      15.267  56.961  53.288  1.00  0.00     0.001 A 
HETATM    6  C   UNL     1      15.189  55.652  52.818  1.00  0.00     0.019 A 
ENDROOT
BRANCH   1   7
HETATM    7  C   UNL     1      14.912  53.980  50.965  1.00  0.00     0.254 C 
HETATM    8  N   UNL     1      16.050  53.450  50.396  1.00  0.00    -0.353 N 
HETATM    9  H   UNL     1      16.925  53.952  50.431  1.00  0.00     0.163 HD
HETATM   10  O   UNL     1      13.879  53.331  51.109  1.00  0.00    -0.268 OA
BRANCH   8  11
HETATM   11  C   UNL     1      16.070  52.118  49.833  1.00  0.00     0.161 C 
BRANCH  11  12
HETATM   12  C   UNL     1      17.481  51.628  49.636  1.00  0.00    -0.038 A 
HETATM   13  C   UNL     1      17.845  50.316  49.980  1.00  0.00     0.048 A 
HETATM   14  C   UNL     1      19.164  49.854  49.823  1.00  0.00     0.102 A 
HETATM   15  C   UNL     1      20.134  50.732  49.305  1.00  0.00     0.102 A 
HETATM   16  C   UNL     1      19.760  52.035  48.946  1.00  0.00     0.040 A 
HETATM   17  C   UNL     1      18.452  52.484  49.113  1.00  0.00     0.012 A 
BRANCH  14  18
HETATM   18  O   UNL     1      19.544  48.574  50.123  1.00  0.00    -0.353 OA
HETATM   19  C   UNL     1      19.332  47.560  49.150  1.00  0.00     0.210 C 
ENDBRANCH  14  18
BRANCH  15  20
HETATM   20  O   UNL     1      21.462  50.493  49.066  1.00  0.00    -0.349 OA
BRANCH  20  21
HETATM   21  C   UNL     1      21.896  50.319  47.721  1.00  0.00     0.171 C 
HETATM   22  C   UNL     1      23.415  50.277  47.726  1.00  0.00     0.034 C 
ENDBRANCH  20  21
ENDBRANCH  15  20
ENDBRANCH  11  12
ENDBRANCH   8  11
ENDBRANCH   1   7
BRANCH   2  23
HETATM   23  N   UNL     1      14.708  56.207  49.158  1.00  0.00    -0.321 N 
HETATM   24  C   UNL     1      13.533  56.028  48.461  1.00  0.00     0.265 C 
HETATM   25  O   UNL     1      12.390  56.119  48.895  1.00  0.00    -0.267 OA
HETATM   26  H   UNL     1      15.566  56.201  48.601  1.00  0.00     0.169 HD
BRANCH  24  27
HETATM   27  C   UNL     1      13.770  55.724  47.008  1.00  0.00     0.097 C 
HETATM   28  S   UNL     1      14.032  54.043  46.642  1.00  0.00    -0.120 SA
HETATM   29  C   UNL     1      14.494  54.184  44.897  1.00  0.00     0.106 C 
HETATM   30  C   UNL     1      13.609  55.222  44.235  1.00  0.00     0.185 C 
HETATM   31  O   UNL     1      13.886  56.537  44.722  1.00  0.00    -0.353 OA
HETATM   32  C   UNL     1      13.751  56.716  46.091  1.00  0.00     0.064 C 
HETATM   33  C   UNL     1      13.620  58.176  46.440  1.00  0.00     0.078 C 
ENDBRANCH  24  27
ENDBRANCH   2  23
TORSDOF 8
ENDMDL
MODEL 9
REMARK VINA RESULT:      -7.9      4.906      9.328
REMARK  8 active torsions:
REMARK  status: ('A' for Active; 'I' for Inactive)
REMARK    1  A    between atoms: C_2  and  O_3 
REMARK    2  A    between atoms: O_3  and  C_4 
REMARK    3  A    between atoms: C_5  and  O_6 
REMARK    4  A    between atoms: C_9  and  C_10 
REMARK    5  A    between atoms: C_10  and  N_11 
REMARK       I    between atoms: N_11  and  C_12 
REMARK    6  A    between atoms: C_12  and  C_13 
REMARK    7  A    between atoms: C_14  and  N_15 
REMARK       I    between atoms: N_15  and  C_16 
REMARK    8  A    between atoms: C_16  and  C_17 
ROOT
HETATM    1  C   UNL     1      23.517  47.397  49.261  1.00  0.00     0.058 A 
HETATM    2  C   UNL     1      22.965  46.188  48.769  1.00  0.00     0.050 A 
HETATM    3  C   UNL     1      23.368  44.981  49.351  1.00  0.00     0.030 A 
HETATM    4  C   UNL     1      24.281  44.961  50.409  1.00  0.00     0.002 A 
HETATM    5  C   UNL     1      24.802  46.150  50.908  1.00  0.00     0.001 A 
HETATM    6  C   UNL     1      24.418  47.364  50.342  1.00  0.00     0.019 A 
ENDROOT
BRANCH   1   7
HETATM    7  C   UNL     1      23.110  48.714  48.677  1.00  0.00     0.254 C 
HETATM    8  N   UNL     1      22.726  49.705  49.556  1.00  0.00    -0.353 N 
HETATM    9  H   UNL     1      22.846  49.585  50.551  1.00  0.00     0.163 HD
HETATM   10  O   UNL     1      23.154  48.887  47.462  1.00  0.00    -0.268 OA
BRANCH   8  11
HETATM   11  C   UNL     1      22.248  50.989  49.093  1.00  0.00     0.161 C 
BRANCH  11  12
HETATM   12  C   UNL     1      20.754  51.103  49.244  1.00  0.00    -0.038 A 
HETATM   13  C   UNL     1      20.040  50.217  50.068  1.00  0.00     0.048 A 
HETATM   14  C   UNL     1      18.642  50.299  50.199  1.00  0.00     0.102 A 
HETATM   15  C   UNL     1      17.951  51.296  49.487  1.00  0.00     0.102 A 
HETATM   16  C   UNL     1      18.671  52.189  48.680  1.00  0.00     0.040 A 
HETATM   17  C   UNL     1      20.055  52.094  48.553  1.00  0.00     0.012 A 
BRANCH  14  18
HETATM   18  O   UNL     1      17.922  49.468  51.014  1.00  0.00    -0.353 OA
HETATM   19  C   UNL     1      18.620  48.479  51.758  1.00  0.00     0.210 C 
ENDBRANCH  14  18
BRANCH  15  20
HETATM   20  O   UNL     1      16.606  51.557  49.471  1.00  0.00    -0.349 OA
BRANCH  20  21
HETATM   21  C   UNL     1      16.138  52.778  50.036  1.00  0.00     0.171 C 
HETATM   22  C   UNL     1      14.998  53.283  49.167  1.00  0.00     0.034 C 
ENDBRANCH  20  21
ENDBRANCH  15  20
ENDBRANCH  11  12
ENDBRANCH   8  11
ENDBRANCH   1   7
BRANCH   2  23
HETATM   23  N   UNL     1      22.037  46.232  47.700  1.00  0.00    -0.321 N 
HETATM   24  C   UNL     1      20.683  45.975  47.721  1.00  0.00     0.265 C 
HETATM   25  O   UNL     1      19.993  45.704  48.698  1.00  0.00    -0.267 OA
HETATM   26  H   UNL     1      22.419  46.550  46.806  1.00  0.00     0.169 HD
BRANCH  24  27
HETATM   27  C   UNL     1      20.056  46.093  46.361  1.00  0.00     0.097 C 
HETATM   28  S   UNL     1      20.155  44.660  45.378  1.00  0.00    -0.120 SA
HETATM   29  C   UNL     1      19.519  45.320  43.818  1.00  0.00     0.106 C 
HETATM   30  C   UNL     1      18.355  46.247  44.113  1.00  0.00     0.185 C 
HETATM   31  O   UNL     1      18.786  47.434  44.783  1.00  0.00    -0.353 OA
HETATM   32  C   UNL     1      19.455  47.242  45.984  1.00  0.00     0.064 C 
HETATM   33  C   UNL     1      19.465  48.502  46.809  1.00  0.00     0.078 C 
ENDBRANCH  24  27
ENDBRANCH   2  23
TORSDOF 8
ENDMDL
MODEL 10
REMARK VINA RESULT:      -7.8      2.591      4.974
REMARK  8 active torsions:
REMARK  status: ('A' for Active; 'I' for Inactive)
REMARK    1  A    between atoms: C_2  and  O_3 
REMARK    2  A    between atoms: O_3  and  C_4 
REMARK    3  A    between atoms: C_5  and  O_6 
REMARK    4  A    between atoms: C_9  and  C_10 
REMARK    5  A    between atoms: C_10  and  N_11 
REMARK       I    between atoms: N_11  and  C_12 
REMARK    6  A    between atoms: C_12  and  C_13 
REMARK    7  A    between atoms: C_14  and  N_15 
REMARK       I    between atoms: N_15  and  C_16 
REMARK    8  A    between atoms: C_16  and  C_17 
ROOT
HETATM    1  C   UNL     1      21.175  49.424  49.129  1.00  0.00     0.058 A 
HETATM    2  C   UNL     1      19.998  48.749  48.722  1.00  0.00     0.050 A 
HETATM    3  C   UNL     1      18.757  49.311  49.044  1.00  0.00     0.030 A 
HETATM    4  C   UNL     1      18.674  50.523  49.735  1.00  0.00     0.002 A 
HETATM    5  C   UNL     1      19.830  51.197  50.110  1.00  0.00     0.001 A 
HETATM    6  C   UNL     1      21.077  50.655  49.804  1.00  0.00     0.019 A 
ENDROOT
BRANCH   1   7
HETATM    7  C   UNL     1      22.525  48.866  48.800  1.00  0.00     0.254 C 
HETATM    8  N   UNL     1      23.286  48.390  49.846  1.00  0.00    -0.353 N 
HETATM    9  H   UNL     1      22.891  48.301  50.771  1.00  0.00     0.163 HD
HETATM   10  O   UNL     1      22.902  48.818  47.632  1.00  0.00    -0.268 OA
BRANCH   8  11
HETATM   11  C   UNL     1      24.630  47.896  49.647  1.00  0.00     0.161 C 
BRANCH  11  12
HETATM   12  C   UNL     1      24.985  46.848  50.670  1.00  0.00    -0.038 A 
HETATM   13  C   UNL     1      24.410  45.567  50.622  1.00  0.00     0.048 A 
HETATM   14  C   UNL     1      24.716  44.588  51.584  1.00  0.00     0.102 A 
HETATM   15  C   UNL     1      25.620  44.906  52.613  1.00  0.00     0.102 A 
HETATM   16  C   UNL     1      26.204  46.181  52.645  1.00  0.00     0.040 A 
HETATM   17  C   UNL     1      25.889  47.145  51.690  1.00  0.00     0.012 A 
BRANCH  14  18
HETATM   18  O   UNL     1      24.194  43.323  51.549  1.00  0.00    -0.353 OA
HETATM   19  C   UNL     1      24.619  42.445  50.516  1.00  0.00     0.210 C 
ENDBRANCH  14  18
BRANCH  15  20
HETATM   20  O   UNL     1      26.060  44.113  53.640  1.00  0.00    -0.349 OA
BRANCH  20  21
HETATM   21  C   UNL     1      27.202  43.289  53.430  1.00  0.00     0.171 C 
HETATM   22  C   UNL     1      28.264  43.703  54.435  1.00  0.00     0.034 C 
ENDBRANCH  20  21
ENDBRANCH  15  20
ENDBRANCH  11  12
ENDBRANCH   8  11
ENDBRANCH   1   7
BRANCH   2  23
HETATM   23  N   UNL     1      20.105  47.525  48.017  1.00  0.00    -0.321 N 
HETATM   24  C   UNL     1      19.744  47.242  46.717  1.00  0.00     0.265 C 
HETATM   25  O   UNL     1      19.300  48.023  45.883  1.00  0.00    -0.267 OA
HETATM   26  H   UNL     1      20.563  46.767  48.531  1.00  0.00     0.169 HD
BRANCH  24  27
HETATM   27  C   UNL     1      19.986  45.804  46.356  1.00  0.00     0.097 C 
HETATM   28  S   UNL     1      21.508  45.486  45.574  1.00  0.00    -0.120 SA
HETATM   29  C   UNL     1      21.261  43.750  45.129  1.00  0.00     0.106 C 
HETATM   30  C   UNL     1      20.563  43.042  46.273  1.00  0.00     0.185 C 
HETATM   31  O   UNL     1      19.218  43.500  46.433  1.00  0.00    -0.353 OA
HETATM   32  C   UNL     1      19.066  44.861  46.656  1.00  0.00     0.064 C 
HETATM   33  C   UNL     1      17.713  45.169  47.244  1.00  0.00     0.078 C 
ENDBRANCH  24  27
ENDBRANCH   2  23
TORSDOF 8
ENDMDL
