MODEL 1
REMARK VINA RESULT:      -8.0      0.000      0.000
REMARK  4 active torsions:
REMARK  status: ('A' for Active; 'I' for Inactive)
REMARK    1  A    between atoms: C_2  and  N_3 
REMARK       I    between atoms: N_3  and  C_4 
REMARK    2  A    between atoms: C_4  and  C_5 
REMARK    3  A    between atoms: C_5  and  N_6 
REMARK    4  A    between atoms: N_6  and  C_7 
ROOT
HETATM    1  C   UNL     1      28.859  43.392  53.266  1.00  0.00     0.022 A 
HETATM    2  C   UNL     1      29.382  43.988  54.455  1.00  0.00     0.012 A 
HETATM    3  C   UNL     1      28.714  45.115  55.007  1.00  0.00     0.045 A 
HETATM    4  C   UNL     1      29.151  45.715  56.197  1.00  0.00     0.054 A 
HETATM    5  C   UNL     1      30.269  45.214  56.855  1.00  0.00     0.036 A 
HETATM    6 CL   UNL     1      30.794  45.948  58.316  1.00  0.00    -0.084 Cl
HETATM    7  C   UNL     1      30.963  44.131  56.333  1.00  0.00     0.025 A 
HETATM    8  C   UNL     1      30.529  43.528  55.147  1.00  0.00     0.017 A 
HETATM    9  N   UNL     1      27.640  45.620  54.371  1.00  0.00    -0.365 N 
HETATM   10  H   UNL     1      27.171  46.432  54.772  1.00  0.00     0.165 HD
HETATM   11  C   UNL     1      27.169  45.121  53.225  1.00  0.00     0.090 A 
HETATM   12  C   UNL     1      27.768  44.015  52.647  1.00  0.00     0.041 A 
ENDROOT
BRANCH   1  13
HETATM   13  N   UNL     1      29.511  42.297  52.664  1.00  0.00    -0.283 NA
HETATM   14  H   UNL     1      30.464  42.181  53.002  1.00  0.00     0.128 HD
BRANCH  13  15
HETATM   15  C   UNL     1      28.845  40.968  52.678  1.00  0.00     0.195 C 
BRANCH  15  16
HETATM   16  C   UNL     1      28.316  40.546  51.304  1.00  0.00     0.231 C 
HETATM   17  N   UNL     1      29.122  39.643  50.648  1.00  0.00    -0.352 N 
HETATM   18  H   UNL     1      30.014  39.448  51.092  1.00  0.00     0.163 HD
HETATM   19  O   UNL     1      27.254  40.980  50.870  1.00  0.00    -0.272 OA
BRANCH  17  20
HETATM   20  C   UNL     1      28.801  38.982  49.375  1.00  0.00     0.022 C 
HETATM   21  C   UNL     1      28.597  40.010  48.251  1.00  0.00     0.037 C 
HETATM   22  C   UNL     1      27.545  38.108  49.523  1.00  0.00     0.037 C 
HETATM   23  C   UNL     1      29.984  38.074  48.993  1.00  0.00     0.037 C 
ENDBRANCH  17  20
ENDBRANCH  15  16
ENDBRANCH  13  15
ENDBRANCH   1  13
TORSDOF 4
ENDMDL
MODEL 2
REMARK VINA RESULT:      -7.6      1.773      2.683
REMARK  4 active torsions:
REMARK  status: ('A' for Active; 'I' for Inactive)
REMARK    1  A    between atoms: C_2  and  N_3 
REMARK       I    between atoms: N_3  and  C_4 
REMARK    2  A    between atoms: C_4  and  C_5 
REMARK    3  A    between atoms: C_5  and  N_6 
REMARK    4  A    between atoms: N_6  and  C_7 
ROOT
HETATM    1  C   UNL     1      28.688  43.230  54.280  1.00  0.00     0.022 A 
HETATM    2  C   UNL     1      28.105  44.501  54.576  1.00  0.00     0.012 A 
HETATM    3  C   UNL     1      28.855  45.437  55.338  1.00  0.00     0.045 A 
HETATM    4  C   UNL     1      28.357  46.718  55.622  1.00  0.00     0.054 A 
HETATM    5  C   UNL     1      27.098  47.088  55.164  1.00  0.00     0.036 A 
HETATM    6 CL   UNL     1      26.498  48.659  55.507  1.00  0.00    -0.084 Cl
HETATM    7  C   UNL     1      26.325  46.192  54.437  1.00  0.00     0.025 A 
HETATM    8  C   UNL     1      26.819  44.915  54.150  1.00  0.00     0.017 A 
HETATM    9  N   UNL     1      30.069  45.086  55.802  1.00  0.00    -0.365 N 
HETATM   10  H   UNL     1      30.597  45.762  56.354  1.00  0.00     0.165 HD
HETATM   11  C   UNL     1      30.610  43.882  55.594  1.00  0.00     0.090 A 
HETATM   12  C   UNL     1      29.934  42.933  54.845  1.00  0.00     0.041 A 
ENDROOT
BRANCH   1  13
HETATM   13  N   UNL     1      27.965  42.258  53.558  1.00  0.00    -0.283 NA
HETATM   14  H   UNL     1      27.390  42.670  52.826  1.00  0.00     0.128 HD
BRANCH  13  15
HETATM   15  C   UNL     1      28.696  41.100  52.982  1.00  0.00     0.195 C 
BRANCH  15  16
HETATM   16  C   UNL     1      28.281  40.783  51.542  1.00  0.00     0.231 C 
HETATM   17  N   UNL     1      28.944  39.710  50.992  1.00  0.00    -0.352 N 
HETATM   18  H   UNL     1      29.701  39.328  51.552  1.00  0.00     0.163 HD
HETATM   19  O   UNL     1      27.413  41.437  50.971  1.00  0.00    -0.272 OA
BRANCH  17  20
HETATM   20  C   UNL     1      28.662  39.116  49.677  1.00  0.00     0.022 C 
HETATM   21  C   UNL     1      28.818  40.153  48.554  1.00  0.00     0.037 C 
HETATM   22  C   UNL     1      27.246  38.518  49.649  1.00  0.00     0.037 C 
HETATM   23  C   UNL     1      29.674  37.982  49.435  1.00  0.00     0.037 C 
ENDBRANCH  17  20
ENDBRANCH  15  16
ENDBRANCH  13  15
ENDBRANCH   1  13
TORSDOF 4
ENDMDL
MODEL 3
REMARK VINA RESULT:      -7.3      2.518      3.173
REMARK  4 active torsions:
REMARK  status: ('A' for Active; 'I' for Inactive)
REMARK    1  A    between atoms: C_2  and  N_3 
REMARK       I    between atoms: N_3  and  C_4 
REMARK    2  A    between atoms: C_4  and  C_5 
REMARK    3  A    between atoms: C_5  and  N_6 
REMARK    4  A    between atoms: N_6  and  C_7 
ROOT
HETATM    1  C   UNL     1      27.301  45.337  53.682  1.00  0.00     0.022 A 
HETATM    2  C   UNL     1      28.430  44.840  54.404  1.00  0.00     0.012 A 
HETATM    3  C   UNL     1      28.940  45.605  55.488  1.00  0.00     0.045 A 
HETATM    4  C   UNL     1      30.016  45.148  56.264  1.00  0.00     0.054 A 
HETATM    5  C   UNL     1      30.614  43.928  55.968  1.00  0.00     0.036 A 
HETATM    6 CL   UNL     1      31.925  43.371  56.927  1.00  0.00    -0.084 Cl
HETATM    7  C   UNL     1      30.160  43.165  54.901  1.00  0.00     0.025 A 
HETATM    8  C   UNL     1      29.086  43.615  54.126  1.00  0.00     0.017 A 
HETATM    9  N   UNL     1      28.381  46.795  55.774  1.00  0.00    -0.365 N 
HETATM   10  H   UNL     1      28.758  47.340  56.550  1.00  0.00     0.165 HD
HETATM   11  C   UNL     1      27.367  47.312  55.075  1.00  0.00     0.090 A 
HETATM   12  C   UNL     1      26.817  46.607  54.018  1.00  0.00     0.041 A 
ENDROOT
BRANCH   1  13
HETATM   13  N   UNL     1      26.786  44.630  52.577  1.00  0.00    -0.283 NA
HETATM   14  H   UNL     1      27.314  43.782  52.381  1.00  0.00     0.128 HD
BRANCH  13  15
HETATM   15  C   UNL     1      25.338  44.296  52.548  1.00  0.00     0.195 C 
BRANCH  15  16
HETATM   16  C   UNL     1      24.983  43.251  51.487  1.00  0.00     0.231 C 
HETATM   17  N   UNL     1      26.073  42.741  50.819  1.00  0.00    -0.352 N 
HETATM   18  H   UNL     1      26.962  43.189  51.023  1.00  0.00     0.163 HD
HETATM   19  O   UNL     1      23.821  42.909  51.293  1.00  0.00    -0.272 OA
BRANCH  17  20
HETATM   20  C   UNL     1      26.037  41.645  49.839  1.00  0.00     0.022 C 
HETATM   21  C   UNL     1      24.803  41.753  48.930  1.00  0.00     0.037 C 
HETATM   22  C   UNL     1      26.047  40.284  50.553  1.00  0.00     0.037 C 
HETATM   23  C   UNL     1      27.297  41.744  48.961  1.00  0.00     0.037 C 
ENDBRANCH  17  20
ENDBRANCH  15  16
ENDBRANCH  13  15
ENDBRANCH   1  13
TORSDOF 4
ENDMDL
MODEL 4
REMARK VINA RESULT:      -7.2      3.069      3.813
REMARK  4 active torsions:
REMARK  status: ('A' for Active; 'I' for Inactive)
REMARK    1  A    between atoms: C_2  and  N_3 
REMARK       I    between atoms: N_3  and  C_4 
REMARK    2  A    between atoms: C_4  and  C_5 
REMARK    3  A    between atoms: C_5  and  N_6 
REMARK    4  A    between atoms: N_6  and  C_7 
ROOT
HETATM    1  C   UNL     1      27.518  44.865  53.580  1.00  0.00     0.022 A 
HETATM    2  C   UNL     1      28.647  44.535  54.392  1.00  0.00     0.012 A 
HETATM    3  C   UNL     1      29.024  45.425  55.435  1.00  0.00     0.045 A 
HETATM    4  C   UNL     1      30.093  45.134  56.295  1.00  0.00     0.054 A 
HETATM    5  C   UNL     1      30.817  43.959  56.127  1.00  0.00     0.036 A 
HETATM    6 CL   UNL     1      32.120  43.605  57.188  1.00  0.00    -0.084 Cl
HETATM    7  C   UNL     1      30.495  43.077  55.104  1.00  0.00     0.025 A 
HETATM    8  C   UNL     1      29.428  43.362  54.245  1.00  0.00     0.017 A 
HETATM    9  N   UNL     1      28.342  46.574  55.598  1.00  0.00    -0.365 N 
HETATM   10  H   UNL     1      28.624  47.209  56.345  1.00  0.00     0.165 HD
HETATM   11  C   UNL     1      27.324  46.937  54.813  1.00  0.00     0.090 A 
HETATM   12  C   UNL     1      26.901  46.104  53.790  1.00  0.00     0.041 A 
ENDROOT
BRANCH   1  13
HETATM   13  N   UNL     1      27.132  44.031  52.512  1.00  0.00    -0.283 NA
HETATM   14  H   UNL     1      26.183  43.678  52.622  1.00  0.00     0.128 HD
BRANCH  13  15
HETATM   15  C   UNL     1      27.289  44.525  51.119  1.00  0.00     0.195 C 
BRANCH  15  16
HETATM   16  C   UNL     1      26.516  43.690  50.095  1.00  0.00     0.231 C 
HETATM   17  N   UNL     1      25.162  43.623  50.335  1.00  0.00    -0.352 N 
HETATM   18  H   UNL     1      24.851  44.034  51.210  1.00  0.00     0.163 HD
HETATM   19  O   UNL     1      27.085  43.160  49.146  1.00  0.00    -0.272 OA
BRANCH  17  20
HETATM   20  C   UNL     1      24.169  42.993  49.452  1.00  0.00     0.022 C 
HETATM   21  C   UNL     1      22.782  42.961  50.111  1.00  0.00     0.037 C 
HETATM   22  C   UNL     1      24.609  41.568  49.079  1.00  0.00     0.037 C 
HETATM   23  C   UNL     1      24.075  43.828  48.162  1.00  0.00     0.037 C 
ENDBRANCH  17  20
ENDBRANCH  15  16
ENDBRANCH  13  15
ENDBRANCH   1  13
TORSDOF 4
ENDMDL
MODEL 5
REMARK VINA RESULT:      -7.2      5.307      7.966
REMARK  4 active torsions:
REMARK  status: ('A' for Active; 'I' for Inactive)
REMARK    1  A    between atoms: C_2  and  N_3 
REMARK       I    between atoms: N_3  and  C_4 
REMARK    2  A    between atoms: C_4  and  C_5 
REMARK    3  A    between atoms: C_5  and  N_6 
REMARK    4  A    between atoms: N_6  and  C_7 
ROOT
HETATM    1  C   UNL     1      25.781  46.140  51.873  1.00  0.00     0.022 A 
HETATM    2  C   UNL     1      26.463  46.211  53.126  1.00  0.00     0.012 A 
HETATM    3  C   UNL     1      27.116  45.048  53.617  1.00  0.00     0.045 A 
HETATM    4  C   UNL     1      27.841  45.066  54.818  1.00  0.00     0.054 A 
HETATM    5  C   UNL     1      27.920  46.239  55.561  1.00  0.00     0.036 A 
HETATM    6 CL   UNL     1      28.816  46.257  57.025  1.00  0.00    -0.084 Cl
HETATM    7  C   UNL     1      27.274  47.389  55.127  1.00  0.00     0.025 A 
HETATM    8  C   UNL     1      26.552  47.375  53.929  1.00  0.00     0.017 A 
HETATM    9  N   UNL     1      27.034  43.902  52.916  1.00  0.00    -0.365 N 
HETATM   10  H   UNL     1      27.501  43.070  53.279  1.00  0.00     0.165 HD
HETATM   11  C   UNL     1      26.349  43.792  51.774  1.00  0.00     0.090 A 
HETATM   12  C   UNL     1      25.705  44.894  51.238  1.00  0.00     0.041 A 
ENDROOT
BRANCH   1  13
HETATM   13  N   UNL     1      25.089  47.259  51.366  1.00  0.00    -0.283 NA
HETATM   14  H   UNL     1      25.690  48.076  51.275  1.00  0.00     0.128 HD
BRANCH  13  15
HETATM   15  C   UNL     1      24.305  47.112  50.112  1.00  0.00     0.195 C 
BRANCH  15  16
HETATM   16  C   UNL     1      23.748  48.441  49.594  1.00  0.00     0.231 C 
HETATM   17  N   UNL     1      22.374  48.478  49.514  1.00  0.00    -0.352 N 
HETATM   18  H   UNL     1      21.900  47.599  49.697  1.00  0.00     0.163 HD
HETATM   19  O   UNL     1      24.490  49.375  49.306  1.00  0.00    -0.272 OA
BRANCH  17  20
HETATM   20  C   UNL     1      21.571  49.660  49.166  1.00  0.00     0.022 C 
HETATM   21  C   UNL     1      20.068  49.372  49.307  1.00  0.00     0.037 C 
HETATM   22  C   UNL     1      21.887  50.122  47.734  1.00  0.00     0.037 C 
HETATM   23  C   UNL     1      21.941  50.795  50.137  1.00  0.00     0.037 C 
ENDBRANCH  17  20
ENDBRANCH  15  16
ENDBRANCH  13  15
ENDBRANCH   1  13
TORSDOF 4
ENDMDL
MODEL 6
REMARK VINA RESULT:      -7.2      3.065      5.278
REMARK  4 active torsions:
REMARK  status: ('A' for Active; 'I' for Inactive)
REMARK    1  A    between atoms: C_2  and  N_3 
REMARK       I    between atoms: N_3  and  C_4 
REMARK    2  A    between atoms: C_4  and  C_5 
REMARK    3  A    between atoms: C_5  and  N_6 
REMARK    4  A    between atoms: N_6  and  C_7 
ROOT
HETATM    1  C   UNL     1      27.763  44.608  53.848  1.00  0.00     0.022 A 
HETATM    2  C   UNL     1      28.852  44.411  54.752  1.00  0.00     0.012 A 
HETATM    3  C   UNL     1      29.595  43.202  54.675  1.00  0.00     0.045 A 
HETATM    4  C   UNL     1      30.703  42.970  55.504  1.00  0.00     0.054 A 
HETATM    5  C   UNL     1      31.087  43.931  56.433  1.00  0.00     0.036 A 
HETATM    6 CL   UNL     1      32.449  43.644  57.437  1.00  0.00    -0.084 Cl
HETATM    7  C   UNL     1      30.370  45.114  56.554  1.00  0.00     0.025 A 
HETATM    8  C   UNL     1      29.266  45.350  55.729  1.00  0.00     0.017 A 
HETATM    9  N   UNL     1      29.224  42.256  53.792  1.00  0.00    -0.365 N 
HETATM   10  H   UNL     1      29.760  41.389  53.749  1.00  0.00     0.165 HD
HETATM   11  C   UNL     1      28.172  42.388  52.980  1.00  0.00     0.090 A 
HETATM   12  C   UNL     1      27.419  43.550  52.997  1.00  0.00     0.041 A 
ENDROOT
BRANCH   1  13
HETATM   13  N   UNL     1      26.976  45.776  53.913  1.00  0.00    -0.283 NA
HETATM   14  H   UNL     1      27.303  46.497  53.272  1.00  0.00     0.128 HD
BRANCH  13  15
HETATM   15  C   UNL     1      25.501  45.659  53.772  1.00  0.00     0.195 C 
BRANCH  15  16
HETATM   16  C   UNL     1      25.036  45.658  52.313  1.00  0.00     0.231 C 
HETATM   17  N   UNL     1      25.586  46.663  51.550  1.00  0.00    -0.352 N 
HETATM   18  H   UNL     1      26.140  47.346  52.059  1.00  0.00     0.163 HD
HETATM   19  O   UNL     1      24.258  44.807  51.892  1.00  0.00    -0.272 OA
BRANCH  17  20
HETATM   20  C   UNL     1      25.410  46.827  50.099  1.00  0.00     0.022 C 
HETATM   21  C   UNL     1      23.997  47.329  49.765  1.00  0.00     0.037 C 
HETATM   22  C   UNL     1      25.685  45.502  49.370  1.00  0.00     0.037 C 
HETATM   23  C   UNL     1      26.426  47.874  49.608  1.00  0.00     0.037 C 
ENDBRANCH  17  20
ENDBRANCH  15  16
ENDBRANCH  13  15
ENDBRANCH   1  13
TORSDOF 4
ENDMDL
MODEL 7
REMARK VINA RESULT:      -7.1      5.993      8.075
REMARK  4 active torsions:
REMARK  status: ('A' for Active; 'I' for Inactive)
REMARK    1  A    between atoms: C_2  and  N_3 
REMARK       I    between atoms: N_3  and  C_4 
REMARK    2  A    between atoms: C_4  and  C_5 
REMARK    3  A    between atoms: C_5  and  N_6 
REMARK    4  A    between atoms: N_6  and  C_7 
ROOT
HETATM    1  C   UNL     1      26.094  47.771  49.776  1.00  0.00     0.022 A 
HETATM    2  C   UNL     1      24.898  48.391  49.298  1.00  0.00     0.012 A 
HETATM    3  C   UNL     1      25.005  49.559  48.496  1.00  0.00     0.045 A 
HETATM    4  C   UNL     1      23.871  50.185  47.959  1.00  0.00     0.054 A 
HETATM    5  C   UNL     1      22.606  49.669  48.220  1.00  0.00     0.036 A 
HETATM    6 CL   UNL     1      21.223  50.436  47.552  1.00  0.00    -0.084 Cl
HETATM    7  C   UNL     1      22.460  48.544  49.020  1.00  0.00     0.025 A 
HETATM    8  C   UNL     1      23.588  47.915  49.556  1.00  0.00     0.017 A 
HETATM    9  N   UNL     1      26.222  50.078  48.249  1.00  0.00    -0.365 N 
HETATM   10  H   UNL     1      26.289  50.921  47.678  1.00  0.00     0.165 HD
HETATM   11  C   UNL     1      27.351  49.556  48.737  1.00  0.00     0.090 A 
HETATM   12  C   UNL     1      27.312  48.409  49.512  1.00  0.00     0.041 A 
ENDROOT
BRANCH   1  13
HETATM   13  N   UNL     1      26.033  46.633  50.606  1.00  0.00    -0.283 NA
HETATM   14  H   UNL     1      25.076  46.382  50.846  1.00  0.00     0.128 HD
BRANCH  13  15
HETATM   15  C   UNL     1      26.749  45.399  50.188  1.00  0.00     0.195 C 
BRANCH  15  16
HETATM   16  C   UNL     1      26.791  44.329  51.282  1.00  0.00     0.231 C 
HETATM   17  N   UNL     1      28.063  43.970  51.665  1.00  0.00    -0.352 N 
HETATM   18  H   UNL     1      28.816  44.365  51.109  1.00  0.00     0.163 HD
HETATM   19  O   UNL     1      25.760  43.873  51.766  1.00  0.00    -0.272 OA
BRANCH  17  20
HETATM   20  C   UNL     1      28.397  43.059  52.770  1.00  0.00     0.022 C 
HETATM   21  C   UNL     1      27.842  41.649  52.514  1.00  0.00     0.037 C 
HETATM   22  C   UNL     1      27.853  43.606  54.100  1.00  0.00     0.037 C 
HETATM   23  C   UNL     1      29.930  42.967  52.870  1.00  0.00     0.037 C 
ENDBRANCH  17  20
ENDBRANCH  15  16
ENDBRANCH  13  15
ENDBRANCH   1  13
TORSDOF 4
ENDMDL
MODEL 8
REMARK VINA RESULT:      -7.1      3.103      5.965
REMARK  4 active torsions:
REMARK  status: ('A' for Active; 'I' for Inactive)
REMARK    1  A    between atoms: C_2  and  N_3 
REMARK       I    between atoms: N_3  and  C_4 
REMARK    2  A    between atoms: C_4  and  C_5 
REMARK    3  A    between atoms: C_5  and  N_6 
REMARK    4  A    between atoms: N_6  and  C_7 
ROOT
HETATM    1  C   UNL     1      26.537  41.657  51.253  1.00  0.00     0.022 A 
HETATM    2  C   UNL     1      27.440  42.153  52.243  1.00  0.00     0.012 A 
HETATM    3  C   UNL     1      28.753  41.612  52.305  1.00  0.00     0.045 A 
HETATM    4  C   UNL     1      29.700  42.089  53.223  1.00  0.00     0.054 A 
HETATM    5  C   UNL     1      29.355  43.106  54.107  1.00  0.00     0.036 A 
HETATM    6 CL   UNL     1      30.522  43.692  55.223  1.00  0.00    -0.084 Cl
HETATM    7  C   UNL     1      28.075  43.642  54.094  1.00  0.00     0.025 A 
HETATM    8  C   UNL     1      27.128  43.171  53.178  1.00  0.00     0.017 A 
HETATM    9  N   UNL     1      29.094  40.616  51.466  1.00  0.00    -0.365 N 
HETATM   10  H   UNL     1      30.037  40.229  51.522  1.00  0.00     0.165 HD
HETATM   11  C   UNL     1      28.249  40.090  50.575  1.00  0.00     0.090 A 
HETATM   12  C   UNL     1      26.962  40.587  50.457  1.00  0.00     0.041 A 
ENDROOT
BRANCH   1  13
HETATM   13  N   UNL     1      25.214  42.139  51.180  1.00  0.00    -0.283 NA
HETATM   14  H   UNL     1      24.857  42.425  52.090  1.00  0.00     0.128 HD
BRANCH  13  15
HETATM   15  C   UNL     1      24.890  43.205  50.195  1.00  0.00     0.195 C 
BRANCH  15  16
HETATM   16  C   UNL     1      24.849  44.604  50.816  1.00  0.00     0.231 C 
HETATM   17  N   UNL     1      25.626  45.530  50.158  1.00  0.00    -0.352 N 
HETATM   18  H   UNL     1      26.216  45.162  49.418  1.00  0.00     0.163 HD
HETATM   19  O   UNL     1      24.155  44.844  51.799  1.00  0.00    -0.272 OA
BRANCH  17  20
HETATM   20  C   UNL     1      25.681  46.968  50.463  1.00  0.00     0.022 C 
HETATM   21  C   UNL     1      26.738  47.678  49.603  1.00  0.00     0.037 C 
HETATM   22  C   UNL     1      25.979  47.191  51.955  1.00  0.00     0.037 C 
HETATM   23  C   UNL     1      24.305  47.579  50.144  1.00  0.00     0.037 C 
ENDBRANCH  17  20
ENDBRANCH  15  16
ENDBRANCH  13  15
ENDBRANCH   1  13
TORSDOF 4
ENDMDL
MODEL 9
REMARK VINA RESULT:      -6.9      2.112      3.042
REMARK  4 active torsions:
REMARK  status: ('A' for Active; 'I' for Inactive)
REMARK    1  A    between atoms: C_2  and  N_3 
REMARK       I    between atoms: N_3  and  C_4 
REMARK    2  A    between atoms: C_4  and  C_5 
REMARK    3  A    between atoms: C_5  and  N_6 
REMARK    4  A    between atoms: N_6  and  C_7 
ROOT
HETATM    1  C   UNL     1      28.264  44.229  53.333  1.00  0.00     0.022 A 
HETATM    2  C   UNL     1      28.803  44.682  54.576  1.00  0.00     0.012 A 
HETATM    3  C   UNL     1      30.009  44.100  55.053  1.00  0.00     0.045 A 
HETATM    4  C   UNL     1      30.612  44.534  56.243  1.00  0.00     0.054 A 
HETATM    5  C   UNL     1      30.021  45.548  56.989  1.00  0.00     0.036 A 
HETATM    6 CL   UNL     1      30.768  46.080  58.440  1.00  0.00    -0.084 Cl
HETATM    7  C   UNL     1      28.829  46.123  56.569  1.00  0.00     0.025 A 
HETATM    8  C   UNL     1      28.226  45.695  55.382  1.00  0.00     0.017 A 
HETATM    9  N   UNL     1      30.583  43.107  54.349  1.00  0.00    -0.365 N 
HETATM   10  H   UNL     1      31.445  42.690  54.702  1.00  0.00     0.165 HD
HETATM   11  C   UNL     1      30.066  42.621  53.217  1.00  0.00     0.090 A 
HETATM   12  C   UNL     1      28.902  43.158  52.694  1.00  0.00     0.041 A 
ENDROOT
BRANCH   1  13
HETATM   13  N   UNL     1      27.052  44.753  52.841  1.00  0.00    -0.283 NA
HETATM   14  H   UNL     1      27.190  45.349  52.027  1.00  0.00     0.128 HD
BRANCH  13  15
HETATM   15  C   UNL     1      25.930  43.821  52.552  1.00  0.00     0.195 C 
BRANCH  15  16
HETATM   16  C   UNL     1      25.914  43.332  51.101  1.00  0.00     0.231 C 
HETATM   17  N   UNL     1      26.043  41.968  50.970  1.00  0.00    -0.352 N 
HETATM   18  H   UNL     1      26.244  41.462  51.827  1.00  0.00     0.163 HD
HETATM   19  O   UNL     1      25.774  44.115  50.167  1.00  0.00    -0.272 OA
BRANCH  17  20
HETATM   20  C   UNL     1      25.941  41.219  49.708  1.00  0.00     0.022 C 
HETATM   21  C   UNL     1      26.977  41.712  48.685  1.00  0.00     0.037 C 
HETATM   22  C   UNL     1      24.525  41.340  49.124  1.00  0.00     0.037 C 
HETATM   23  C   UNL     1      26.222  39.736  50.006  1.00  0.00     0.037 C 
ENDBRANCH  17  20
ENDBRANCH  15  16
ENDBRANCH  13  15
ENDBRANCH   1  13
TORSDOF 4
ENDMDL
MODEL 10
REMARK VINA RESULT:      -6.8      2.921      4.264
REMARK  4 active torsions:
REMARK  status: ('A' for Active; 'I' for Inactive)
REMARK    1  A    between atoms: C_2  and  N_3 
REMARK       I    between atoms: N_3  and  C_4 
REMARK    2  A    between atoms: C_4  and  C_5 
REMARK    3  A    between atoms: C_5  and  N_6 
REMARK    4  A    between atoms: N_6  and  C_7 
ROOT
HETATM    1  C   UNL     1      28.020  42.904  53.596  1.00  0.00     0.022 A 
HETATM    2  C   UNL     1      27.567  44.197  54.004  1.00  0.00     0.012 A 
HETATM    3  C   UNL     1      28.447  45.026  54.751  1.00  0.00     0.045 A 
HETATM    4  C   UNL     1      28.077  46.322  55.141  1.00  0.00     0.054 A 
HETATM    5  C   UNL     1      26.821  46.815  54.805  1.00  0.00     0.036 A 
HETATM    6 CL   UNL     1      26.379  48.405  55.277  1.00  0.00    -0.084 Cl
HETATM    7  C   UNL     1      25.925  46.025  54.097  1.00  0.00     0.025 A 
HETATM    8  C   UNL     1      26.290  44.733  53.705  1.00  0.00     0.017 A 
HETATM    9  N   UNL     1      29.659  44.556  55.097  1.00  0.00    -0.365 N 
HETATM   10  H   UNL     1      30.281  45.156  55.640  1.00  0.00     0.165 HD
HETATM   11  C   UNL     1      30.083  43.328  54.784  1.00  0.00     0.090 A 
HETATM   12  C   UNL     1      29.277  42.480  54.043  1.00  0.00     0.041 A 
ENDROOT
BRANCH   1  13
HETATM   13  N   UNL     1      27.168  42.035  52.885  1.00  0.00    -0.283 NA
HETATM   14  H   UNL     1      26.220  42.399  52.811  1.00  0.00     0.128 HD
BRANCH  13  15
HETATM   15  C   UNL     1      27.590  41.552  51.544  1.00  0.00     0.195 C 
BRANCH  15  16
HETATM   16  C   UNL     1      26.920  42.311  50.395  1.00  0.00     0.231 C 
HETATM   17  N   UNL     1      25.704  42.867  50.726  1.00  0.00    -0.352 N 
HETATM   18  H   UNL     1      25.344  42.620  51.643  1.00  0.00     0.163 HD
HETATM   19  O   UNL     1      27.459  42.412  49.298  1.00  0.00    -0.272 OA
BRANCH  17  20
HETATM   20  C   UNL     1      24.903  43.744  49.858  1.00  0.00     0.022 C 
HETATM   21  C   UNL     1      25.689  45.005  49.467  1.00  0.00     0.037 C 
HETATM   22  C   UNL     1      23.590  44.136  50.556  1.00  0.00     0.037 C 
HETATM   23  C   UNL     1      24.560  42.967  48.575  1.00  0.00     0.037 C 
ENDBRANCH  17  20
ENDBRANCH  15  16
ENDBRANCH  13  15
ENDBRANCH   1  13
TORSDOF 4
ENDMDL
