MODEL 1
REMARK VINA RESULT:      -8.3      0.000      0.000
REMARK  5 active torsions:
REMARK  status: ('A' for Active; 'I' for Inactive)
REMARK    1  A    between atoms: C_3  and  N_4 
REMARK       I    between atoms: N_4  and  C_5 
REMARK       I    between atoms: C_5  and  N_6 
REMARK    2  A    between atoms: N_6  and  C_7 
REMARK    3  A    between atoms: C_7  and  C_8 
REMARK    4  A    between atoms: C_8  and  O_9 
REMARK    5  A    between atoms: O_9  and  C_10 
ROOT
HETATM    1  N   UNL     1      25.004  46.869  50.638  1.00  0.00    -0.307 N 
HETATM    2  C   UNL     1      25.118  45.540  50.360  1.00  0.00     0.320 C 
HETATM    3  N   UNL     1      24.863  44.706  51.410  1.00  0.00    -0.340 N 
HETATM    4  O   UNL     1      25.367  45.044  49.268  1.00  0.00    -0.247 OA
HETATM    5  H   UNL     1      24.200  47.037  51.230  1.00  0.00     0.170 HD
HETATM    6  H   UNL     1      24.944  43.747  51.094  1.00  0.00     0.164 HD
ENDROOT
BRANCH   3   7
HETATM    7  C   UNL     1      25.161  44.911  52.829  1.00  0.00     0.156 C 
BRANCH   7   8
HETATM    8  C   UNL     1      26.316  44.100  53.454  1.00  0.00     0.142 C 
HETATM    9  C   UNL     1      25.945  43.718  54.889  1.00  0.00     0.042 C 
BRANCH   8  10
HETATM   10  O   UNL     1      27.484  44.928  53.454  1.00  0.00    -0.343 OA
BRANCH  10  11
HETATM   11  C   UNL     1      28.578  44.590  54.202  1.00  0.00     0.091 A 
HETATM   12  C   UNL     1      28.937  45.486  55.225  1.00  0.00     0.067 A 
HETATM   13 CL   UNL     1      28.019  46.922  55.525  1.00  0.00    -0.081 Cl
HETATM   14  C   UNL     1      30.045  45.237  56.040  1.00  0.00     0.026 A 
HETATM   15  C   UNL     1      30.813  44.094  55.837  1.00  0.00     0.002 A 
HETATM   16  C   UNL     1      30.473  43.205  54.820  1.00  0.00     0.003 A 
HETATM   17  C   UNL     1      29.363  43.451  54.005  1.00  0.00     0.038 A 
ENDBRANCH  10  11
ENDBRANCH   8  10
ENDBRANCH   7   8
ENDBRANCH   3   7
BRANCH   1  18
HETATM   18  C   UNL     1      25.380  47.946  49.801  1.00  0.00     0.059 A 
HETATM   19  C   UNL     1      24.511  48.755  49.053  1.00  0.00    -0.032 A 
HETATM   20  C   UNL     1      23.020  48.589  48.996  1.00  0.00     0.050 C 
HETATM   21  C   UNL     1      25.068  49.796  48.288  1.00  0.00     0.028 A 
HETATM   22  C   UNL     1      26.444  49.954  48.241  1.00  0.00     0.117 A 
HETATM   23  N   UNL     1      27.306  49.157  48.897  1.00  0.00    -0.271 NA
HETATM   24  C   UNL     1      26.753  48.183  49.657  1.00  0.00     0.146 A 
ENDBRANCH   1  18
TORSDOF 5
ENDMDL
MODEL 2
REMARK VINA RESULT:      -8.1      1.694      2.199
REMARK  5 active torsions:
REMARK  status: ('A' for Active; 'I' for Inactive)
REMARK    1  A    between atoms: C_3  and  N_4 
REMARK       I    between atoms: N_4  and  C_5 
REMARK       I    between atoms: C_5  and  N_6 
REMARK    2  A    between atoms: N_6  and  C_7 
REMARK    3  A    between atoms: C_7  and  C_8 
REMARK    4  A    between atoms: C_8  and  O_9 
REMARK    5  A    between atoms: O_9  and  C_10 
ROOT
HETATM    1  N   UNL     1      26.132  46.959  51.008  1.00  0.00    -0.307 N 
HETATM    2  C   UNL     1      25.870  46.930  52.344  1.00  0.00     0.320 C 
HETATM    3  N   UNL     1      26.424  45.881  53.020  1.00  0.00    -0.340 N 
HETATM    4  O   UNL     1      25.246  47.770  52.982  1.00  0.00    -0.247 OA
HETATM    5  H   UNL     1      27.095  46.700  50.833  1.00  0.00     0.170 HD
HETATM    6  H   UNL     1      26.196  45.967  54.003  1.00  0.00     0.164 HD
ENDROOT
BRANCH   3   7
HETATM    7  C   UNL     1      26.629  44.507  52.557  1.00  0.00     0.156 C 
BRANCH   7   8
HETATM    8  C   UNL     1      27.696  43.651  53.272  1.00  0.00     0.142 C 
HETATM    9  C   UNL     1      27.116  43.111  54.580  1.00  0.00     0.042 C 
BRANCH   8  10
HETATM   10  O   UNL     1      28.822  44.492  53.546  1.00  0.00    -0.343 OA
BRANCH  10  11
HETATM   11  C   UNL     1      29.558  44.322  54.687  1.00  0.00     0.091 A 
HETATM   12  C   UNL     1      29.514  45.371  55.622  1.00  0.00     0.067 A 
HETATM   13 CL   UNL     1      28.555  46.783  55.342  1.00  0.00    -0.081 Cl
HETATM   14  C   UNL     1      30.238  45.299  56.815  1.00  0.00     0.026 A 
HETATM   15  C   UNL     1      31.022  44.181  57.084  1.00  0.00     0.002 A 
HETATM   16  C   UNL     1      31.083  43.140  56.160  1.00  0.00     0.003 A 
HETATM   17  C   UNL     1      30.356  43.209  54.966  1.00  0.00     0.038 A 
ENDBRANCH  10  11
ENDBRANCH   8  10
ENDBRANCH   7   8
ENDBRANCH   3   7
BRANCH   1  18
HETATM   18  C   UNL     1      25.547  47.817  50.047  1.00  0.00     0.059 A 
HETATM   19  C   UNL     1      26.227  48.746  49.244  1.00  0.00    -0.032 A 
HETATM   20  C   UNL     1      27.706  49.003  49.294  1.00  0.00     0.050 C 
HETATM   21  C   UNL     1      25.478  49.504  48.326  1.00  0.00     0.028 A 
HETATM   22  C   UNL     1      24.100  49.365  48.284  1.00  0.00     0.117 A 
HETATM   23  N   UNL     1      23.412  48.530  49.084  1.00  0.00    -0.271 NA
HETATM   24  C   UNL     1      24.152  47.781  49.935  1.00  0.00     0.146 A 
ENDBRANCH   1  18
TORSDOF 5
ENDMDL
MODEL 3
REMARK VINA RESULT:      -8.0      2.559      7.809
REMARK  5 active torsions:
REMARK  status: ('A' for Active; 'I' for Inactive)
REMARK    1  A    between atoms: C_3  and  N_4 
REMARK       I    between atoms: N_4  and  C_5 
REMARK       I    between atoms: C_5  and  N_6 
REMARK    2  A    between atoms: N_6  and  C_7 
REMARK    3  A    between atoms: C_7  and  C_8 
REMARK    4  A    between atoms: C_8  and  O_9 
REMARK    5  A    between atoms: O_9  and  C_10 
ROOT
HETATM    1  N   UNL     1      27.648  44.828  53.652  1.00  0.00    -0.307 N 
HETATM    2  C   UNL     1      26.355  44.508  53.938  1.00  0.00     0.320 C 
HETATM    3  N   UNL     1      25.431  44.994  53.059  1.00  0.00    -0.340 N 
HETATM    4  O   UNL     1      25.968  43.797  54.857  1.00  0.00    -0.247 OA
HETATM    5  H   UNL     1      27.816  44.758  52.656  1.00  0.00     0.170 HD
HETATM    6  H   UNL     1      24.511  44.678  53.341  1.00  0.00     0.164 HD
ENDROOT
BRANCH   3   7
HETATM    7  C   UNL     1      25.445  46.266  52.334  1.00  0.00     0.156 C 
BRANCH   7   8
HETATM    8  C   UNL     1      25.461  46.224  50.790  1.00  0.00     0.142 C 
HETATM    9  C   UNL     1      26.391  45.101  50.326  1.00  0.00     0.042 C 
BRANCH   8  10
HETATM   10  O   UNL     1      25.946  47.487  50.322  1.00  0.00    -0.343 OA
BRANCH  10  11
HETATM   11  C   UNL     1      25.167  48.283  49.528  1.00  0.00     0.091 A 
HETATM   12  C   UNL     1      25.831  49.295  48.814  1.00  0.00     0.067 A 
HETATM   13 CL   UNL     1      27.546  49.495  48.923  1.00  0.00    -0.081 Cl
HETATM   14  C   UNL     1      25.124  50.168  47.982  1.00  0.00     0.026 A 
HETATM   15  C   UNL     1      23.742  50.045  47.862  1.00  0.00     0.002 A 
HETATM   16  C   UNL     1      23.072  49.053  48.574  1.00  0.00     0.003 A 
HETATM   17  C   UNL     1      23.779  48.176  49.404  1.00  0.00     0.038 A 
ENDBRANCH  10  11
ENDBRANCH   8  10
ENDBRANCH   7   8
ENDBRANCH   3   7
BRANCH   1  18
HETATM   18  C   UNL     1      28.777  44.614  54.477  1.00  0.00     0.059 A 
HETATM   19  C   UNL     1      29.624  43.496  54.446  1.00  0.00    -0.032 A 
HETATM   20  C   UNL     1      29.451  42.313  53.536  1.00  0.00     0.050 C 
HETATM   21  C   UNL     1      30.715  43.465  55.334  1.00  0.00     0.028 A 
HETATM   22  C   UNL     1      30.886  44.492  56.248  1.00  0.00     0.117 A 
HETATM   23  N   UNL     1      30.056  45.546  56.345  1.00  0.00    -0.271 NA
HETATM   24  C   UNL     1      29.033  45.579  55.459  1.00  0.00     0.146 A 
ENDBRANCH   1  18
TORSDOF 5
ENDMDL
MODEL 4
REMARK VINA RESULT:      -7.9      1.717      2.464
REMARK  5 active torsions:
REMARK  status: ('A' for Active; 'I' for Inactive)
REMARK    1  A    between atoms: C_3  and  N_4 
REMARK       I    between atoms: N_4  and  C_5 
REMARK       I    between atoms: C_5  and  N_6 
REMARK    2  A    between atoms: N_6  and  C_7 
REMARK    3  A    between atoms: C_7  and  C_8 
REMARK    4  A    between atoms: C_8  and  O_9 
REMARK    5  A    between atoms: O_9  and  C_10 
ROOT
HETATM    1  N   UNL     1      24.280  46.832  50.482  1.00  0.00    -0.307 N 
HETATM    2  C   UNL     1      24.467  45.531  50.121  1.00  0.00     0.320 C 
HETATM    3  N   UNL     1      24.597  44.655  51.159  1.00  0.00    -0.340 N 
HETATM    4  O   UNL     1      24.470  45.088  48.979  1.00  0.00    -0.247 OA
HETATM    5  H   UNL     1      23.649  46.890  51.272  1.00  0.00     0.170 HD
HETATM    6  H   UNL     1      24.700  43.719  50.787  1.00  0.00     0.164 HD
ENDROOT
BRANCH   3   7
HETATM    7  C   UNL     1      25.237  44.872  52.458  1.00  0.00     0.156 C 
BRANCH   7   8
HETATM    8  C   UNL     1      26.769  44.700  52.552  1.00  0.00     0.142 C 
HETATM    9  C   UNL     1      27.270  43.959  51.311  1.00  0.00     0.042 C 
BRANCH   8  10
HETATM   10  O   UNL     1      27.053  43.933  53.727  1.00  0.00    -0.343 OA
BRANCH  10  11
HETATM   11  C   UNL     1      28.207  44.139  54.432  1.00  0.00     0.091 A 
HETATM   12  C   UNL     1      29.126  43.074  54.452  1.00  0.00     0.067 A 
HETATM   13 CL   UNL     1      28.809  41.598  53.606  1.00  0.00    -0.081 Cl
HETATM   14  C   UNL     1      30.331  43.180  55.151  1.00  0.00     0.026 A 
HETATM   15  C   UNL     1      30.630  44.348  55.846  1.00  0.00     0.002 A 
HETATM   16  C   UNL     1      29.723  45.405  55.842  1.00  0.00     0.003 A 
HETATM   17  C   UNL     1      28.517  45.303  55.140  1.00  0.00     0.038 A 
ENDBRANCH  10  11
ENDBRANCH   8  10
ENDBRANCH   7   8
ENDBRANCH   3   7
BRANCH   1  18
HETATM   18  C   UNL     1      24.294  47.960  49.630  1.00  0.00     0.059 A 
HETATM   19  C   UNL     1      25.432  48.671  49.217  1.00  0.00    -0.032 A 
HETATM   20  C   UNL     1      26.839  48.362  49.642  1.00  0.00     0.050 C 
HETATM   21  C   UNL     1      25.252  49.762  48.347  1.00  0.00     0.028 A 
HETATM   22  C   UNL     1      23.972  50.142  47.977  1.00  0.00     0.117 A 
HETATM   23  N   UNL     1      22.859  49.521  48.405  1.00  0.00    -0.271 NA
HETATM   24  C   UNL     1      23.051  48.450  49.212  1.00  0.00     0.146 A 
ENDBRANCH   1  18
TORSDOF 5
ENDMDL
MODEL 5
REMARK VINA RESULT:      -7.9      1.066      1.704
REMARK  5 active torsions:
REMARK  status: ('A' for Active; 'I' for Inactive)
REMARK    1  A    between atoms: C_3  and  N_4 
REMARK       I    between atoms: N_4  and  C_5 
REMARK       I    between atoms: C_5  and  N_6 
REMARK    2  A    between atoms: N_6  and  C_7 
REMARK    3  A    between atoms: C_7  and  C_8 
REMARK    4  A    between atoms: C_8  and  O_9 
REMARK    5  A    between atoms: O_9  and  C_10 
ROOT
HETATM    1  N   UNL     1      25.307  46.642  50.374  1.00  0.00    -0.307 N 
HETATM    2  C   UNL     1      24.937  45.386  49.998  1.00  0.00     0.320 C 
HETATM    3  N   UNL     1      25.441  44.379  50.769  1.00  0.00    -0.340 N 
HETATM    4  O   UNL     1      24.168  45.096  49.089  1.00  0.00    -0.247 OA
HETATM    5  H   UNL     1      25.292  46.725  51.383  1.00  0.00     0.170 HD
HETATM    6  H   UNL     1      25.085  43.494  50.427  1.00  0.00     0.164 HD
ENDROOT
BRANCH   3   7
HETATM    7  C   UNL     1      26.749  44.301  51.423  1.00  0.00     0.156 C 
BRANCH   7   8
HETATM    8  C   UNL     1      26.786  44.068  52.949  1.00  0.00     0.142 C 
HETATM    9  C   UNL     1      25.387  44.288  53.527  1.00  0.00     0.042 C 
BRANCH   8  10
HETATM   10  O   UNL     1      27.703  45.011  53.514  1.00  0.00    -0.343 OA
BRANCH  10  11
HETATM   11  C   UNL     1      28.751  44.588  54.285  1.00  0.00     0.091 A 
HETATM   12  C   UNL     1      29.092  45.404  55.378  1.00  0.00     0.067 A 
HETATM   13 CL   UNL     1      28.208  46.848  55.732  1.00  0.00    -0.081 Cl
HETATM   14  C   UNL     1      30.154  45.065  56.222  1.00  0.00     0.026 A 
HETATM   15  C   UNL     1      30.894  43.911  55.978  1.00  0.00     0.002 A 
HETATM   16  C   UNL     1      30.572  43.102  54.891  1.00  0.00     0.003 A 
HETATM   17  C   UNL     1      29.507  43.437  54.047  1.00  0.00     0.038 A 
ENDBRANCH  10  11
ENDBRANCH   8  10
ENDBRANCH   7   8
ENDBRANCH   3   7
BRANCH   1  18
HETATM   18  C   UNL     1      25.082  47.842  49.661  1.00  0.00     0.059 A 
HETATM   19  C   UNL     1      26.069  48.675  49.110  1.00  0.00    -0.032 A 
HETATM   20  C   UNL     1      27.548  48.438  49.214  1.00  0.00     0.050 C 
HETATM   21  C   UNL     1      25.653  49.825  48.414  1.00  0.00     0.028 A 
HETATM   22  C   UNL     1      24.305  50.138  48.346  1.00  0.00     0.117 A 
HETATM   23  N   UNL     1      23.341  49.395  48.917  1.00  0.00    -0.271 NA
HETATM   24  C   UNL     1      23.754  48.272  49.551  1.00  0.00     0.146 A 
ENDBRANCH   1  18
TORSDOF 5
ENDMDL
MODEL 6
REMARK VINA RESULT:      -7.7      3.903      5.019
REMARK  5 active torsions:
REMARK  status: ('A' for Active; 'I' for Inactive)
REMARK    1  A    between atoms: C_3  and  N_4 
REMARK       I    between atoms: N_4  and  C_5 
REMARK       I    between atoms: C_5  and  N_6 
REMARK    2  A    between atoms: N_6  and  C_7 
REMARK    3  A    between atoms: C_7  and  C_8 
REMARK    4  A    between atoms: C_8  and  O_9 
REMARK    5  A    between atoms: O_9  and  C_10 
ROOT
HETATM    1  N   UNL     1      25.946  42.645  51.362  1.00  0.00    -0.307 N 
HETATM    2  C   UNL     1      26.860  43.651  51.261  1.00  0.00     0.320 C 
HETATM    3  N   UNL     1      27.496  43.974  52.424  1.00  0.00    -0.340 N 
HETATM    4  O   UNL     1      27.190  44.233  50.235  1.00  0.00    -0.247 OA
HETATM    5  H   UNL     1      26.298  41.911  51.964  1.00  0.00     0.170 HD
HETATM    6  H   UNL     1      28.171  44.706  52.238  1.00  0.00     0.164 HD
ENDROOT
BRANCH   3   7
HETATM    7  C   UNL     1      26.959  43.970  53.787  1.00  0.00     0.156 C 
BRANCH   7   8
HETATM    8  C   UNL     1      27.385  45.108  54.740  1.00  0.00     0.142 C 
HETATM    9  C   UNL     1      26.675  46.400  54.331  1.00  0.00     0.042 C 
BRANCH   8  10
HETATM   10  O   UNL     1      28.803  45.271  54.622  1.00  0.00    -0.343 OA
BRANCH  10  11
HETATM   11  C   UNL     1      29.628  44.976  55.672  1.00  0.00     0.091 A 
HETATM   12  C   UNL     1      30.470  43.862  55.512  1.00  0.00     0.067 A 
HETATM   13 CL   UNL     1      30.469  42.938  54.049  1.00  0.00    -0.081 Cl
HETATM   14  C   UNL     1      31.344  43.471  56.530  1.00  0.00     0.026 A 
HETATM   15  C   UNL     1      31.381  44.184  57.725  1.00  0.00     0.002 A 
HETATM   16  C   UNL     1      30.543  45.283  57.899  1.00  0.00     0.003 A 
HETATM   17  C   UNL     1      29.670  45.678  56.880  1.00  0.00     0.038 A 
ENDBRANCH  10  11
ENDBRANCH   8  10
ENDBRANCH   7   8
ENDBRANCH   3   7
BRANCH   1  18
HETATM   18  C   UNL     1      25.026  42.233  50.371  1.00  0.00     0.059 A 
HETATM   19  C   UNL     1      25.288  41.344  49.317  1.00  0.00    -0.032 A 
HETATM   20  C   UNL     1      26.618  40.699  49.049  1.00  0.00     0.050 C 
HETATM   21  C   UNL     1      24.238  41.035  48.433  1.00  0.00     0.028 A 
HETATM   22  C   UNL     1      23.008  41.655  48.584  1.00  0.00     0.117 A 
HETATM   23  N   UNL     1      22.744  42.558  49.545  1.00  0.00    -0.271 NA
HETATM   24  C   UNL     1      23.754  42.816  50.410  1.00  0.00     0.146 A 
ENDBRANCH   1  18
TORSDOF 5
ENDMDL
MODEL 7
REMARK VINA RESULT:      -7.6      2.876      4.301
REMARK  5 active torsions:
REMARK  status: ('A' for Active; 'I' for Inactive)
REMARK    1  A    between atoms: C_3  and  N_4 
REMARK       I    between atoms: N_4  and  C_5 
REMARK       I    between atoms: C_5  and  N_6 
REMARK    2  A    between atoms: N_6  and  C_7 
REMARK    3  A    between atoms: C_7  and  C_8 
REMARK    4  A    between atoms: C_8  and  O_9 
REMARK    5  A    between atoms: O_9  and  C_10 
ROOT
HETATM    1  N   UNL     1      22.066  48.442  49.580  1.00  0.00    -0.307 N 
HETATM    2  C   UNL     1      22.720  47.624  48.709  1.00  0.00     0.320 C 
HETATM    3  N   UNL     1      23.702  46.854  49.264  1.00  0.00    -0.340 N 
HETATM    4  O   UNL     1      22.472  47.483  47.518  1.00  0.00    -0.247 OA
HETATM    5  H   UNL     1      21.894  47.959  50.454  1.00  0.00     0.170 HD
HETATM    6  H   UNL     1      24.103  46.265  48.545  1.00  0.00     0.164 HD
ENDROOT
BRANCH   3   7
HETATM    7  C   UNL     1      24.615  47.193  50.358  1.00  0.00     0.156 C 
BRANCH   7   8
HETATM    8  C   UNL     1      25.783  46.228  50.655  1.00  0.00     0.142 C 
HETATM    9  C   UNL     1      25.848  45.162  49.559  1.00  0.00     0.042 C 
BRANCH   8  10
HETATM   10  O   UNL     1      25.533  45.612  51.923  1.00  0.00    -0.343 OA
BRANCH  10  11
HETATM   11  C   UNL     1      26.568  45.264  52.746  1.00  0.00     0.091 A 
HETATM   12  C   UNL     1      26.836  46.135  53.816  1.00  0.00     0.067 A 
HETATM   13 CL   UNL     1      25.882  47.554  54.080  1.00  0.00    -0.081 Cl
HETATM   14  C   UNL     1      27.879  45.875  54.709  1.00  0.00     0.026 A 
HETATM   15  C   UNL     1      28.673  44.744  54.537  1.00  0.00     0.002 A 
HETATM   16  C   UNL     1      28.424  43.880  53.474  1.00  0.00     0.003 A 
HETATM   17  C   UNL     1      27.378  44.138  52.581  1.00  0.00     0.038 A 
ENDBRANCH  10  11
ENDBRANCH   8  10
ENDBRANCH   7   8
ENDBRANCH   3   7
BRANCH   1  18
HETATM   18  C   UNL     1      21.142  49.461  49.255  1.00  0.00     0.059 A 
HETATM   19  C   UNL     1      21.456  50.730  48.744  1.00  0.00    -0.032 A 
HETATM   20  C   UNL     1      22.847  51.230  48.481  1.00  0.00     0.050 C 
HETATM   21  C   UNL     1      20.396  51.612  48.461  1.00  0.00     0.028 A 
HETATM   22  C   UNL     1      19.094  51.237  48.751  1.00  0.00     0.117 A 
HETATM   23  N   UNL     1      18.767  50.054  49.300  1.00  0.00    -0.271 NA
HETATM   24  C   UNL     1      19.794  49.202  49.531  1.00  0.00     0.146 A 
ENDBRANCH   1  18
TORSDOF 5
ENDMDL
MODEL 8
REMARK VINA RESULT:      -7.5      4.113      9.215
REMARK  5 active torsions:
REMARK  status: ('A' for Active; 'I' for Inactive)
REMARK    1  A    between atoms: C_3  and  N_4 
REMARK       I    between atoms: N_4  and  C_5 
REMARK       I    between atoms: C_5  and  N_6 
REMARK    2  A    between atoms: N_6  and  C_7 
REMARK    3  A    between atoms: C_7  and  C_8 
REMARK    4  A    between atoms: C_8  and  O_9 
REMARK    5  A    between atoms: O_9  and  C_10 
ROOT
HETATM    1  N   UNL     1      24.317  46.234  50.392  1.00  0.00    -0.307 N 
HETATM    2  C   UNL     1      24.391  47.565  50.113  1.00  0.00     0.320 C 
HETATM    3  N   UNL     1      23.222  48.136  49.700  1.00  0.00    -0.340 N 
HETATM    4  O   UNL     1      25.374  48.283  50.250  1.00  0.00    -0.247 OA
HETATM    5  H   UNL     1      23.455  46.025  50.882  1.00  0.00     0.170 HD
HETATM    6  H   UNL     1      23.375  49.125  49.548  1.00  0.00     0.164 HD
ENDROOT
BRANCH   3   7
HETATM    7  C   UNL     1      22.162  47.548  48.879  1.00  0.00     0.156 C 
BRANCH   7   8
HETATM    8  C   UNL     1      20.799  48.271  48.823  1.00  0.00     0.142 C 
HETATM    9  C   UNL     1      20.393  48.468  47.361  1.00  0.00     0.042 C 
BRANCH   8  10
HETATM   10  O   UNL     1      20.950  49.542  49.464  1.00  0.00    -0.343 OA
BRANCH  10  11
HETATM   11  C   UNL     1      20.001  50.516  49.314  1.00  0.00     0.091 A 
HETATM   12  C   UNL     1      18.838  50.382  50.094  1.00  0.00     0.067 A 
HETATM   13 CL   UNL     1      18.644  49.063  51.197  1.00  0.00    -0.081 Cl
HETATM   14  C   UNL     1      17.805  51.318  50.007  1.00  0.00     0.026 A 
HETATM   15  C   UNL     1      17.917  52.397  49.133  1.00  0.00     0.002 A 
HETATM   16  C   UNL     1      19.059  52.534  48.349  1.00  0.00     0.003 A 
HETATM   17  C   UNL     1      20.097  51.599  48.436  1.00  0.00     0.038 A 
ENDBRANCH  10  11
ENDBRANCH   8  10
ENDBRANCH   7   8
ENDBRANCH   3   7
BRANCH   1  18
HETATM   18  C   UNL     1      25.397  45.362  50.663  1.00  0.00     0.059 A 
HETATM   19  C   UNL     1      26.004  45.159  51.912  1.00  0.00    -0.032 A 
HETATM   20  C   UNL     1      25.617  45.866  53.179  1.00  0.00     0.050 C 
HETATM   21  C   UNL     1      27.060  44.233  51.993  1.00  0.00     0.028 A 
HETATM   22  C   UNL     1      27.512  43.603  50.844  1.00  0.00     0.117 A 
HETATM   23  N   UNL     1      26.993  43.823  49.624  1.00  0.00    -0.271 NA
HETATM   24  C   UNL     1      25.953  44.689  49.568  1.00  0.00     0.146 A 
ENDBRANCH   1  18
TORSDOF 5
ENDMDL
MODEL 9
REMARK VINA RESULT:      -7.4     11.427     13.792
REMARK  5 active torsions:
REMARK  status: ('A' for Active; 'I' for Inactive)
REMARK    1  A    between atoms: C_3  and  N_4 
REMARK       I    between atoms: N_4  and  C_5 
REMARK       I    between atoms: C_5  and  N_6 
REMARK    2  A    between atoms: N_6  and  C_7 
REMARK    3  A    between atoms: C_7  and  C_8 
REMARK    4  A    between atoms: C_8  and  O_9 
REMARK    5  A    between atoms: O_9  and  C_10 
ROOT
HETATM    1  N   UNL     1      31.845  49.144  41.589  1.00  0.00    -0.307 N 
HETATM    2  C   UNL     1      32.900  48.302  41.395  1.00  0.00     0.320 C 
HETATM    3  N   UNL     1      34.120  48.821  41.718  1.00  0.00    -0.340 N 
HETATM    4  O   UNL     1      32.841  47.137  41.022  1.00  0.00    -0.247 OA
HETATM    5  H   UNL     1      31.961  49.659  42.453  1.00  0.00     0.170 HD
HETATM    6  H   UNL     1      34.828  48.112  41.568  1.00  0.00     0.164 HD
ENDROOT
BRANCH   3   7
HETATM    7  C   UNL     1      34.592  50.199  41.567  1.00  0.00     0.156 C 
BRANCH   7   8
HETATM    8  C   UNL     1      33.932  51.080  40.483  1.00  0.00     0.142 C 
HETATM    9  C   UNL     1      35.008  51.581  39.518  1.00  0.00     0.042 C 
BRANCH   8  10
HETATM   10  O   UNL     1      33.309  52.189  41.140  1.00  0.00    -0.343 OA
BRANCH  10  11
HETATM   11  C   UNL     1      31.960  52.391  41.037  1.00  0.00     0.091 A 
HETATM   12  C   UNL     1      31.224  52.316  42.233  1.00  0.00     0.067 A 
HETATM   13 CL   UNL     1      32.000  52.009  43.748  1.00  0.00    -0.081 Cl
HETATM   14  C   UNL     1      29.838  52.499  42.234  1.00  0.00     0.026 A 
HETATM   15  C   UNL     1      29.170  52.749  41.039  1.00  0.00     0.002 A 
HETATM   16  C   UNL     1      29.887  52.814  39.847  1.00  0.00     0.003 A 
HETATM   17  C   UNL     1      31.275  52.635  39.844  1.00  0.00     0.038 A 
ENDBRANCH  10  11
ENDBRANCH   8  10
ENDBRANCH   7   8
ENDBRANCH   3   7
BRANCH   1  18
HETATM   18  C   UNL     1      30.508  48.936  41.177  1.00  0.00     0.059 A 
HETATM   19  C   UNL     1      30.028  49.006  39.860  1.00  0.00    -0.032 A 
HETATM   20  C   UNL     1      30.862  49.345  38.659  1.00  0.00     0.050 C 
HETATM   21  C   UNL     1      28.662  48.750  39.639  1.00  0.00     0.028 A 
HETATM   22  C   UNL     1      27.825  48.504  40.715  1.00  0.00     0.117 A 
HETATM   23  N   UNL     1      28.243  48.493  41.993  1.00  0.00    -0.271 NA
HETATM   24  C   UNL     1      29.566  48.704  42.187  1.00  0.00     0.146 A 
ENDBRANCH   1  18
TORSDOF 5
ENDMDL
MODEL 10
REMARK VINA RESULT:      -7.3     11.655     14.129
REMARK  5 active torsions:
REMARK  status: ('A' for Active; 'I' for Inactive)
REMARK    1  A    between atoms: C_3  and  N_4 
REMARK       I    between atoms: N_4  and  C_5 
REMARK       I    between atoms: C_5  and  N_6 
REMARK    2  A    between atoms: N_6  and  C_7 
REMARK    3  A    between atoms: C_7  and  C_8 
REMARK    4  A    between atoms: C_8  and  O_9 
REMARK    5  A    between atoms: O_9  and  C_10 
ROOT
HETATM    1  N   UNL     1      30.479  50.070  42.028  1.00  0.00    -0.307 N 
HETATM    2  C   UNL     1      31.445  49.457  42.768  1.00  0.00     0.320 C 
HETATM    3  N   UNL     1      32.403  50.288  43.272  1.00  0.00    -0.340 N 
HETATM    4  O   UNL     1      31.495  48.267  43.056  1.00  0.00    -0.247 OA
HETATM    5  H   UNL     1      30.209  50.946  42.460  1.00  0.00     0.170 HD
HETATM    6  H   UNL     1      33.052  49.743  43.827  1.00  0.00     0.164 HD
ENDROOT
BRANCH   3   7
HETATM    7  C   UNL     1      32.977  51.490  42.664  1.00  0.00     0.156 C 
BRANCH   7   8
HETATM    8  C   UNL     1      33.345  51.443  41.165  1.00  0.00     0.142 C 
HETATM    9  C   UNL     1      34.868  51.432  41.020  1.00  0.00     0.042 C 
BRANCH   8  10
HETATM   10  O   UNL     1      32.803  52.613  40.543  1.00  0.00    -0.343 OA
BRANCH  10  11
HETATM   11  C   UNL     1      31.496  52.646  40.140  1.00  0.00     0.091 A 
HETATM   12  C   UNL     1      31.200  52.008  38.923  1.00  0.00     0.067 A 
HETATM   13 CL   UNL     1      32.430  51.206  38.007  1.00  0.00    -0.081 Cl
HETATM   14  C   UNL     1      29.897  51.993  38.419  1.00  0.00     0.026 A 
HETATM   15  C   UNL     1      28.874  52.624  39.122  1.00  0.00     0.002 A 
HETATM   16  C   UNL     1      29.157  53.269  40.323  1.00  0.00     0.003 A 
HETATM   17  C   UNL     1      30.461  53.282  40.831  1.00  0.00     0.038 A 
ENDBRANCH  10  11
ENDBRANCH   8  10
ENDBRANCH   7   8
ENDBRANCH   3   7
BRANCH   1  18
HETATM   18  C   UNL     1      29.481  49.442  41.248  1.00  0.00     0.059 A 
HETATM   19  C   UNL     1      29.697  48.649  40.111  1.00  0.00    -0.032 A 
HETATM   20  C   UNL     1      31.042  48.356  39.511  1.00  0.00     0.050 C 
HETATM   21  C   UNL     1      28.576  48.088  39.471  1.00  0.00     0.028 A 
HETATM   22  C   UNL     1      27.303  48.381  39.933  1.00  0.00     0.117 A 
HETATM   23  N   UNL     1      27.060  49.188  40.981  1.00  0.00    -0.271 NA
HETATM   24  C   UNL     1      28.150  49.689  41.608  1.00  0.00     0.146 A 
ENDBRANCH   1  18
TORSDOF 5
ENDMDL
