MODEL 1
REMARK VINA RESULT:     -10.9      0.000      0.000
REMARK  7 active torsions:
REMARK  status: ('A' for Active; 'I' for Inactive)
REMARK    1  A    between atoms: C_6  and  N_7 
REMARK       I    between atoms: N_7  and  C_8 
REMARK    2  A    between atoms: C_8  and  C_9 
REMARK    3  A    between atoms: C_9  and  N_10 
REMARK    4  A    between atoms: N_13  and  C_14 
REMARK    5  A    between atoms: C_14  and  C_15 
REMARK    6  A    between atoms: C_30  and  C_31 
REMARK       I    between atoms: C_31  and  N_32 
REMARK    7  A    between atoms: N_32  and  C_33 
ROOT
HETATM    1  N   UNL     1      24.428  44.077  50.367  1.00  0.00    -0.290 N 
HETATM    2  C   UNL     1      24.754  42.780  50.004  1.00  0.00     0.332 C 
HETATM    3  O   UNL     1      25.501  42.102  50.717  1.00  0.00    -0.246 OA
HETATM    4  N   UNL     1      24.203  42.297  48.829  1.00  0.00    -0.261 N 
HETATM    5  C   UNL     1      23.501  43.067  47.916  1.00  0.00     0.264 C 
HETATM    6  O   UNL     1      23.007  42.629  46.879  1.00  0.00    -0.267 OA
HETATM    7  C   UNL     1      23.339  44.495  48.238  1.00  0.00     0.059 A 
HETATM    8  C   UNL     1      23.791  44.972  49.469  1.00  0.00     0.056 A 
HETATM    9  C   UNL     1      22.696  45.342  47.322  1.00  0.00     0.020 A 
HETATM   10  C   UNL     1      22.492  46.686  47.633  1.00  0.00     0.018 A 
HETATM   11  C   UNL     1      22.933  47.178  48.864  1.00  0.00     0.034 A 
HETATM   12  C   UNL     1      23.598  46.328  49.765  1.00  0.00     0.048 A 
ENDROOT
BRANCH   1  13
HETATM   13  C   UNL     1      24.653  44.452  51.765  1.00  0.00     0.237 C 
BRANCH  13  14
HETATM   14  C   UNL     1      26.099  44.790  52.130  1.00  0.00     0.240 C 
HETATM   15  N   UNL     1      26.714  43.810  52.887  1.00  0.00    -0.325 N 
HETATM   16  H   UNL     1      26.221  42.919  52.944  1.00  0.00     0.169 HD
HETATM   17  O   UNL     1      26.578  45.874  51.807  1.00  0.00    -0.271 OA
BRANCH  15  18
HETATM   18  C   UNL     1      27.897  43.925  53.652  1.00  0.00     0.040 A 
HETATM   19  C   UNL     1      28.935  42.992  53.453  1.00  0.00    -0.035 A 
HETATM   20  C   UNL     1      30.065  43.023  54.293  1.00  0.00     0.015 A 
HETATM   21  C   UNL     1      28.879  41.945  52.372  1.00  0.00     0.050 C 
HETATM   22  C   UNL     1      30.186  43.975  55.311  1.00  0.00    -0.061 A 
HETATM   23  C   UNL     1      31.368  43.980  56.235  1.00  0.00     0.048 C 
HETATM   24  C   UNL     1      29.168  44.914  55.478  1.00  0.00     0.009 A 
HETATM   25  C   UNL     1      28.039  44.891  54.654  1.00  0.00     0.030 A 
ENDBRANCH  15  18
ENDBRANCH  13  14
ENDBRANCH   1  13
BRANCH   4  26
HETATM   26  C   UNL     1      24.303  40.862  48.585  1.00  0.00     0.175 C 
BRANCH  26  27
HETATM   27  C   UNL     1      25.757  40.434  48.479  1.00  0.00    -0.037 A 
HETATM   28  C   UNL     1      26.242  39.368  49.254  1.00  0.00     0.048 A 
HETATM   29  C   UNL     1      27.593  39.090  49.204  1.00  0.00     0.105 A 
HETATM   30  C   UNL     1      28.455  39.815  48.415  1.00  0.00     0.105 A 
HETATM   31  O   UNL     1      28.232  38.122  49.914  1.00  0.00    -0.323 OA
HETATM   32  O   UNL     1      29.742  39.395  48.529  1.00  0.00    -0.323 OA
HETATM   33  C   UNL     1      28.016  40.855  47.626  1.00  0.00     0.040 A 
HETATM   34  C   UNL     1      29.597  38.335  49.497  1.00  0.00     0.352 A 
HETATM   35  C   UNL     1      26.653  41.166  47.663  1.00  0.00     0.012 A 
ENDBRANCH  26  27
ENDBRANCH   4  26
BRANCH  11  36
HETATM   36  C   UNL     1      22.739  48.600  49.260  1.00  0.00     0.252 C 
HETATM   37  N   UNL     1      21.437  49.039  49.305  1.00  0.00    -0.352 N 
HETATM   38  H   UNL     1      20.712  48.343  49.202  1.00  0.00     0.163 HD
HETATM   39  O   UNL     1      23.721  49.262  49.559  1.00  0.00    -0.268 OA
BRANCH  37  40
HETATM   40  C   UNL     1      20.981  50.334  49.817  1.00  0.00     0.084 C 
HETATM   41  C   UNL     1      21.015  51.441  48.755  1.00  0.00     0.025 C 
HETATM   42  C   UNL     1      19.715  51.611  47.976  1.00  0.00     0.002 C 
HETATM   43  C   UNL     1      18.520  51.752  48.910  1.00  0.00     0.000 C 
HETATM   44  C   UNL     1      18.394  50.566  49.857  1.00  0.00     0.002 C 
HETATM   45  C   UNL     1      19.680  50.288  50.633  1.00  0.00     0.025 C 
ENDBRANCH  37  40
ENDBRANCH  11  36
TORSDOF 7
ENDMDL
MODEL 2
REMARK VINA RESULT:     -10.8      2.302      9.721
REMARK  7 active torsions:
REMARK  status: ('A' for Active; 'I' for Inactive)
REMARK    1  A    between atoms: C_6  and  N_7 
REMARK       I    between atoms: N_7  and  C_8 
REMARK    2  A    between atoms: C_8  and  C_9 
REMARK    3  A    between atoms: C_9  and  N_10 
REMARK    4  A    between atoms: N_13  and  C_14 
REMARK    5  A    between atoms: C_14  and  C_15 
REMARK    6  A    between atoms: C_30  and  C_31 
REMARK       I    between atoms: C_31  and  N_32 
REMARK    7  A    between atoms: N_32  and  C_33 
ROOT
HETATM    1  N   UNL     1      22.966  45.397  49.262  1.00  0.00    -0.290 N 
HETATM    2  C   UNL     1      22.580  46.283  48.269  1.00  0.00     0.332 C 
HETATM    3  O   UNL     1      21.961  45.879  47.279  1.00  0.00    -0.246 OA
HETATM    4  N   UNL     1      22.912  47.615  48.447  1.00  0.00    -0.261 N 
HETATM    5  C   UNL     1      23.745  48.090  49.448  1.00  0.00     0.264 C 
HETATM    6  O   UNL     1      24.028  49.275  49.605  1.00  0.00    -0.267 OA
HETATM    7  C   UNL     1      24.301  47.091  50.377  1.00  0.00     0.059 A 
HETATM    8  C   UNL     1      23.887  45.762  50.278  1.00  0.00     0.056 A 
HETATM    9  C   UNL     1      25.204  47.499  51.372  1.00  0.00     0.020 A 
HETATM   10  C   UNL     1      25.702  46.574  52.289  1.00  0.00     0.018 A 
HETATM   11  C   UNL     1      25.293  45.240  52.207  1.00  0.00     0.034 A 
HETATM   12  C   UNL     1      24.407  44.836  51.192  1.00  0.00     0.048 A 
ENDROOT
BRANCH   1  13
HETATM   13  C   UNL     1      22.286  44.100  49.297  1.00  0.00     0.237 C 
BRANCH  13  14
HETATM   14  C   UNL     1      22.909  43.009  48.426  1.00  0.00     0.240 C 
HETATM   15  N   UNL     1      23.927  42.319  49.061  1.00  0.00    -0.325 N 
HETATM   16  H   UNL     1      24.009  42.475  50.065  1.00  0.00     0.169 HD
HETATM   17  O   UNL     1      22.539  42.861  47.265  1.00  0.00    -0.271 OA
BRANCH  15  18
HETATM   18  C   UNL     1      24.911  41.495  48.468  1.00  0.00     0.040 A 
HETATM   19  C   UNL     1      26.272  41.825  48.635  1.00  0.00    -0.035 A 
HETATM   20  C   UNL     1      27.253  41.083  47.949  1.00  0.00     0.015 A 
HETATM   21  C   UNL     1      26.722  42.957  49.519  1.00  0.00     0.050 C 
HETATM   22  C   UNL     1      26.904  40.013  47.118  1.00  0.00    -0.061 A 
HETATM   23  C   UNL     1      27.946  39.252  46.352  1.00  0.00     0.048 C 
HETATM   24  C   UNL     1      25.558  39.675  46.986  1.00  0.00     0.009 A 
HETATM   25  C   UNL     1      24.573  40.406  47.658  1.00  0.00     0.030 A 
ENDBRANCH  15  18
ENDBRANCH  13  14
ENDBRANCH   1  13
BRANCH   4  26
HETATM   26  C   UNL     1      22.273  48.587  47.567  1.00  0.00     0.175 C 
BRANCH  26  27
HETATM   27  C   UNL     1      21.043  49.185  48.228  1.00  0.00    -0.037 A 
HETATM   28  C   UNL     1      20.749  50.551  48.079  1.00  0.00     0.048 A 
HETATM   29  C   UNL     1      19.684  51.067  48.788  1.00  0.00     0.105 A 
HETATM   30  C   UNL     1      18.912  50.283  49.613  1.00  0.00     0.105 A 
HETATM   31  O   UNL     1      19.286  52.368  48.789  1.00  0.00    -0.323 OA
HETATM   32  O   UNL     1      17.932  50.990  50.235  1.00  0.00    -0.323 OA
HETATM   33  C   UNL     1      19.155  48.937  49.771  1.00  0.00     0.040 A 
HETATM   34  C   UNL     1      18.188  52.315  49.724  1.00  0.00     0.352 A 
HETATM   35  C   UNL     1      20.234  48.386  49.072  1.00  0.00     0.012 A 
ENDBRANCH  26  27
ENDBRANCH   4  26
BRANCH  11  36
HETATM   36  C   UNL     1      25.781  44.206  53.159  1.00  0.00     0.252 C 
HETATM   37  N   UNL     1      27.079  43.790  52.982  1.00  0.00    -0.352 N 
HETATM   38  H   UNL     1      27.642  44.305  52.319  1.00  0.00     0.163 HD
HETATM   39  O   UNL     1      25.032  43.831  54.048  1.00  0.00    -0.268 OA
BRANCH  37  40
HETATM   40  C   UNL     1      27.834  42.911  53.879  1.00  0.00     0.084 C 
HETATM   41  C   UNL     1      28.900  42.085  53.148  1.00  0.00     0.025 C 
HETATM   42  C   UNL     1      30.276  42.737  53.090  1.00  0.00     0.002 C 
HETATM   43  C   UNL     1      30.743  43.176  54.472  1.00  0.00     0.000 C 
HETATM   44  C   UNL     1      29.756  44.130  55.131  1.00  0.00     0.002 C 
HETATM   45  C   UNL     1      28.333  43.575  55.171  1.00  0.00     0.025 C 
ENDBRANCH  37  40
ENDBRANCH  11  36
TORSDOF 7
ENDMDL
MODEL 3
REMARK VINA RESULT:     -10.7      2.566      7.579
REMARK  7 active torsions:
REMARK  status: ('A' for Active; 'I' for Inactive)
REMARK    1  A    between atoms: C_6  and  N_7 
REMARK       I    between atoms: N_7  and  C_8 
REMARK    2  A    between atoms: C_8  and  C_9 
REMARK    3  A    between atoms: C_9  and  N_10 
REMARK    4  A    between atoms: N_13  and  C_14 
REMARK    5  A    between atoms: C_14  and  C_15 
REMARK    6  A    between atoms: C_30  and  C_31 
REMARK       I    between atoms: C_31  and  N_32 
REMARK    7  A    between atoms: N_32  and  C_33 
ROOT
HETATM    1  N   UNL     1      23.568  47.744  48.895  1.00  0.00    -0.290 N 
HETATM    2  C   UNL     1      24.612  47.409  49.741  1.00  0.00     0.332 C 
HETATM    3  O   UNL     1      25.572  48.173  49.881  1.00  0.00    -0.246 OA
HETATM    4  N   UNL     1      24.518  46.200  50.411  1.00  0.00    -0.261 N 
HETATM    5  C   UNL     1      23.551  45.238  50.163  1.00  0.00     0.264 C 
HETATM    6  O   UNL     1      23.468  44.172  50.768  1.00  0.00    -0.267 OA
HETATM    7  C   UNL     1      22.565  45.545  49.112  1.00  0.00     0.059 A 
HETATM    8  C   UNL     1      22.580  46.802  48.508  1.00  0.00     0.056 A 
HETATM    9  C   UNL     1      21.601  44.584  48.768  1.00  0.00     0.020 A 
HETATM   10  C   UNL     1      20.630  44.877  47.810  1.00  0.00     0.018 A 
HETATM   11  C   UNL     1      20.628  46.133  47.199  1.00  0.00     0.034 A 
HETATM   12  C   UNL     1      21.612  47.081  47.534  1.00  0.00     0.048 A 
ENDROOT
BRANCH   1  13
HETATM   13  C   UNL     1      23.450  49.153  48.512  1.00  0.00     0.237 C 
BRANCH  13  14
HETATM   14  C   UNL     1      22.413  49.962  49.292  1.00  0.00     0.240 C 
HETATM   15  N   UNL     1      21.126  49.806  48.811  1.00  0.00    -0.325 N 
HETATM   16  H   UNL     1      20.990  49.046  48.145  1.00  0.00     0.169 HD
HETATM   17  O   UNL     1      22.770  50.707  50.200  1.00  0.00    -0.271 OA
BRANCH  15  18
HETATM   18  C   UNL     1      20.003  50.625  49.070  1.00  0.00     0.040 A 
HETATM   19  C   UNL     1      18.913  50.087  49.786  1.00  0.00    -0.035 A 
HETATM   20  C   UNL     1      17.742  50.853  49.943  1.00  0.00     0.015 A 
HETATM   21  C   UNL     1      18.949  48.706  50.386  1.00  0.00     0.050 C 
HETATM   22  C   UNL     1      17.645  52.146  49.419  1.00  0.00    -0.061 A 
HETATM   23  C   UNL     1      16.381  52.944  49.547  1.00  0.00     0.048 C 
HETATM   24  C   UNL     1      18.740  52.680  48.741  1.00  0.00     0.009 A 
HETATM   25  C   UNL     1      19.907  51.929  48.574  1.00  0.00     0.030 A 
ENDBRANCH  15  18
ENDBRANCH  13  14
ENDBRANCH   1  13
BRANCH   4  26
HETATM   26  C   UNL     1      25.453  45.967  51.506  1.00  0.00     0.175 C 
BRANCH  26  27
HETATM   27  C   UNL     1      26.205  44.663  51.303  1.00  0.00    -0.037 A 
HETATM   28  C   UNL     1      26.487  44.199  50.007  1.00  0.00     0.048 A 
HETATM   29  C   UNL     1      27.072  42.957  49.875  1.00  0.00     0.105 A 
HETATM   30  C   UNL     1      27.390  42.184  50.967  1.00  0.00     0.105 A 
HETATM   31  O   UNL     1      27.378  42.344  48.700  1.00  0.00    -0.323 OA
HETATM   32  O   UNL     1      27.936  40.989  50.617  1.00  0.00    -0.323 OA
HETATM   33  C   UNL     1      27.147  42.610  52.253  1.00  0.00     0.040 A 
HETATM   34  C   UNL     1      27.906  41.089  49.178  1.00  0.00     0.352 A 
HETATM   35  C   UNL     1      26.546  43.862  52.419  1.00  0.00     0.012 A 
ENDBRANCH  26  27
ENDBRANCH   4  26
BRANCH  11  36
HETATM   36  C   UNL     1      19.616  46.511  46.175  1.00  0.00     0.252 C 
HETATM   37  N   UNL     1      18.640  47.387  46.590  1.00  0.00    -0.352 N 
HETATM   38  H   UNL     1      18.756  47.809  47.500  1.00  0.00     0.163 HD
HETATM   39  O   UNL     1      19.736  46.068  45.044  1.00  0.00    -0.268 OA
BRANCH  37  40
HETATM   40  C   UNL     1      17.638  48.029  45.735  1.00  0.00     0.084 C 
HETATM   41  C   UNL     1      16.223  47.966  46.325  1.00  0.00     0.025 C 
HETATM   42  C   UNL     1      15.843  49.165  47.186  1.00  0.00     0.002 C 
HETATM   43  C   UNL     1      16.101  50.478  46.460  1.00  0.00     0.000 C 
HETATM   44  C   UNL     1      17.551  50.609  46.017  1.00  0.00     0.002 C 
HETATM   45  C   UNL     1      18.032  49.412  45.198  1.00  0.00     0.025 C 
ENDBRANCH  37  40
ENDBRANCH  11  36
TORSDOF 7
ENDMDL
MODEL 4
REMARK VINA RESULT:     -10.6      2.954     10.997
REMARK  7 active torsions:
REMARK  status: ('A' for Active; 'I' for Inactive)
REMARK    1  A    between atoms: C_6  and  N_7 
REMARK       I    between atoms: N_7  and  C_8 
REMARK    2  A    between atoms: C_8  and  C_9 
REMARK    3  A    between atoms: C_9  and  N_10 
REMARK    4  A    between atoms: N_13  and  C_14 
REMARK    5  A    between atoms: C_14  and  C_15 
REMARK    6  A    between atoms: C_30  and  C_31 
REMARK       I    between atoms: C_31  and  N_32 
REMARK    7  A    between atoms: N_32  and  C_33 
ROOT
HETATM    1  N   UNL     1      22.527  46.551  48.680  1.00  0.00    -0.290 N 
HETATM    2  C   UNL     1      22.211  47.636  47.879  1.00  0.00     0.332 C 
HETATM    3  O   UNL     1      21.318  47.546  47.030  1.00  0.00    -0.246 OA
HETATM    4  N   UNL     1      22.930  48.802  48.083  1.00  0.00    -0.261 N 
HETATM    5  C   UNL     1      24.046  48.903  48.899  1.00  0.00     0.264 C 
HETATM    6  O   UNL     1      24.674  49.943  49.083  1.00  0.00    -0.267 OA
HETATM    7  C   UNL     1      24.476  47.675  49.590  1.00  0.00     0.059 A 
HETATM    8  C   UNL     1      23.697  46.523  49.482  1.00  0.00     0.056 A 
HETATM    9  C   UNL     1      25.637  47.696  50.379  1.00  0.00     0.020 A 
HETATM   10  C   UNL     1      26.031  46.556  51.077  1.00  0.00     0.018 A 
HETATM   11  C   UNL     1      25.259  45.395  50.984  1.00  0.00     0.034 A 
HETATM   12  C   UNL     1      24.111  45.376  50.172  1.00  0.00     0.048 A 
ENDROOT
BRANCH   1  13
HETATM   13  C   UNL     1      21.534  45.477  48.766  1.00  0.00     0.237 C 
BRANCH  13  14
HETATM   14  C   UNL     1      21.778  44.282  47.844  1.00  0.00     0.240 C 
HETATM   15  N   UNL     1      21.464  44.539  46.522  1.00  0.00    -0.325 N 
HETATM   16  H   UNL     1      21.303  45.518  46.287  1.00  0.00     0.169 HD
HETATM   17  O   UNL     1      22.150  43.210  48.313  1.00  0.00    -0.271 OA
BRANCH  15  18
HETATM   18  C   UNL     1      21.261  43.600  45.485  1.00  0.00     0.040 A 
HETATM   19  C   UNL     1      22.213  43.508  44.449  1.00  0.00    -0.035 A 
HETATM   20  C   UNL     1      21.961  42.666  43.349  1.00  0.00     0.015 A 
HETATM   21  C   UNL     1      23.499  44.292  44.466  1.00  0.00     0.050 C 
HETATM   22  C   UNL     1      20.791  41.903  43.273  1.00  0.00    -0.061 A 
HETATM   23  C   UNL     1      20.501  41.040  42.081  1.00  0.00     0.048 C 
HETATM   24  C   UNL     1      19.871  41.977  44.319  1.00  0.00     0.009 A 
HETATM   25  C   UNL     1      20.107  42.813  45.414  1.00  0.00     0.030 A 
ENDBRANCH  15  18
ENDBRANCH  13  14
ENDBRANCH   1  13
BRANCH   4  26
HETATM   26  C   UNL     1      22.424  50.018  47.457  1.00  0.00     0.175 C 
BRANCH  26  27
HETATM   27  C   UNL     1      21.171  50.506  48.163  1.00  0.00    -0.037 A 
HETATM   28  C   UNL     1      20.005  50.786  47.430  1.00  0.00     0.048 A 
HETATM   29  C   UNL     1      18.931  51.331  48.102  1.00  0.00     0.105 A 
HETATM   30  C   UNL     1      18.973  51.589  49.451  1.00  0.00     0.105 A 
HETATM   31  O   UNL     1      17.746  51.694  47.542  1.00  0.00    -0.323 OA
HETATM   32  O   UNL     1      17.821  52.146  49.910  1.00  0.00    -0.323 OA
HETATM   33  C   UNL     1      20.088  51.312  50.209  1.00  0.00     0.040 A 
HETATM   34  C   UNL     1      17.055  52.229  48.691  1.00  0.00     0.352 A 
HETATM   35  C   UNL     1      21.198  50.767  49.554  1.00  0.00     0.012 A 
ENDBRANCH  26  27
ENDBRANCH   4  26
BRANCH  11  36
HETATM   36  C   UNL     1      25.620  44.147  51.710  1.00  0.00     0.252 C 
HETATM   37  N   UNL     1      26.922  44.059  52.144  1.00  0.00    -0.352 N 
HETATM   38  H   UNL     1      27.493  44.889  52.061  1.00  0.00     0.163 HD
HETATM   39  O   UNL     1      24.749  43.316  51.913  1.00  0.00    -0.268 OA
BRANCH  37  40
HETATM   40  C   UNL     1      27.473  43.016  53.012  1.00  0.00     0.084 C 
HETATM   41  C   UNL     1      28.714  42.337  52.417  1.00  0.00     0.025 C 
HETATM   42  C   UNL     1      30.039  42.975  52.819  1.00  0.00     0.002 C 
HETATM   43  C   UNL     1      30.145  43.133  54.330  1.00  0.00     0.000 C 
HETATM   44  C   UNL     1      28.994  43.950  54.900  1.00  0.00     0.002 C 
HETATM   45  C   UNL     1      27.624  43.412  54.489  1.00  0.00     0.025 C 
ENDBRANCH  37  40
ENDBRANCH  11  36
TORSDOF 7
ENDMDL
MODEL 5
REMARK VINA RESULT:     -10.6      3.085      8.196
REMARK  7 active torsions:
REMARK  status: ('A' for Active; 'I' for Inactive)
REMARK    1  A    between atoms: C_6  and  N_7 
REMARK       I    between atoms: N_7  and  C_8 
REMARK    2  A    between atoms: C_8  and  C_9 
REMARK    3  A    between atoms: C_9  and  N_10 
REMARK    4  A    between atoms: N_13  and  C_14 
REMARK    5  A    between atoms: C_14  and  C_15 
REMARK    6  A    between atoms: C_30  and  C_31 
REMARK       I    between atoms: C_31  and  N_32 
REMARK    7  A    between atoms: N_32  and  C_33 
ROOT
HETATM    1  N   UNL     1      25.108  46.424  50.377  1.00  0.00    -0.290 N 
HETATM    2  C   UNL     1      25.653  46.757  51.607  1.00  0.00     0.332 C 
HETATM    3  O   UNL     1      26.294  47.804  51.743  1.00  0.00    -0.246 OA
HETATM    4  N   UNL     1      25.438  45.874  52.652  1.00  0.00    -0.261 N 
HETATM    5  C   UNL     1      24.874  44.615  52.513  1.00  0.00     0.264 C 
HETATM    6  O   UNL     1      24.678  43.840  53.447  1.00  0.00    -0.267 OA
HETATM    7  C   UNL     1      24.482  44.210  51.152  1.00  0.00     0.059 A 
HETATM    8  C   UNL     1      24.590  45.131  50.109  1.00  0.00     0.056 A 
HETATM    9  C   UNL     1      23.967  42.923  50.935  1.00  0.00     0.020 A 
HETATM   10  C   UNL     1      23.547  42.541  49.661  1.00  0.00     0.018 A 
HETATM   11  C   UNL     1      23.643  43.453  48.607  1.00  0.00     0.034 A 
HETATM   12  C   UNL     1      24.182  44.733  48.829  1.00  0.00     0.048 A 
ENDROOT
BRANCH   1  13
HETATM   13  C   UNL     1      24.971  47.505  49.398  1.00  0.00     0.237 C 
BRANCH  13  14
HETATM   14  C   UNL     1      23.637  48.252  49.427  1.00  0.00     0.240 C 
HETATM   15  N   UNL     1      22.709  47.747  48.533  1.00  0.00    -0.325 N 
HETATM   16  H   UNL     1      22.940  46.845  48.117  1.00  0.00     0.169 HD
HETATM   17  O   UNL     1      23.498  49.236  50.147  1.00  0.00    -0.271 OA
BRANCH  15  18
HETATM   18  C   UNL     1      21.528  48.370  48.071  1.00  0.00     0.040 A 
HETATM   19  C   UNL     1      20.347  47.606  47.964  1.00  0.00    -0.035 A 
HETATM   20  C   UNL     1      19.198  48.183  47.390  1.00  0.00     0.015 A 
HETATM   21  C   UNL     1      20.269  46.177  48.434  1.00  0.00     0.050 C 
HETATM   22  C   UNL     1      19.199  49.508  46.941  1.00  0.00    -0.061 A 
HETATM   23  C   UNL     1      17.989  50.109  46.289  1.00  0.00     0.048 C 
HETATM   24  C   UNL     1      20.362  50.265  47.082  1.00  0.00     0.009 A 
HETATM   25  C   UNL     1      21.512  49.702  47.645  1.00  0.00     0.030 A 
ENDBRANCH  15  18
ENDBRANCH  13  14
ENDBRANCH   1  13
BRANCH   4  26
HETATM   26  C   UNL     1      25.753  46.340  53.998  1.00  0.00     0.175 C 
BRANCH  26  27
HETATM   27  C   UNL     1      27.147  45.897  54.408  1.00  0.00    -0.037 A 
HETATM   28  C   UNL     1      27.605  44.607  54.089  1.00  0.00     0.048 A 
HETATM   29  C   UNL     1      28.833  44.214  54.579  1.00  0.00     0.105 A 
HETATM   30  C   UNL     1      29.608  45.048  55.350  1.00  0.00     0.105 A 
HETATM   31  O   UNL     1      29.407  42.995  54.398  1.00  0.00    -0.323 OA
HETATM   32  O   UNL     1      30.767  44.460  55.749  1.00  0.00    -0.323 OA
HETATM   33  C   UNL     1      29.204  46.325  55.668  1.00  0.00     0.040 A 
HETATM   34  C   UNL     1      30.623  43.151  55.159  1.00  0.00     0.352 A 
HETATM   35  C   UNL     1      27.959  46.750  55.193  1.00  0.00     0.012 A 
ENDBRANCH  26  27
ENDBRANCH   4  26
BRANCH  11  36
HETATM   36  C   UNL     1      23.204  43.112  47.226  1.00  0.00     0.252 C 
HETATM   37  N   UNL     1      22.035  43.699  46.805  1.00  0.00    -0.352 N 
HETATM   38  H   UNL     1      21.637  44.413  47.399  1.00  0.00     0.163 HD
HETATM   39  O   UNL     1      23.915  42.385  46.550  1.00  0.00    -0.268 OA
BRANCH  37  40
HETATM   40  C   UNL     1      21.485  43.650  45.447  1.00  0.00     0.084 C 
HETATM   41  C   UNL     1      20.019  43.198  45.412  1.00  0.00     0.025 C 
HETATM   42  C   UNL     1      19.005  44.334  45.477  1.00  0.00     0.002 C 
HETATM   43  C   UNL     1      19.297  45.402  44.432  1.00  0.00     0.000 C 
HETATM   44  C   UNL     1      20.704  45.968  44.573  1.00  0.00     0.002 C 
HETATM   45  C   UNL     1      21.781  44.884  44.582  1.00  0.00     0.025 C 
ENDBRANCH  37  40
ENDBRANCH  11  36
TORSDOF 7
ENDMDL
MODEL 6
REMARK VINA RESULT:     -10.4      1.755      2.447
REMARK  7 active torsions:
REMARK  status: ('A' for Active; 'I' for Inactive)
REMARK    1  A    between atoms: C_6  and  N_7 
REMARK       I    between atoms: N_7  and  C_8 
REMARK    2  A    between atoms: C_8  and  C_9 
REMARK    3  A    between atoms: C_9  and  N_10 
REMARK    4  A    between atoms: N_13  and  C_14 
REMARK    5  A    between atoms: C_14  and  C_15 
REMARK    6  A    between atoms: C_30  and  C_31 
REMARK       I    between atoms: C_31  and  N_32 
REMARK    7  A    between atoms: N_32  and  C_33 
ROOT
HETATM    1  N   UNL     1      25.690  44.605  50.706  1.00  0.00    -0.290 N 
HETATM    2  C   UNL     1      26.309  43.365  50.687  1.00  0.00     0.332 C 
HETATM    3  O   UNL     1      27.436  43.223  51.172  1.00  0.00    -0.246 OA
HETATM    4  N   UNL     1      25.606  42.318  50.114  1.00  0.00    -0.261 N 
HETATM    5  C   UNL     1      24.420  42.459  49.412  1.00  0.00     0.264 C 
HETATM    6  O   UNL     1      23.797  41.524  48.914  1.00  0.00    -0.267 OA
HETATM    7  C   UNL     1      23.886  43.826  49.281  1.00  0.00     0.059 A 
HETATM    8  C   UNL     1      24.522  44.874  49.947  1.00  0.00     0.056 A 
HETATM    9  C   UNL     1      22.723  44.044  48.525  1.00  0.00     0.020 A 
HETATM   10  C   UNL     1      22.177  45.324  48.431  1.00  0.00     0.018 A 
HETATM   11  C   UNL     1      22.799  46.384  49.096  1.00  0.00     0.034 A 
HETATM   12  C   UNL     1      23.977  46.160  49.832  1.00  0.00     0.048 A 
ENDROOT
BRANCH   1  13
HETATM   13  C   UNL     1      26.218  45.596  51.645  1.00  0.00     0.237 C 
BRANCH  13  14
HETATM   14  C   UNL     1      26.680  45.043  52.994  1.00  0.00     0.240 C 
HETATM   15  N   UNL     1      27.998  45.348  53.286  1.00  0.00    -0.325 N 
HETATM   16  H   UNL     1      28.434  46.048  52.687  1.00  0.00     0.169 HD
HETATM   17  O   UNL     1      25.924  44.347  53.665  1.00  0.00    -0.271 OA
BRANCH  15  18
HETATM   18  C   UNL     1      28.827  44.744  54.258  1.00  0.00     0.040 A 
HETATM   19  C   UNL     1      29.054  45.417  55.477  1.00  0.00    -0.035 A 
HETATM   20  C   UNL     1      29.974  44.885  56.401  1.00  0.00     0.015 A 
HETATM   21  C   UNL     1      28.351  46.701  55.830  1.00  0.00     0.050 C 
HETATM   22  C   UNL     1      30.656  43.691  56.140  1.00  0.00    -0.061 A 
HETATM   23  C   UNL     1      31.669  43.148  57.104  1.00  0.00     0.048 C 
HETATM   24  C   UNL     1      30.400  43.018  54.946  1.00  0.00     0.009 A 
HETATM   25  C   UNL     1      29.492  43.538  54.018  1.00  0.00     0.030 A 
ENDBRANCH  15  18
ENDBRANCH  13  14
ENDBRANCH   1  13
BRANCH   4  26
HETATM   26  C   UNL     1      26.114  40.969  50.340  1.00  0.00     0.175 C 
BRANCH  26  27
HETATM   27  C   UNL     1      26.694  40.391  49.060  1.00  0.00    -0.037 A 
HETATM   28  C   UNL     1      27.341  41.225  48.133  1.00  0.00     0.048 A 
HETATM   29  C   UNL     1      27.751  40.672  46.937  1.00  0.00     0.105 A 
HETATM   30  C   UNL     1      27.553  39.343  46.646  1.00  0.00     0.105 A 
HETATM   31  O   UNL     1      28.357  41.341  45.919  1.00  0.00    -0.323 OA
HETATM   32  O   UNL     1      28.009  39.008  45.410  1.00  0.00    -0.323 OA
HETATM   33  C   UNL     1      26.940  38.489  47.535  1.00  0.00     0.040 A 
HETATM   34  C   UNL     1      28.498  40.283  44.947  1.00  0.00     0.352 A 
HETATM   35  C   UNL     1      26.505  39.022  48.752  1.00  0.00     0.012 A 
ENDBRANCH  26  27
ENDBRANCH   4  26
BRANCH  11  36
HETATM   36  C   UNL     1      22.264  47.771  49.043  1.00  0.00     0.252 C 
HETATM   37  N   UNL     1      23.186  48.778  49.207  1.00  0.00    -0.352 N 
HETATM   38  H   UNL     1      24.161  48.513  49.214  1.00  0.00     0.163 HD
HETATM   39  O   UNL     1      21.075  47.930  48.817  1.00  0.00    -0.268 OA
BRANCH  37  40
HETATM   40  C   UNL     1      22.938  50.212  49.035  1.00  0.00     0.084 C 
HETATM   41  C   UNL     1      22.444  50.568  47.627  1.00  0.00     0.025 C 
HETATM   42  C   UNL     1      20.928  50.576  47.471  1.00  0.00     0.002 C 
HETATM   43  C   UNL     1      20.262  51.429  48.542  1.00  0.00     0.000 C 
HETATM   44  C   UNL     1      20.626  50.968  49.946  1.00  0.00     0.002 C 
HETATM   45  C   UNL     1      22.135  50.872  50.166  1.00  0.00     0.025 C 
ENDBRANCH  37  40
ENDBRANCH  11  36
TORSDOF 7
ENDMDL
MODEL 7
REMARK VINA RESULT:     -10.4      2.656      7.165
REMARK  7 active torsions:
REMARK  status: ('A' for Active; 'I' for Inactive)
REMARK    1  A    between atoms: C_6  and  N_7 
REMARK       I    between atoms: N_7  and  C_8 
REMARK    2  A    between atoms: C_8  and  C_9 
REMARK    3  A    between atoms: C_9  and  N_10 
REMARK    4  A    between atoms: N_13  and  C_14 
REMARK    5  A    between atoms: C_14  and  C_15 
REMARK    6  A    between atoms: C_30  and  C_31 
REMARK       I    between atoms: C_31  and  N_32 
REMARK    7  A    between atoms: N_32  and  C_33 
ROOT
HETATM    1  N   UNL     1      24.072  44.951  50.368  1.00  0.00    -0.290 N 
HETATM    2  C   UNL     1      24.850  43.964  50.952  1.00  0.00     0.332 C 
HETATM    3  O   UNL     1      24.319  43.028  51.558  1.00  0.00    -0.246 OA
HETATM    4  N   UNL     1      26.223  44.080  50.814  1.00  0.00    -0.261 N 
HETATM    5  C   UNL     1      26.869  45.190  50.293  1.00  0.00     0.264 C 
HETATM    6  O   UNL     1      28.088  45.282  50.166  1.00  0.00    -0.267 OA
HETATM    7  C   UNL     1      26.017  46.311  49.860  1.00  0.00     0.059 A 
HETATM    8  C   UNL     1      24.630  46.164  49.888  1.00  0.00     0.056 A 
HETATM    9  C   UNL     1      26.614  47.490  49.385  1.00  0.00     0.020 A 
HETATM   10  C   UNL     1      25.821  48.541  48.925  1.00  0.00     0.018 A 
HETATM   11  C   UNL     1      24.430  48.408  48.942  1.00  0.00     0.034 A 
HETATM   12  C   UNL     1      23.841  47.233  49.441  1.00  0.00     0.048 A 
ENDROOT
BRANCH   1  13
HETATM   13  C   UNL     1      22.657  44.639  50.149  1.00  0.00     0.237 C 
BRANCH  13  14
HETATM   14  C   UNL     1      22.349  43.845  48.879  1.00  0.00     0.240 C 
HETATM   15  N   UNL     1      21.884  44.635  47.842  1.00  0.00    -0.325 N 
HETATM   16  H   UNL     1      21.986  45.641  47.970  1.00  0.00     0.169 HD
HETATM   17  O   UNL     1      22.461  42.623  48.874  1.00  0.00    -0.271 OA
BRANCH  15  18
HETATM   18  C   UNL     1      21.215  44.213  46.671  1.00  0.00     0.040 A 
HETATM   19  C   UNL     1      19.810  44.327  46.606  1.00  0.00    -0.035 A 
HETATM   20  C   UNL     1      19.123  43.798  45.496  1.00  0.00     0.015 A 
HETATM   21  C   UNL     1      19.006  44.990  47.693  1.00  0.00     0.050 C 
HETATM   22  C   UNL     1      19.809  43.178  44.447  1.00  0.00    -0.061 A 
HETATM   23  C   UNL     1      19.073  42.575  43.287  1.00  0.00     0.048 C 
HETATM   24  C   UNL     1      21.200  43.100  44.506  1.00  0.00     0.009 A 
HETATM   25  C   UNL     1      21.894  43.616  45.604  1.00  0.00     0.030 A 
ENDBRANCH  15  18
ENDBRANCH  13  14
ENDBRANCH   1  13
BRANCH   4  26
HETATM   26  C   UNL     1      27.031  42.918  51.168  1.00  0.00     0.175 C 
BRANCH  26  27
HETATM   27  C   UNL     1      27.898  43.215  52.380  1.00  0.00    -0.037 A 
HETATM   28  C   UNL     1      27.465  44.127  53.357  1.00  0.00     0.048 A 
HETATM   29  C   UNL     1      28.335  44.446  54.379  1.00  0.00     0.105 A 
HETATM   30  C   UNL     1      29.590  43.889  54.465  1.00  0.00     0.105 A 
HETATM   31  O   UNL     1      28.093  45.332  55.382  1.00  0.00    -0.323 OA
HETATM   32  O   UNL     1      30.293  44.354  55.531  1.00  0.00    -0.323 OA
HETATM   33  C   UNL     1      30.044  42.978  53.539  1.00  0.00     0.040 A 
HETATM   34  C   UNL     1      29.346  45.284  56.096  1.00  0.00     0.352 A 
HETATM   35  C   UNL     1      29.188  42.642  52.485  1.00  0.00     0.012 A 
ENDBRANCH  26  27
ENDBRANCH   4  26
BRANCH  11  36
HETATM   36  C   UNL     1      23.529  49.489  48.458  1.00  0.00     0.252 C 
HETATM   37  N   UNL     1      22.346  49.636  49.143  1.00  0.00    -0.352 N 
HETATM   38  H   UNL     1      22.236  49.101  49.994  1.00  0.00     0.163 HD
HETATM   39  O   UNL     1      23.904  50.193  47.535  1.00  0.00    -0.268 OA
BRANCH  37  40
HETATM   40  C   UNL     1      21.375  50.719  48.966  1.00  0.00     0.084 C 
HETATM   41  C   UNL     1      20.563  50.586  47.671  1.00  0.00     0.025 C 
HETATM   42  C   UNL     1      19.254  49.820  47.820  1.00  0.00     0.002 C 
HETATM   43  C   UNL     1      18.414  50.368  48.967  1.00  0.00     0.000 C 
HETATM   44  C   UNL     1      19.170  50.346  50.288  1.00  0.00     0.002 C 
HETATM   45  C   UNL     1      20.528  51.041  50.206  1.00  0.00     0.025 C 
ENDBRANCH  37  40
ENDBRANCH  11  36
TORSDOF 7
ENDMDL
MODEL 8
REMARK VINA RESULT:     -10.2      2.705      8.664
REMARK  7 active torsions:
REMARK  status: ('A' for Active; 'I' for Inactive)
REMARK    1  A    between atoms: C_6  and  N_7 
REMARK       I    between atoms: N_7  and  C_8 
REMARK    2  A    between atoms: C_8  and  C_9 
REMARK    3  A    between atoms: C_9  and  N_10 
REMARK    4  A    between atoms: N_13  and  C_14 
REMARK    5  A    between atoms: C_14  and  C_15 
REMARK    6  A    between atoms: C_30  and  C_31 
REMARK       I    between atoms: C_31  and  N_32 
REMARK    7  A    between atoms: N_32  and  C_33 
ROOT
HETATM    1  N   UNL     1      23.671  42.592  49.338  1.00  0.00    -0.290 N 
HETATM    2  C   UNL     1      22.733  43.595  49.523  1.00  0.00     0.332 C 
HETATM    3  O   UNL     1      22.281  43.828  50.649  1.00  0.00    -0.246 OA
HETATM    4  N   UNL     1      22.344  44.309  48.402  1.00  0.00    -0.261 N 
HETATM    5  C   UNL     1      22.691  43.980  47.101  1.00  0.00     0.264 C 
HETATM    6  O   UNL     1      22.349  44.624  46.112  1.00  0.00    -0.267 OA
HETATM    7  C   UNL     1      23.534  42.785  46.922  1.00  0.00     0.059 A 
HETATM    8  C   UNL     1      24.024  42.122  48.047  1.00  0.00     0.056 A 
HETATM    9  C   UNL     1      23.865  42.360  45.626  1.00  0.00     0.020 A 
HETATM   10  C   UNL     1      24.701  41.260  45.441  1.00  0.00     0.018 A 
HETATM   11  C   UNL     1      25.206  40.588  46.557  1.00  0.00     0.034 A 
HETATM   12  C   UNL     1      24.850  41.006  47.851  1.00  0.00     0.048 A 
ENDROOT
BRANCH   1  13
HETATM   13  C   UNL     1      24.382  42.120  50.529  1.00  0.00     0.237 C 
BRANCH  13  14
HETATM   14  C   UNL     1      25.486  43.044  51.043  1.00  0.00     0.240 C 
HETATM   15  N   UNL     1      25.230  43.551  52.305  1.00  0.00    -0.325 N 
HETATM   16  H   UNL     1      24.463  43.112  52.812  1.00  0.00     0.169 HD
HETATM   17  O   UNL     1      26.444  43.318  50.325  1.00  0.00    -0.271 OA
BRANCH  15  18
HETATM   18  C   UNL     1      25.852  44.654  52.934  1.00  0.00     0.040 A 
HETATM   19  C   UNL     1      26.818  44.416  53.933  1.00  0.00    -0.035 A 
HETATM   20  C   UNL     1      27.353  45.504  54.651  1.00  0.00     0.015 A 
HETATM   21  C   UNL     1      27.298  43.031  54.275  1.00  0.00     0.050 C 
HETATM   22  C   UNL     1      26.957  46.817  54.379  1.00  0.00    -0.061 A 
HETATM   23  C   UNL     1      27.493  47.971  55.174  1.00  0.00     0.048 C 
HETATM   24  C   UNL     1      26.025  47.043  53.366  1.00  0.00     0.009 A 
HETATM   25  C   UNL     1      25.483  45.972  52.650  1.00  0.00     0.030 A 
ENDBRANCH  15  18
ENDBRANCH  13  14
ENDBRANCH   1  13
BRANCH   4  26
HETATM   26  C   UNL     1      21.586  45.537  48.621  1.00  0.00     0.175 C 
BRANCH  26  27
HETATM   27  C   UNL     1      22.518  46.731  48.735  1.00  0.00    -0.037 A 
HETATM   28  C   UNL     1      22.283  47.890  47.976  1.00  0.00     0.048 A 
HETATM   29  C   UNL     1      23.218  48.903  48.032  1.00  0.00     0.105 A 
HETATM   30  C   UNL     1      24.348  48.807  48.810  1.00  0.00     0.105 A 
HETATM   31  O   UNL     1      23.166  50.071  47.336  1.00  0.00    -0.323 OA
HETATM   32  O   UNL     1      25.147  49.902  48.704  1.00  0.00    -0.323 OA
HETATM   33  C   UNL     1      24.604  47.697  49.583  1.00  0.00     0.040 A 
HETATM   34  C   UNL     1      24.402  50.690  47.752  1.00  0.00     0.352 A 
HETATM   35  C   UNL     1      23.679  46.649  49.540  1.00  0.00     0.012 A 
ENDBRANCH  26  27
ENDBRANCH   4  26
BRANCH  11  36
HETATM   36  C   UNL     1      26.109  39.412  46.428  1.00  0.00     0.252 C 
HETATM   37  N   UNL     1      26.973  39.200  47.476  1.00  0.00    -0.352 N 
HETATM   38  H   UNL     1      26.841  39.765  48.304  1.00  0.00     0.163 HD
HETATM   39  O   UNL     1      26.000  38.697  45.444  1.00  0.00    -0.268 OA
BRANCH  37  40
HETATM   40  C   UNL     1      27.838  38.032  47.659  1.00  0.00     0.084 C 
HETATM   41  C   UNL     1      29.198  38.386  48.274  1.00  0.00     0.025 C 
HETATM   42  C   UNL     1      29.245  38.304  49.795  1.00  0.00     0.002 C 
HETATM   43  C   UNL     1      28.724  36.965  50.298  1.00  0.00     0.000 C 
HETATM   44  C   UNL     1      27.306  36.689  49.817  1.00  0.00     0.002 C 
HETATM   45  C   UNL     1      27.158  36.814  48.302  1.00  0.00     0.025 C 
ENDBRANCH  37  40
ENDBRANCH  11  36
TORSDOF 7
ENDMDL
MODEL 9
REMARK VINA RESULT:     -10.2      2.700      8.854
REMARK  7 active torsions:
REMARK  status: ('A' for Active; 'I' for Inactive)
REMARK    1  A    between atoms: C_6  and  N_7 
REMARK       I    between atoms: N_7  and  C_8 
REMARK    2  A    between atoms: C_8  and  C_9 
REMARK    3  A    between atoms: C_9  and  N_10 
REMARK    4  A    between atoms: N_13  and  C_14 
REMARK    5  A    between atoms: C_14  and  C_15 
REMARK    6  A    between atoms: C_30  and  C_31 
REMARK       I    between atoms: C_31  and  N_32 
REMARK    7  A    between atoms: N_32  and  C_33 
ROOT
HETATM    1  N   UNL     1      26.988  42.947  51.058  1.00  0.00    -0.290 N 
HETATM    2  C   UNL     1      26.143  43.923  51.562  1.00  0.00     0.332 C 
HETATM    3  O   UNL     1      26.409  44.490  52.626  1.00  0.00    -0.246 OA
HETATM    4  N   UNL     1      25.013  44.223  50.820  1.00  0.00    -0.261 N 
HETATM    5  C   UNL     1      24.585  43.503  49.716  1.00  0.00     0.264 C 
HETATM    6  O   UNL     1      23.585  43.781  49.057  1.00  0.00    -0.267 OA
HETATM    7  C   UNL     1      25.404  42.345  49.320  1.00  0.00     0.059 A 
HETATM    8  C   UNL     1      26.604  42.098  49.989  1.00  0.00     0.056 A 
HETATM    9  C   UNL     1      24.988  41.536  48.251  1.00  0.00     0.020 A 
HETATM   10  C   UNL     1      25.778  40.465  47.833  1.00  0.00     0.018 A 
HETATM   11  C   UNL     1      26.984  40.207  48.489  1.00  0.00     0.034 A 
HETATM   12  C   UNL     1      27.381  41.009  49.574  1.00  0.00     0.048 A 
ENDROOT
BRANCH   1  13
HETATM   13  C   UNL     1      28.352  42.911  51.592  1.00  0.00     0.237 C 
BRANCH  13  14
HETATM   14  C   UNL     1      28.461  42.902  53.117  1.00  0.00     0.240 C 
HETATM   15  N   UNL     1      29.027  44.055  53.630  1.00  0.00    -0.325 N 
HETATM   16  H   UNL     1      29.120  44.832  52.977  1.00  0.00     0.169 HD
HETATM   17  O   UNL     1      28.122  41.907  53.752  1.00  0.00    -0.271 OA
BRANCH  15  18
HETATM   18  C   UNL     1      29.564  44.251  54.923  1.00  0.00     0.040 A 
HETATM   19  C   UNL     1      29.132  45.357  55.683  1.00  0.00    -0.035 A 
HETATM   20  C   UNL     1      29.748  45.631  56.919  1.00  0.00     0.015 A 
HETATM   21  C   UNL     1      28.033  46.274  55.216  1.00  0.00     0.050 C 
HETATM   22  C   UNL     1      30.770  44.815  57.417  1.00  0.00    -0.061 A 
HETATM   23  C   UNL     1      31.457  45.133  58.712  1.00  0.00     0.048 C 
HETATM   24  C   UNL     1      31.166  43.705  56.672  1.00  0.00     0.009 A 
HETATM   25  C   UNL     1      30.566  43.425  55.441  1.00  0.00     0.030 A 
ENDBRANCH  15  18
ENDBRANCH  13  14
ENDBRANCH   1  13
BRANCH   4  26
HETATM   26  C   UNL     1      24.275  45.427  51.183  1.00  0.00     0.175 C 
BRANCH  26  27
HETATM   27  C   UNL     1      24.701  46.601  50.318  1.00  0.00    -0.037 A 
HETATM   28  C   UNL     1      26.040  47.029  50.311  1.00  0.00     0.048 A 
HETATM   29  C   UNL     1      26.355  48.166  49.596  1.00  0.00     0.105 A 
HETATM   30  C   UNL     1      25.404  48.869  48.894  1.00  0.00     0.105 A 
HETATM   31  O   UNL     1      27.587  48.736  49.512  1.00  0.00    -0.323 OA
HETATM   32  O   UNL     1      25.917  49.967  48.280  1.00  0.00    -0.323 OA
HETATM   33  C   UNL     1      24.086  48.472  48.860  1.00  0.00     0.040 A 
HETATM   34  C   UNL     1      27.297  49.889  48.693  1.00  0.00     0.352 A 
HETATM   35  C   UNL     1      23.734  47.327  49.583  1.00  0.00     0.012 A 
ENDBRANCH  26  27
ENDBRANCH   4  26
BRANCH  11  36
HETATM   36  C   UNL     1      27.876  39.085  48.087  1.00  0.00     0.252 C 
HETATM   37  N   UNL     1      27.374  38.229  47.136  1.00  0.00    -0.352 N 
HETATM   38  H   UNL     1      26.508  38.495  46.687  1.00  0.00     0.163 HD
HETATM   39  O   UNL     1      28.991  39.020  48.580  1.00  0.00    -0.268 OA
BRANCH  37  40
HETATM   40  C   UNL     1      28.112  37.156  46.465  1.00  0.00     0.084 C 
HETATM   41  C   UNL     1      27.314  35.848  46.375  1.00  0.00     0.025 C 
HETATM   42  C   UNL     1      26.493  35.695  45.100  1.00  0.00     0.002 C 
HETATM   43  C   UNL     1      27.342  35.932  43.858  1.00  0.00     0.000 C 
HETATM   44  C   UNL     1      28.006  37.302  43.874  1.00  0.00     0.002 C 
HETATM   45  C   UNL     1      28.799  37.562  45.154  1.00  0.00     0.025 C 
ENDBRANCH  37  40
ENDBRANCH  11  36
TORSDOF 7
ENDMDL
MODEL 10
REMARK VINA RESULT:     -10.1      2.261      6.274
REMARK  7 active torsions:
REMARK  status: ('A' for Active; 'I' for Inactive)
REMARK    1  A    between atoms: C_6  and  N_7 
REMARK       I    between atoms: N_7  and  C_8 
REMARK    2  A    between atoms: C_8  and  C_9 
REMARK    3  A    between atoms: C_9  and  N_10 
REMARK    4  A    between atoms: N_13  and  C_14 
REMARK    5  A    between atoms: C_14  and  C_15 
REMARK    6  A    between atoms: C_30  and  C_31 
REMARK       I    between atoms: C_31  and  N_32 
REMARK    7  A    between atoms: N_32  and  C_33 
ROOT
HETATM    1  N   UNL     1      23.814  44.893  50.188  1.00  0.00    -0.290 N 
HETATM    2  C   UNL     1      24.621  44.038  50.923  1.00  0.00     0.332 C 
HETATM    3  O   UNL     1      24.138  43.042  51.472  1.00  0.00    -0.246 OA
HETATM    4  N   UNL     1      25.967  44.353  51.000  1.00  0.00    -0.261 N 
HETATM    5  C   UNL     1      26.524  45.538  50.548  1.00  0.00     0.264 C 
HETATM    6  O   UNL     1      27.722  45.807  50.611  1.00  0.00    -0.267 OA
HETATM    7  C   UNL     1      25.602  46.516  49.944  1.00  0.00     0.059 A 
HETATM    8  C   UNL     1      24.264  46.167  49.759  1.00  0.00     0.056 A 
HETATM    9  C   UNL     1      26.093  47.763  49.526  1.00  0.00     0.020 A 
HETATM   10  C   UNL     1      25.243  48.681  48.909  1.00  0.00     0.018 A 
HETATM   11  C   UNL     1      23.902  48.345  48.711  1.00  0.00     0.034 A 
HETATM   12  C   UNL     1      23.413  47.103  49.154  1.00  0.00     0.048 A 
ENDROOT
BRANCH   1  13
HETATM   13  C   UNL     1      22.513  44.373  49.760  1.00  0.00     0.237 C 
BRANCH  13  14
HETATM   14  C   UNL     1      22.544  43.442  48.547  1.00  0.00     0.240 C 
HETATM   15  N   UNL     1      22.731  42.114  48.884  1.00  0.00    -0.325 N 
HETATM   16  H   UNL     1      22.629  41.888  49.873  1.00  0.00     0.169 HD
HETATM   17  O   UNL     1      22.474  43.907  47.413  1.00  0.00    -0.271 OA
BRANCH  15  18
HETATM   18  C   UNL     1      23.124  41.055  48.034  1.00  0.00     0.040 A 
HETATM   19  C   UNL     1      24.499  40.828  47.815  1.00  0.00    -0.035 A 
HETATM   20  C   UNL     1      24.899  39.857  46.876  1.00  0.00     0.015 A 
HETATM   21  C   UNL     1      25.568  41.596  48.546  1.00  0.00     0.050 C 
HETATM   22  C   UNL     1      23.958  39.102  46.168  1.00  0.00    -0.061 A 
HETATM   23  C   UNL     1      24.384  38.100  45.135  1.00  0.00     0.048 C 
HETATM   24  C   UNL     1      22.602  39.312  46.416  1.00  0.00     0.009 A 
HETATM   25  C   UNL     1      22.191  40.276  47.342  1.00  0.00     0.030 A 
ENDBRANCH  15  18
ENDBRANCH  13  14
ENDBRANCH   1  13
BRANCH   4  26
HETATM   26  C   UNL     1      26.864  43.327  51.520  1.00  0.00     0.175 C 
BRANCH  26  27
HETATM   27  C   UNL     1      27.622  43.839  52.733  1.00  0.00    -0.037 A 
HETATM   28  C   UNL     1      28.917  43.369  53.012  1.00  0.00     0.048 A 
HETATM   29  C   UNL     1      29.518  43.780  54.184  1.00  0.00     0.105 A 
HETATM   30  C   UNL     1      28.891  44.634  55.061  1.00  0.00     0.105 A 
HETATM   31  O   UNL     1      30.746  43.395  54.624  1.00  0.00    -0.323 OA
HETATM   32  O   UNL     1      29.645  44.893  56.162  1.00  0.00    -0.323 OA
HETATM   33  C   UNL     1      27.632  45.131  54.815  1.00  0.00     0.040 A 
HETATM   34  C   UNL     1      30.811  44.088  55.888  1.00  0.00     0.352 A 
HETATM   35  C   UNL     1      26.992  44.725  53.639  1.00  0.00     0.012 A 
ENDBRANCH  26  27
ENDBRANCH   4  26
BRANCH  11  36
HETATM   36  C   UNL     1      22.945  49.276  48.052  1.00  0.00     0.252 C 
HETATM   37  N   UNL     1      21.625  49.131  48.407  1.00  0.00    -0.352 N 
HETATM   38  H   UNL     1      21.419  48.508  49.177  1.00  0.00     0.163 HD
HETATM   39  O   UNL     1      23.384  50.122  47.289  1.00  0.00    -0.268 OA
BRANCH  37  40
HETATM   40  C   UNL     1      20.526  50.022  48.026  1.00  0.00     0.084 C 
HETATM   41  C   UNL     1      19.158  49.326  48.048  1.00  0.00     0.025 C 
HETATM   42  C   UNL     1      18.412  49.439  49.372  1.00  0.00     0.002 C 
HETATM   43  C   UNL     1      18.325  50.885  49.841  1.00  0.00     0.000 C 
HETATM   44  C   UNL     1      19.700  51.525  49.975  1.00  0.00     0.002 C 
HETATM   45  C   UNL     1      20.539  51.399  48.705  1.00  0.00     0.025 C 
ENDBRANCH  37  40
ENDBRANCH  11  36
TORSDOF 7
ENDMDL
