MODEL 1
REMARK VINA RESULT:      -9.0      0.000      0.000
REMARK  4 active torsions:
REMARK  status: ('A' for Active; 'I' for Inactive)
REMARK    1  A    between atoms: C_9  and  C_10 
REMARK    2  A    between atoms: C_13  and  O_14 
REMARK    3  A    between atoms: C_18  and  C_19 
REMARK       I    between atoms: C_19  and  N_20 
REMARK    4  A    between atoms: N_20  and  C_21 
ROOT
HETATM    1  C   UNL     1      26.075  47.117  52.200  1.00  0.00     0.070 C 
HETATM    2  C   UNL     1      25.516  45.875  51.552  1.00  0.00     0.037 C 
HETATM    3  N   UNL     1      24.680  46.100  50.461  1.00  0.00    -0.192 N 
HETATM    4  C   UNL     1      23.844  45.158  49.978  1.00  0.00     0.725 A 
HETATM    5  N   UNL     1      23.960  43.869  50.422  1.00  0.00    -0.084 N 
HETATM    6  N   UNL     1      22.982  43.087  49.919  1.00  0.00    -0.149 NA
HETATM    7  C   UNL     1      22.346  43.965  49.134  1.00  0.00     0.275 A 
HETATM    8  N   UNL     1      22.843  45.243  49.140  1.00  0.00    -0.054 NA
HETATM    9  C   UNL     1      24.988  43.418  51.367  1.00  0.00     0.202 C 
HETATM   10  C   UNL     1      25.702  44.609  52.005  1.00  0.00     0.062 C 
HETATM   11  H   UNL     1      24.484  47.067  50.213  1.00  0.00     0.184 HD
ENDROOT
BRANCH  10  12
HETATM   12  C   UNL     1      26.455  44.260  53.242  1.00  0.00     0.256 C 
HETATM   13  N   UNL     1      27.825  44.332  53.109  1.00  0.00    -0.323 N 
HETATM   14  H   UNL     1      28.187  44.528  52.185  1.00  0.00     0.169 HD
HETATM   15  O   UNL     1      25.825  43.920  54.236  1.00  0.00    -0.267 OA
BRANCH  13  16
HETATM   16  C   UNL     1      28.783  44.241  54.142  1.00  0.00     0.035 A 
HETATM   17  C   UNL     1      28.986  45.228  55.109  1.00  0.00     0.031 A 
HETATM   18  C   UNL     1      29.993  45.086  56.072  1.00  0.00     0.026 A 
HETATM   19  C   UNL     1      30.803  43.956  56.069  1.00  0.00     0.034 A 
HETATM   20 CL   UNL     1      32.053  43.793  57.240  1.00  0.00    -0.084 Cl
HETATM   21  C   UNL     1      30.610  42.961  55.117  1.00  0.00     0.026 A 
HETATM   22  C   UNL     1      29.598  43.100  54.160  1.00  0.00     0.031 A 
ENDBRANCH  13  16
ENDBRANCH  10  12
BRANCH   9  23
HETATM   23  C   UNL     1      25.960  42.468  50.668  1.00  0.00    -0.028 A 
HETATM   24  C   UNL     1      26.510  41.354  51.322  1.00  0.00     0.012 A 
HETATM   25  C   UNL     1      27.428  40.528  50.668  1.00  0.00     0.037 A 
HETATM   26  C   UNL     1      27.813  40.791  49.353  1.00  0.00     0.068 A 
HETATM   27  C   UNL     1      27.246  41.874  48.682  1.00  0.00     0.037 A 
HETATM   28  C   UNL     1      26.325  42.703  49.333  1.00  0.00     0.012 A 
BRANCH  26  29
HETATM   29  O   UNL     1      28.735  39.921  48.841  1.00  0.00    -0.356 OA
HETATM   30  C   UNL     1      28.947  38.717  49.569  1.00  0.00     0.210 C 
ENDBRANCH  26  29
ENDBRANCH   9  23
TORSDOF 4
ENDMDL
MODEL 2
REMARK VINA RESULT:      -8.8      2.679      4.861
REMARK  4 active torsions:
REMARK  status: ('A' for Active; 'I' for Inactive)
REMARK    1  A    between atoms: C_9  and  C_10 
REMARK    2  A    between atoms: C_13  and  O_14 
REMARK    3  A    between atoms: C_18  and  C_19 
REMARK       I    between atoms: C_19  and  N_20 
REMARK    4  A    between atoms: N_20  and  C_21 
ROOT
HETATM    1  C   UNL     1      27.842  40.496  53.550  1.00  0.00     0.070 C 
HETATM    2  C   UNL     1      27.525  41.199  52.254  1.00  0.00     0.037 C 
HETATM    3  N   UNL     1      26.754  40.465  51.354  1.00  0.00    -0.192 N 
HETATM    4  C   UNL     1      26.656  40.786  50.049  1.00  0.00     0.725 A 
HETATM    5  N   UNL     1      27.147  41.988  49.616  1.00  0.00    -0.084 N 
HETATM    6  N   UNL     1      27.063  42.098  48.274  1.00  0.00    -0.149 NA
HETATM    7  C   UNL     1      26.459  40.944  47.971  1.00  0.00     0.275 A 
HETATM    8  N   UNL     1      26.191  40.112  49.029  1.00  0.00    -0.054 NA
HETATM    9  C   UNL     1      27.736  42.999  50.503  1.00  0.00     0.202 C 
HETATM   10  C   UNL     1      27.999  42.418  51.892  1.00  0.00     0.062 C 
HETATM   11  H   UNL     1      26.502  39.515  51.620  1.00  0.00     0.184 HD
ENDROOT
BRANCH  10  12
HETATM   12  C   UNL     1      28.944  43.230  52.708  1.00  0.00     0.256 C 
HETATM   13  N   UNL     1      28.403  43.722  53.876  1.00  0.00    -0.323 N 
HETATM   14  H   UNL     1      27.415  43.563  54.028  1.00  0.00     0.169 HD
HETATM   15  O   UNL     1      30.077  43.415  52.282  1.00  0.00    -0.267 OA
BRANCH  13  16
HETATM   16  C   UNL     1      29.096  44.359  54.929  1.00  0.00     0.035 A 
HETATM   17  C   UNL     1      30.299  43.897  55.465  1.00  0.00     0.031 A 
HETATM   18  C   UNL     1      30.899  44.557  56.545  1.00  0.00     0.026 A 
HETATM   19  C   UNL     1      30.294  45.682  57.094  1.00  0.00     0.034 A 
HETATM   20 CL   UNL     1      31.022  46.480  58.433  1.00  0.00    -0.084 Cl
HETATM   21  C   UNL     1      29.098  46.159  56.568  1.00  0.00     0.026 A 
HETATM   22  C   UNL     1      28.504  45.503  55.484  1.00  0.00     0.031 A 
ENDBRANCH  13  16
ENDBRANCH  10  12
BRANCH   9  23
HETATM   23  C   UNL     1      26.841  44.236  50.552  1.00  0.00    -0.028 A 
HETATM   24  C   UNL     1      27.140  45.399  49.825  1.00  0.00     0.012 A 
HETATM   25  C   UNL     1      26.324  46.529  49.924  1.00  0.00     0.037 A 
HETATM   26  C   UNL     1      25.195  46.522  50.744  1.00  0.00     0.068 A 
HETATM   27  C   UNL     1      24.868  45.361  51.442  1.00  0.00     0.037 A 
HETATM   28  C   UNL     1      25.682  44.227  51.345  1.00  0.00     0.012 A 
BRANCH  26  29
HETATM   29  O   UNL     1      24.498  47.699  50.769  1.00  0.00    -0.356 OA
HETATM   30  C   UNL     1      23.740  48.014  49.607  1.00  0.00     0.210 C 
ENDBRANCH  26  29
ENDBRANCH   9  23
TORSDOF 4
ENDMDL
MODEL 3
REMARK VINA RESULT:      -8.1      3.177      6.346
REMARK  4 active torsions:
REMARK  status: ('A' for Active; 'I' for Inactive)
REMARK    1  A    between atoms: C_9  and  C_10 
REMARK    2  A    between atoms: C_13  and  O_14 
REMARK    3  A    between atoms: C_18  and  C_19 
REMARK       I    between atoms: C_19  and  N_20 
REMARK    4  A    between atoms: N_20  and  C_21 
ROOT
HETATM    1  C   UNL     1      22.484  43.891  49.417  1.00  0.00     0.070 C 
HETATM    2  C   UNL     1      23.755  44.654  49.698  1.00  0.00     0.037 C 
HETATM    3  N   UNL     1      23.605  46.034  49.814  1.00  0.00    -0.192 N 
HETATM    4  C   UNL     1      24.645  46.888  49.732  1.00  0.00     0.725 A 
HETATM    5  N   UNL     1      25.921  46.394  49.749  1.00  0.00    -0.084 N 
HETATM    6  N   UNL     1      26.829  47.372  49.550  1.00  0.00    -0.149 NA
HETATM    7  C   UNL     1      26.026  48.440  49.476  1.00  0.00     0.275 A 
HETATM    8  N   UNL     1      24.682  48.187  49.584  1.00  0.00    -0.054 NA
HETATM    9  C   UNL     1      26.246  44.972  49.911  1.00  0.00     0.202 C 
HETATM   10  C   UNL     1      24.996  44.106  49.754  1.00  0.00     0.062 C 
HETATM   11  H   UNL     1      22.675  46.418  49.666  1.00  0.00     0.184 HD
ENDROOT
BRANCH  10  12
HETATM   12  C   UNL     1      25.294  42.669  49.503  1.00  0.00     0.256 C 
HETATM   13  N   UNL     1      26.011  42.433  48.350  1.00  0.00    -0.323 N 
HETATM   14  H   UNL     1      26.192  43.228  47.751  1.00  0.00     0.169 HD
HETATM   15  O   UNL     1      24.870  41.835  50.295  1.00  0.00    -0.267 OA
BRANCH  13  16
HETATM   16  C   UNL     1      26.592  41.210  47.949  1.00  0.00     0.035 A 
HETATM   17  C   UNL     1      25.999  40.320  47.050  1.00  0.00     0.031 A 
HETATM   18  C   UNL     1      26.616  39.102  46.741  1.00  0.00     0.026 A 
HETATM   19  C   UNL     1      27.829  38.768  47.333  1.00  0.00     0.034 A 
HETATM   20 CL   UNL     1      28.576  37.262  46.968  1.00  0.00    -0.084 Cl
HETATM   21  C   UNL     1      28.437  39.646  48.225  1.00  0.00     0.026 A 
HETATM   22  C   UNL     1      27.823  40.866  48.527  1.00  0.00     0.031 A 
ENDBRANCH  13  16
ENDBRANCH  10  12
BRANCH   9  23
HETATM   23  C   UNL     1      26.943  44.744  51.251  1.00  0.00    -0.028 A 
HETATM   24  C   UNL     1      26.525  45.391  52.425  1.00  0.00     0.012 A 
HETATM   25  C   UNL     1      27.210  45.194  53.627  1.00  0.00     0.037 A 
HETATM   26  C   UNL     1      28.319  44.349  53.685  1.00  0.00     0.068 A 
HETATM   27  C   UNL     1      28.720  43.673  52.534  1.00  0.00     0.037 A 
HETATM   28  C   UNL     1      28.036  43.867  51.328  1.00  0.00     0.012 A 
BRANCH  26  29
HETATM   29  O   UNL     1      28.911  44.264  54.915  1.00  0.00    -0.356 OA
HETATM   30  C   UNL     1      28.993  45.469  55.666  1.00  0.00     0.210 C 
ENDBRANCH  26  29
ENDBRANCH   9  23
TORSDOF 4
ENDMDL
MODEL 4
REMARK VINA RESULT:      -8.1      1.203      1.902
REMARK  4 active torsions:
REMARK  status: ('A' for Active; 'I' for Inactive)
REMARK    1  A    between atoms: C_9  and  C_10 
REMARK    2  A    between atoms: C_13  and  O_14 
REMARK    3  A    between atoms: C_18  and  C_19 
REMARK       I    between atoms: C_19  and  N_20 
REMARK    4  A    between atoms: N_20  and  C_21 
ROOT
HETATM    1  C   UNL     1      25.127  46.713  50.614  1.00  0.00     0.070 C 
HETATM    2  C   UNL     1      24.813  45.314  50.146  1.00  0.00     0.037 C 
HETATM    3  N   UNL     1      24.101  45.235  48.951  1.00  0.00    -0.192 N 
HETATM    4  C   UNL     1      23.457  44.116  48.561  1.00  0.00     0.725 A 
HETATM    5  N   UNL     1      23.674  42.947  49.239  1.00  0.00    -0.084 N 
HETATM    6  N   UNL     1      22.872  41.961  48.785  1.00  0.00    -0.149 NA
HETATM    7  C   UNL     1      22.237  42.597  47.795  1.00  0.00     0.275 A 
HETATM    8  N   UNL     1      22.568  43.918  47.623  1.00  0.00    -0.054 NA
HETATM    9  C   UNL     1      24.622  42.810  50.350  1.00  0.00     0.202 C 
HETATM   10  C   UNL     1      25.096  44.179  50.835  1.00  0.00     0.062 C 
HETATM   11  H   UNL     1      23.819  46.110  48.514  1.00  0.00     0.184 HD
ENDROOT
BRANCH  10  12
HETATM   12  C   UNL     1      25.723  44.150  52.186  1.00  0.00     0.256 C 
HETATM   13  N   UNL     1      27.100  44.199  52.170  1.00  0.00    -0.323 N 
HETATM   14  H   UNL     1      27.552  44.165  51.265  1.00  0.00     0.169 HD
HETATM   15  O   UNL     1      24.997  44.059  53.168  1.00  0.00    -0.267 OA
BRANCH  13  16
HETATM   16  C   UNL     1      27.955  44.371  53.281  1.00  0.00     0.035 A 
HETATM   17  C   UNL     1      28.945  43.459  53.654  1.00  0.00     0.031 A 
HETATM   18  C   UNL     1      29.719  43.675  54.800  1.00  0.00     0.026 A 
HETATM   19  C   UNL     1      29.503  44.806  55.581  1.00  0.00     0.034 A 
HETATM   20 CL   UNL     1      30.441  45.060  57.000  1.00  0.00    -0.084 Cl
HETATM   21  C   UNL     1      28.525  45.727  55.220  1.00  0.00     0.026 A 
HETATM   22  C   UNL     1      27.758  45.513  54.070  1.00  0.00     0.031 A 
ENDBRANCH  13  16
ENDBRANCH  10  12
BRANCH   9  23
HETATM   23  C   UNL     1      25.785  41.909  49.937  1.00  0.00    -0.028 A 
HETATM   24  C   UNL     1      26.565  42.177  48.801  1.00  0.00     0.012 A 
HETATM   25  C   UNL     1      27.595  41.311  48.426  1.00  0.00     0.037 A 
HETATM   26  C   UNL     1      27.871  40.166  49.174  1.00  0.00     0.068 A 
HETATM   27  C   UNL     1      27.127  39.908  50.324  1.00  0.00     0.037 A 
HETATM   28  C   UNL     1      26.095  40.775  50.704  1.00  0.00     0.012 A 
BRANCH  26  29
HETATM   29  O   UNL     1      28.887  39.392  48.684  1.00  0.00    -0.356 OA
HETATM   30  C   UNL     1      28.555  38.056  48.327  1.00  0.00     0.210 C 
ENDBRANCH  26  29
ENDBRANCH   9  23
TORSDOF 4
ENDMDL
MODEL 5
REMARK VINA RESULT:      -7.8      3.155      5.282
REMARK  4 active torsions:
REMARK  status: ('A' for Active; 'I' for Inactive)
REMARK    1  A    between atoms: C_9  and  C_10 
REMARK    2  A    between atoms: C_13  and  O_14 
REMARK    3  A    between atoms: C_18  and  C_19 
REMARK       I    between atoms: C_19  and  N_20 
REMARK    4  A    between atoms: N_20  and  C_21 
ROOT
HETATM    1  C   UNL     1      28.257  40.958  53.268  1.00  0.00     0.070 C 
HETATM    2  C   UNL     1      27.672  41.137  51.890  1.00  0.00     0.037 C 
HETATM    3  N   UNL     1      27.475  39.960  51.171  1.00  0.00    -0.192 N 
HETATM    4  C   UNL     1      27.283  39.946  49.837  1.00  0.00     0.725 A 
HETATM    5  N   UNL     1      27.057  41.125  49.180  1.00  0.00    -0.084 N 
HETATM    6  N   UNL     1      26.994  40.938  47.844  1.00  0.00    -0.149 NA
HETATM    7  C   UNL     1      27.137  39.610  47.776  1.00  0.00     0.275 A 
HETATM    8  N   UNL     1      27.314  38.964  48.973  1.00  0.00    -0.054 NA
HETATM    9  C   UNL     1      26.951  42.427  49.848  1.00  0.00     0.202 C 
HETATM   10  C   UNL     1      27.419  42.334  51.300  1.00  0.00     0.062 C 
HETATM   11  H   UNL     1      27.771  39.090  51.608  1.00  0.00     0.184 HD
ENDROOT
BRANCH  10  12
HETATM   12  C   UNL     1      27.723  43.656  51.914  1.00  0.00     0.256 C 
HETATM   13  N   UNL     1      26.662  44.224  52.586  1.00  0.00    -0.323 N 
HETATM   14  H   UNL     1      25.772  43.746  52.530  1.00  0.00     0.169 HD
HETATM   15  O   UNL     1      28.841  44.132  51.758  1.00  0.00    -0.267 OA
BRANCH  13  16
HETATM   16  C   UNL     1      26.698  45.368  53.414  1.00  0.00     0.035 A 
HETATM   17  C   UNL     1      27.510  45.489  54.544  1.00  0.00     0.031 A 
HETATM   18  C   UNL     1      27.450  46.636  55.345  1.00  0.00     0.026 A 
HETATM   19  C   UNL     1      26.574  47.666  55.019  1.00  0.00     0.034 A 
HETATM   20 CL   UNL     1      26.487  49.066  56.016  1.00  0.00    -0.084 Cl
HETATM   21  C   UNL     1      25.763  47.564  53.894  1.00  0.00     0.026 A 
HETATM   22  C   UNL     1      25.830  46.420  53.090  1.00  0.00     0.031 A 
ENDBRANCH  13  16
ENDBRANCH  10  12
BRANCH   9  23
HETATM   23  C   UNL     1      25.524  42.959  49.733  1.00  0.00    -0.028 A 
HETATM   24  C   UNL     1      24.414  42.204  50.146  1.00  0.00     0.012 A 
HETATM   25  C   UNL     1      23.118  42.702  49.988  1.00  0.00     0.037 A 
HETATM   26  C   UNL     1      22.901  43.958  49.423  1.00  0.00     0.068 A 
HETATM   27  C   UNL     1      23.997  44.732  49.042  1.00  0.00     0.037 A 
HETATM   28  C   UNL     1      25.297  44.237  49.199  1.00  0.00     0.012 A 
BRANCH  26  29
HETATM   29  O   UNL     1      21.586  44.314  49.304  1.00  0.00    -0.356 OA
HETATM   30  C   UNL     1      21.157  44.747  48.019  1.00  0.00     0.210 C 
ENDBRANCH  26  29
ENDBRANCH   9  23
TORSDOF 4
ENDMDL
MODEL 6
REMARK VINA RESULT:      -7.8      3.539      6.160
REMARK  4 active torsions:
REMARK  status: ('A' for Active; 'I' for Inactive)
REMARK    1  A    between atoms: C_9  and  C_10 
REMARK    2  A    between atoms: C_13  and  O_14 
REMARK    3  A    between atoms: C_18  and  C_19 
REMARK       I    between atoms: C_19  and  N_20 
REMARK    4  A    between atoms: N_20  and  C_21 
ROOT
HETATM    1  C   UNL     1      25.093  44.901  54.574  1.00  0.00     0.070 C 
HETATM    2  C   UNL     1      26.185  44.223  53.784  1.00  0.00     0.037 C 
HETATM    3  N   UNL     1      27.117  43.519  54.543  1.00  0.00    -0.192 N 
HETATM    4  C   UNL     1      28.317  43.142  54.057  1.00  0.00     0.725 A 
HETATM    5  N   UNL     1      28.561  43.256  52.715  1.00  0.00    -0.084 N 
HETATM    6  N   UNL     1      29.839  42.938  52.420  1.00  0.00    -0.149 NA
HETATM    7  C   UNL     1      30.290  42.588  53.630  1.00  0.00     0.275 A 
HETATM    8  N   UNL     1      29.389  42.697  54.659  1.00  0.00    -0.054 NA
HETATM    9  C   UNL     1      27.568  43.718  51.738  1.00  0.00     0.202 C 
HETATM   10  C   UNL     1      26.356  44.328  52.441  1.00  0.00     0.062 C 
HETATM   11  H   UNL     1      27.013  43.547  55.555  1.00  0.00     0.184 HD
ENDROOT
BRANCH  10  12
HETATM   12  C   UNL     1      25.509  45.168  51.548  1.00  0.00     0.256 C 
HETATM   13  N   UNL     1      25.999  46.438  51.336  1.00  0.00    -0.323 N 
HETATM   14  H   UNL     1      26.822  46.707  51.859  1.00  0.00     0.169 HD
HETATM   15  O   UNL     1      24.468  44.693  51.110  1.00  0.00    -0.267 OA
BRANCH  13  16
HETATM   16  C   UNL     1      25.521  47.386  50.404  1.00  0.00     0.035 A 
HETATM   17  C   UNL     1      26.342  48.264  49.692  1.00  0.00     0.031 A 
HETATM   18  C   UNL     1      25.788  49.212  48.823  1.00  0.00     0.026 A 
HETATM   19  C   UNL     1      24.409  49.286  48.665  1.00  0.00     0.034 A 
HETATM   20 CL   UNL     1      23.728  50.465  47.612  1.00  0.00    -0.084 Cl
HETATM   21  C   UNL     1      23.577  48.415  49.361  1.00  0.00     0.026 A 
HETATM   22  C   UNL     1      24.133  47.464  50.224  1.00  0.00     0.031 A 
ENDBRANCH  13  16
ENDBRANCH  10  12
BRANCH   9  23
HETATM   23  C   UNL     1      27.180  42.572  50.806  1.00  0.00    -0.028 A 
HETATM   24  C   UNL     1      26.962  41.268  51.282  1.00  0.00     0.012 A 
HETATM   25  C   UNL     1      26.650  40.232  50.397  1.00  0.00     0.037 A 
HETATM   26  C   UNL     1      26.543  40.473  49.027  1.00  0.00     0.068 A 
HETATM   27  C   UNL     1      26.721  41.770  48.548  1.00  0.00     0.037 A 
HETATM   28  C   UNL     1      27.034  42.810  49.430  1.00  0.00     0.012 A 
BRANCH  26  29
HETATM   29  O   UNL     1      26.257  39.369  48.272  1.00  0.00    -0.356 OA
HETATM   30  C   UNL     1      26.780  38.130  48.733  1.00  0.00     0.210 C 
ENDBRANCH  26  29
ENDBRANCH   9  23
TORSDOF 4
ENDMDL
MODEL 7
REMARK VINA RESULT:      -7.7      4.115      7.413
REMARK  4 active torsions:
REMARK  status: ('A' for Active; 'I' for Inactive)
REMARK    1  A    between atoms: C_9  and  C_10 
REMARK    2  A    between atoms: C_13  and  O_14 
REMARK    3  A    between atoms: C_18  and  C_19 
REMARK       I    between atoms: C_19  and  N_20 
REMARK    4  A    between atoms: N_20  and  C_21 
ROOT
HETATM    1  C   UNL     1      22.114  47.452  48.762  1.00  0.00     0.070 C 
HETATM    2  C   UNL     1      23.573  47.454  49.142  1.00  0.00     0.037 C 
HETATM    3  N   UNL     1      24.197  48.700  49.095  1.00  0.00    -0.192 N 
HETATM    4  C   UNL     1      25.537  48.842  49.074  1.00  0.00     0.725 A 
HETATM    5  N   UNL     1      26.330  47.755  49.324  1.00  0.00    -0.084 N 
HETATM    6  N   UNL     1      27.636  48.051  49.158  1.00  0.00    -0.149 NA
HETATM    7  C   UNL     1      27.556  49.353  48.861  1.00  0.00     0.275 A 
HETATM    8  N   UNL     1      26.289  49.877  48.802  1.00  0.00    -0.054 NA
HETATM    9  C   UNL     1      25.812  46.427  49.675  1.00  0.00     0.202 C 
HETATM   10  C   UNL     1      24.306  46.348  49.431  1.00  0.00     0.062 C 
HETATM   11  H   UNL     1      23.640  49.490  48.776  1.00  0.00     0.184 HD
ENDROOT
BRANCH  10  12
HETATM   12  C   UNL     1      23.783  44.954  49.373  1.00  0.00     0.256 C 
HETATM   13  N   UNL     1      23.942  44.341  48.149  1.00  0.00    -0.323 N 
HETATM   14  H   UNL     1      24.312  44.907  47.396  1.00  0.00     0.169 HD
HETATM   15  O   UNL     1      23.247  44.487  50.370  1.00  0.00    -0.267 OA
BRANCH  13  16
HETATM   16  C   UNL     1      23.718  42.980  47.846  1.00  0.00     0.035 A 
HETATM   17  C   UNL     1      24.615  41.954  48.151  1.00  0.00     0.031 A 
HETATM   18  C   UNL     1      24.343  40.634  47.772  1.00  0.00     0.026 A 
HETATM   19  C   UNL     1      23.173  40.336  47.083  1.00  0.00     0.034 A 
HETATM   20 CL   UNL     1      22.850  38.717  46.599  1.00  0.00    -0.084 Cl
HETATM   21  C   UNL     1      22.266  41.345  46.776  1.00  0.00     0.026 A 
HETATM   22  C   UNL     1      22.535  42.663  47.163  1.00  0.00     0.031 A 
ENDBRANCH  13  16
ENDBRANCH  10  12
BRANCH   9  23
HETATM   23  C   UNL     1      26.184  46.085  51.117  1.00  0.00    -0.028 A 
HETATM   24  C   UNL     1      25.897  46.954  52.183  1.00  0.00     0.012 A 
HETATM   25  C   UNL     1      26.288  46.631  53.485  1.00  0.00     0.037 A 
HETATM   26  C   UNL     1      26.964  45.441  53.753  1.00  0.00     0.068 A 
HETATM   27  C   UNL     1      27.222  44.555  52.708  1.00  0.00     0.037 A 
HETATM   28  C   UNL     1      26.832  44.873  51.402  1.00  0.00     0.012 A 
BRANCH  26  29
HETATM   29  O   UNL     1      27.309  45.260  55.064  1.00  0.00    -0.356 OA
HETATM   30  C   UNL     1      28.478  45.934  55.513  1.00  0.00     0.210 C 
ENDBRANCH  26  29
ENDBRANCH   9  23
TORSDOF 4
ENDMDL
MODEL 8
REMARK VINA RESULT:      -7.6      4.126      7.666
REMARK  4 active torsions:
REMARK  status: ('A' for Active; 'I' for Inactive)
REMARK    1  A    between atoms: C_9  and  C_10 
REMARK    2  A    between atoms: C_13  and  O_14 
REMARK    3  A    between atoms: C_18  and  C_19 
REMARK       I    between atoms: C_19  and  N_20 
REMARK    4  A    between atoms: N_20  and  C_21 
ROOT
HETATM    1  C   UNL     1      27.647  42.602  52.314  1.00  0.00     0.070 C 
HETATM    2  C   UNL     1      27.113  43.994  52.539  1.00  0.00     0.037 C 
HETATM    3  N   UNL     1      27.833  44.766  53.449  1.00  0.00    -0.192 N 
HETATM    4  C   UNL     1      27.330  45.881  54.015  1.00  0.00     0.725 A 
HETATM    5  N   UNL     1      26.162  46.408  53.534  1.00  0.00    -0.084 N 
HETATM    6  N   UNL     1      25.750  47.454  54.282  1.00  0.00    -0.149 NA
HETATM    7  C   UNL     1      26.753  47.533  55.164  1.00  0.00     0.275 A 
HETATM    8  N   UNL     1      27.741  46.590  55.034  1.00  0.00    -0.054 NA
HETATM    9  C   UNL     1      25.430  45.864  52.384  1.00  0.00     0.202 C 
HETATM   10  C   UNL     1      25.970  44.488  51.997  1.00  0.00     0.062 C 
HETATM   11  H   UNL     1      28.626  44.327  53.911  1.00  0.00     0.184 HD
ENDROOT
BRANCH  10  12
HETATM   12  C   UNL     1      25.046  43.707  51.127  1.00  0.00     0.256 C 
HETATM   13  N   UNL     1      25.466  43.588  49.820  1.00  0.00    -0.323 N 
HETATM   14  H   UNL     1      26.299  44.099  49.556  1.00  0.00     0.169 HD
HETATM   15  O   UNL     1      24.010  43.272  51.614  1.00  0.00    -0.267 OA
BRANCH  13  16
HETATM   16  C   UNL     1      24.904  42.763  48.821  1.00  0.00     0.035 A 
HETATM   17  C   UNL     1      25.325  41.458  48.558  1.00  0.00     0.031 A 
HETATM   18  C   UNL     1      24.751  40.721  47.514  1.00  0.00     0.026 A 
HETATM   19  C   UNL     1      23.756  41.290  46.727  1.00  0.00     0.034 A 
HETATM   20 CL   UNL     1      23.067  40.391  45.432  1.00  0.00    -0.084 Cl
HETATM   21  C   UNL     1      23.321  42.587  46.980  1.00  0.00     0.026 A 
HETATM   22  C   UNL     1      23.890  43.319  48.028  1.00  0.00     0.031 A 
ENDBRANCH  13  16
ENDBRANCH  10  12
BRANCH   9  23
HETATM   23  C   UNL     1      25.477  46.852  51.220  1.00  0.00    -0.028 A 
HETATM   24  C   UNL     1      26.669  47.484  50.829  1.00  0.00     0.012 A 
HETATM   25  C   UNL     1      26.670  48.415  49.787  1.00  0.00     0.037 A 
HETATM   26  C   UNL     1      25.491  48.732  49.113  1.00  0.00     0.068 A 
HETATM   27  C   UNL     1      24.308  48.083  49.468  1.00  0.00     0.037 A 
HETATM   28  C   UNL     1      24.303  47.150  50.511  1.00  0.00     0.012 A 
BRANCH  26  29
HETATM   29  O   UNL     1      25.627  49.674  48.131  1.00  0.00    -0.356 OA
HETATM   30  C   UNL     1      24.443  50.356  47.735  1.00  0.00     0.210 C 
ENDBRANCH  26  29
ENDBRANCH   9  23
TORSDOF 4
ENDMDL
MODEL 9
REMARK VINA RESULT:      -7.5      3.927      5.923
REMARK  4 active torsions:
REMARK  status: ('A' for Active; 'I' for Inactive)
REMARK    1  A    between atoms: C_9  and  C_10 
REMARK    2  A    between atoms: C_13  and  O_14 
REMARK    3  A    between atoms: C_18  and  C_19 
REMARK       I    between atoms: C_19  and  N_20 
REMARK    4  A    between atoms: N_20  and  C_21 
ROOT
HETATM    1  C   UNL     1      26.476  49.927  48.422  1.00  0.00     0.070 C 
HETATM    2  C   UNL     1      25.037  49.493  48.556  1.00  0.00     0.037 C 
HETATM    3  N   UNL     1      24.097  50.395  48.063  1.00  0.00    -0.192 N 
HETATM    4  C   UNL     1      22.790  50.334  48.390  1.00  0.00     0.725 A 
HETATM    5  N   UNL     1      22.315  49.234  49.051  1.00  0.00    -0.084 N 
HETATM    6  N   UNL     1      21.018  49.388  49.392  1.00  0.00    -0.149 NA
HETATM    7  C   UNL     1      20.764  50.586  48.852  1.00  0.00     0.275 A 
HETATM    8  N   UNL     1      21.821  51.198  48.228  1.00  0.00    -0.054 NA
HETATM    9  C   UNL     1      23.135  48.065  49.390  1.00  0.00     0.202 C 
HETATM   10  C   UNL     1      24.620  48.362  49.181  1.00  0.00     0.062 C 
HETATM   11  H   UNL     1      24.443  51.277  47.693  1.00  0.00     0.184 HD
ENDROOT
BRANCH  10  12
HETATM   12  C   UNL     1      25.523  47.398  49.869  1.00  0.00     0.256 C 
HETATM   13  N   UNL     1      25.188  47.147  51.182  1.00  0.00    -0.323 N 
HETATM   14  H   UNL     1      24.430  47.691  51.575  1.00  0.00     0.169 HD
HETATM   15  O   UNL     1      26.475  46.941  49.248  1.00  0.00    -0.267 OA
BRANCH  13  16
HETATM   16  C   UNL     1      25.737  46.154  52.022  1.00  0.00     0.035 A 
HETATM   17  C   UNL     1      26.513  46.428  53.151  1.00  0.00     0.031 A 
HETATM   18  C   UNL     1      27.066  45.386  53.905  1.00  0.00     0.026 A 
HETATM   19  C   UNL     1      26.847  44.065  53.531  1.00  0.00     0.034 A 
HETATM   20 CL   UNL     1      27.544  42.786  54.447  1.00  0.00    -0.084 Cl
HETATM   21  C   UNL     1      26.071  43.775  52.413  1.00  0.00     0.026 A 
HETATM   22  C   UNL     1      25.512  44.817  51.665  1.00  0.00     0.031 A 
ENDBRANCH  13  16
ENDBRANCH  10  12
BRANCH   9  23
HETATM   23  C   UNL     1      22.670  46.851  48.588  1.00  0.00    -0.028 A 
HETATM   24  C   UNL     1      22.859  45.538  49.050  1.00  0.00     0.012 A 
HETATM   25  C   UNL     1      22.459  44.447  48.274  1.00  0.00     0.037 A 
HETATM   26  C   UNL     1      21.862  44.640  47.028  1.00  0.00     0.068 A 
HETATM   27  C   UNL     1      21.636  45.939  46.575  1.00  0.00     0.037 A 
HETATM   28  C   UNL     1      22.034  47.035  47.350  1.00  0.00     0.012 A 
BRANCH  26  29
HETATM   29  O   UNL     1      21.542  43.489  46.362  1.00  0.00    -0.356 OA
HETATM   30  C   UNL     1      20.172  43.309  46.026  1.00  0.00     0.210 C 
ENDBRANCH  26  29
ENDBRANCH   9  23
TORSDOF 4
ENDMDL
MODEL 10
REMARK VINA RESULT:      -7.5      2.841      4.754
REMARK  4 active torsions:
REMARK  status: ('A' for Active; 'I' for Inactive)
REMARK    1  A    between atoms: C_9  and  C_10 
REMARK    2  A    between atoms: C_13  and  O_14 
REMARK    3  A    between atoms: C_18  and  C_19 
REMARK       I    between atoms: C_19  and  N_20 
REMARK    4  A    between atoms: N_20  and  C_21 
ROOT
HETATM    1  C   UNL     1      28.793  40.283  52.843  1.00  0.00     0.070 C 
HETATM    2  C   UNL     1      28.196  40.753  51.540  1.00  0.00     0.037 C 
HETATM    3  N   UNL     1      28.064  39.772  50.560  1.00  0.00    -0.192 N 
HETATM    4  C   UNL     1      27.870  40.065  49.258  1.00  0.00     0.725 A 
HETATM    5  N   UNL     1      27.577  41.353  48.898  1.00  0.00    -0.084 N 
HETATM    6  N   UNL     1      27.522  41.487  47.556  1.00  0.00    -0.149 NA
HETATM    7  C   UNL     1      27.738  40.223  47.175  1.00  0.00     0.275 A 
HETATM    8  N   UNL     1      27.954  39.321  48.186  1.00  0.00    -0.054 NA
HETATM    9  C   UNL     1      27.400  42.450  49.856  1.00  0.00     0.202 C 
HETATM   10  C   UNL     1      27.875  42.040  51.249  1.00  0.00     0.062 C 
HETATM   11  H   UNL     1      28.408  38.840  50.780  1.00  0.00     0.184 HD
ENDROOT
BRANCH  10  12
HETATM   12  C   UNL     1      28.106  43.192  52.164  1.00  0.00     0.256 C 
HETATM   13  N   UNL     1      28.396  42.834  53.463  1.00  0.00    -0.323 N 
HETATM   14  H   UNL     1      28.342  41.849  53.691  1.00  0.00     0.169 HD
HETATM   15  O   UNL     1      27.998  44.328  51.717  1.00  0.00    -0.267 OA
BRANCH  13  16
HETATM   16  C   UNL     1      28.838  43.685  54.499  1.00  0.00     0.035 A 
HETATM   17  C   UNL     1      28.101  44.766  54.990  1.00  0.00     0.031 A 
HETATM   18  C   UNL     1      28.631  45.596  55.985  1.00  0.00     0.026 A 
HETATM   19  C   UNL     1      29.902  45.349  56.492  1.00  0.00     0.034 A 
HETATM   20 CL   UNL     1      30.560  46.382  57.701  1.00  0.00    -0.084 Cl
HETATM   21  C   UNL     1      30.646  44.273  56.019  1.00  0.00     0.026 A 
HETATM   22  C   UNL     1      30.112  43.440  55.030  1.00  0.00     0.031 A 
ENDBRANCH  13  16
ENDBRANCH  10  12
BRANCH   9  23
HETATM   23  C   UNL     1      25.945  42.916  49.855  1.00  0.00    -0.028 A 
HETATM   24  C   UNL     1      24.920  42.151  50.436  1.00  0.00     0.012 A 
HETATM   25  C   UNL     1      23.593  42.584  50.382  1.00  0.00     0.037 A 
HETATM   26  C   UNL     1      23.260  43.785  49.753  1.00  0.00     0.068 A 
HETATM   27  C   UNL     1      24.273  44.569  49.204  1.00  0.00     0.037 A 
HETATM   28  C   UNL     1      25.604  44.139  49.258  1.00  0.00     0.012 A 
BRANCH  26  29
HETATM   29  O   UNL     1      21.924  44.079  49.750  1.00  0.00    -0.356 OA
HETATM   30  C   UNL     1      21.447  44.856  48.659  1.00  0.00     0.210 C 
ENDBRANCH  26  29
ENDBRANCH   9  23
TORSDOF 4
ENDMDL
