MODEL 1
REMARK VINA RESULT:     -11.2      0.000      0.000
REMARK  7 active torsions:
REMARK  status: ('A' for Active; 'I' for Inactive)
REMARK    1  A    between atoms: C_5  and  N_6 
REMARK    2  A    between atoms: N_6  and  C_7 
REMARK    3  A    between atoms: C_7  and  N_8 
REMARK    4  A    between atoms: N_8  and  C_9 
REMARK    5  A    between atoms: C_9  and  C_10 
REMARK    6  A    between atoms: C_10  and  C_11 
REMARK    7  A    between atoms: C_14  and  C_15 
ROOT
HETATM    1  C   UNL     1      25.930  43.244  51.413  1.00  0.00     0.102 C 
HETATM    2  C   UNL     1      26.500  42.154  50.824  1.00  0.00     0.139 C 
HETATM    3  C   UNL     1      26.235  41.827  49.403  1.00  0.00     0.270 C 
HETATM    4  O   UNL     1      25.139  41.981  48.870  1.00  0.00    -0.267 OA
HETATM    5  N   UNL     1      27.310  41.254  48.749  1.00  0.00    -0.270 N 
HETATM    6  C   UNL     1      27.229  41.154  47.304  1.00  0.00     0.164 C 
HETATM    7  C   UNL     1      28.269  40.484  49.386  1.00  0.00     0.333 C 
HETATM    8  O   UNL     1      29.124  39.862  48.751  1.00  0.00    -0.246 OA
HETATM    9  N   UNL     1      28.203  40.430  50.771  1.00  0.00    -0.270 N 
HETATM   10  C   UNL     1      29.163  39.584  51.459  1.00  0.00     0.164 C 
HETATM   11  C   UNL     1      27.454  41.291  51.559  1.00  0.00     0.270 C 
HETATM   12  O   UNL     1      27.609  41.377  52.779  1.00  0.00    -0.267 OA
ENDROOT
BRANCH   1  13
HETATM   13  N   UNL     1      25.163  44.136  50.675  1.00  0.00    -0.245 NA
HETATM   14  H   UNL     1      24.255  44.250  51.119  1.00  0.00     0.135 HD
BRANCH  13  15
HETATM   15  C   UNL     1      25.628  45.406  50.238  1.00  0.00     0.014 A 
HETATM   16  C   UNL     1      24.858  46.574  50.303  1.00  0.00     0.024 A 
HETATM   17  C   UNL     1      25.380  47.803  49.886  1.00  0.00     0.008 A 
HETATM   18  C   UNL     1      26.696  47.897  49.424  1.00  0.00    -0.062 A 
HETATM   19  C   UNL     1      27.238  49.207  48.934  1.00  0.00     0.048 C 
HETATM   20  C   UNL     1      27.479  46.740  49.378  1.00  0.00     0.008 A 
HETATM   21  C   UNL     1      26.954  45.513  49.797  1.00  0.00     0.024 A 
ENDBRANCH  13  15
ENDBRANCH   1  13
BRANCH   1  22
HETATM   22  N   UNL     1      26.042  43.503  52.782  1.00  0.00    -0.379 N 
HETATM   23  H   UNL     1      26.906  43.105  53.175  1.00  0.00     0.160 HD
BRANCH  22  24
HETATM   24  C   UNL     1      25.703  44.786  53.400  1.00  0.00     0.125 C 
BRANCH  24  25
HETATM   25  C   UNL     1      26.856  45.782  53.233  1.00  0.00     0.061 C 
BRANCH  25  26
HETATM   26  C   UNL     1      27.676  45.904  54.483  1.00  0.00    -0.022 A 
HETATM   27  C   UNL     1      28.748  45.037  54.876  1.00  0.00    -0.000 A 
HETATM   28  C   UNL     1      29.222  45.484  56.108  1.00  0.00     0.058 A 
HETATM   29  C   UNL     1      29.349  43.904  54.293  1.00  0.00     0.014 A 
HETATM   30  C   UNL     1      30.275  44.856  56.807  1.00  0.00     0.075 A 
HETATM   31  N   UNL     1      28.474  46.593  56.443  1.00  0.00    -0.358 N 
HETATM   32  C   UNL     1      30.845  43.724  56.187  1.00  0.00     0.018 A 
HETATM   33  C   UNL     1      30.393  43.255  54.956  1.00  0.00     0.002 A 
HETATM   34  H   UNL     1      28.602  47.131  57.290  1.00  0.00     0.166 HD
HETATM   35  C   UNL     1      27.533  46.854  55.480  1.00  0.00     0.013 A 
HETATM   36  C   UNL     1      26.587  47.993  55.607  1.00  0.00     0.068 C 
BRANCH  30  37
HETATM   37  C   UNL     1      30.802  45.321  58.140  1.00  0.00     0.419 C 
HETATM   38  F   UNL     1      31.102  46.652  58.167  1.00  0.00    -0.166 F 
HETATM   39  F   UNL     1      29.914  45.122  59.154  1.00  0.00    -0.166 F 
HETATM   40  F   UNL     1      31.943  44.677  58.509  1.00  0.00    -0.166 F 
ENDBRANCH  30  37
ENDBRANCH  25  26
ENDBRANCH  24  25
ENDBRANCH  22  24
ENDBRANCH   1  22
TORSDOF 7
ENDMDL
MODEL 2
REMARK VINA RESULT:     -10.9      1.757      2.452
REMARK  7 active torsions:
REMARK  status: ('A' for Active; 'I' for Inactive)
REMARK    1  A    between atoms: C_5  and  N_6 
REMARK    2  A    between atoms: N_6  and  C_7 
REMARK    3  A    between atoms: C_7  and  N_8 
REMARK    4  A    between atoms: N_8  and  C_9 
REMARK    5  A    between atoms: C_9  and  C_10 
REMARK    6  A    between atoms: C_10  and  C_11 
REMARK    7  A    between atoms: C_14  and  C_15 
ROOT
HETATM    1  C   UNL     1      24.779  44.387  51.058  1.00  0.00     0.102 C 
HETATM    2  C   UNL     1      24.447  43.475  50.099  1.00  0.00     0.139 C 
HETATM    3  C   UNL     1      23.414  43.780  49.080  1.00  0.00     0.270 C 
HETATM    4  O   UNL     1      22.395  44.419  49.326  1.00  0.00    -0.267 OA
HETATM    5  N   UNL     1      23.661  43.210  47.845  1.00  0.00    -0.270 N 
HETATM    6  C   UNL     1      22.855  43.674  46.730  1.00  0.00     0.164 C 
HETATM    7  C   UNL     1      24.356  42.025  47.676  1.00  0.00     0.333 C 
HETATM    8  O   UNL     1      24.422  41.466  46.579  1.00  0.00    -0.246 OA
HETATM    9  N   UNL     1      24.953  41.489  48.808  1.00  0.00    -0.270 N 
HETATM   10  C   UNL     1      25.642  40.217  48.667  1.00  0.00     0.164 C 
HETATM   11  C   UNL     1      25.146  42.173  49.998  1.00  0.00     0.270 C 
HETATM   12  O   UNL     1      25.892  41.759  50.888  1.00  0.00    -0.267 OA
ENDROOT
BRANCH   1  13
HETATM   13  N   UNL     1      24.233  45.663  51.051  1.00  0.00    -0.245 NA
HETATM   14  H   UNL     1      24.013  45.943  52.004  1.00  0.00     0.135 HD
BRANCH  13  15
HETATM   15  C   UNL     1      24.810  46.767  50.365  1.00  0.00     0.014 A 
HETATM   16  C   UNL     1      26.188  46.915  50.163  1.00  0.00     0.024 A 
HETATM   17  C   UNL     1      26.697  48.008  49.454  1.00  0.00     0.008 A 
HETATM   18  C   UNL     1      25.836  48.961  48.902  1.00  0.00    -0.062 A 
HETATM   19  C   UNL     1      26.386  50.156  48.181  1.00  0.00     0.048 C 
HETATM   20  C   UNL     1      24.458  48.807  49.079  1.00  0.00     0.008 A 
HETATM   21  C   UNL     1      23.953  47.713  49.788  1.00  0.00     0.024 A 
ENDBRANCH  13  15
ENDBRANCH   1  13
BRANCH   1  22
HETATM   22  N   UNL     1      25.641  44.084  52.116  1.00  0.00    -0.379 N 
HETATM   23  H   UNL     1      26.570  43.797  51.780  1.00  0.00     0.160 HD
BRANCH  22  24
HETATM   24  C   UNL     1      25.726  44.868  53.350  1.00  0.00     0.125 C 
BRANCH  24  25
HETATM   25  C   UNL     1      26.829  45.925  53.237  1.00  0.00     0.061 C 
BRANCH  25  26
HETATM   26  C   UNL     1      27.649  46.014  54.490  1.00  0.00    -0.022 A 
HETATM   27  C   UNL     1      28.712  45.129  54.868  1.00  0.00    -0.000 A 
HETATM   28  C   UNL     1      29.189  45.547  56.109  1.00  0.00     0.058 A 
HETATM   29  C   UNL     1      29.302  44.002  54.262  1.00  0.00     0.014 A 
HETATM   30  C   UNL     1      30.235  44.895  56.796  1.00  0.00     0.075 A 
HETATM   31  N   UNL     1      28.451  46.656  56.464  1.00  0.00    -0.358 N 
HETATM   32  C   UNL     1      30.794  43.770  56.155  1.00  0.00     0.018 A 
HETATM   33  C   UNL     1      30.340  43.330  54.914  1.00  0.00     0.002 A 
HETATM   34  H   UNL     1      28.583  47.176  57.323  1.00  0.00     0.166 HD
HETATM   35  C   UNL     1      27.513  46.945  55.506  1.00  0.00     0.013 A 
HETATM   36  C   UNL     1      26.578  48.091  55.654  1.00  0.00     0.068 C 
BRANCH  30  37
HETATM   37  C   UNL     1      30.764  45.328  58.139  1.00  0.00     0.419 C 
HETATM   38  F   UNL     1      31.063  46.659  58.197  1.00  0.00    -0.166 F 
HETATM   39  F   UNL     1      29.879  45.105  59.150  1.00  0.00    -0.166 F 
HETATM   40  F   UNL     1      31.906  44.676  58.490  1.00  0.00    -0.166 F 
ENDBRANCH  30  37
ENDBRANCH  25  26
ENDBRANCH  24  25
ENDBRANCH  22  24
ENDBRANCH   1  22
TORSDOF 7
ENDMDL
MODEL 3
REMARK VINA RESULT:     -10.4      2.969      5.741
REMARK  7 active torsions:
REMARK  status: ('A' for Active; 'I' for Inactive)
REMARK    1  A    between atoms: C_5  and  N_6 
REMARK    2  A    between atoms: N_6  and  C_7 
REMARK    3  A    between atoms: C_7  and  N_8 
REMARK    4  A    between atoms: N_8  and  C_9 
REMARK    5  A    between atoms: C_9  and  C_10 
REMARK    6  A    between atoms: C_10  and  C_11 
REMARK    7  A    between atoms: C_14  and  C_15 
ROOT
HETATM    1  C   UNL     1      24.627  46.217  50.185  1.00  0.00     0.102 C 
HETATM    2  C   UNL     1      23.891  46.973  49.320  1.00  0.00     0.139 C 
HETATM    3  C   UNL     1      22.732  46.396  48.597  1.00  0.00     0.270 C 
HETATM    4  O   UNL     1      22.713  45.248  48.163  1.00  0.00    -0.267 OA
HETATM    5  N   UNL     1      21.704  47.294  48.381  1.00  0.00    -0.270 N 
HETATM    6  C   UNL     1      20.436  46.752  47.929  1.00  0.00     0.164 C 
HETATM    7  C   UNL     1      21.897  48.657  48.238  1.00  0.00     0.333 C 
HETATM    8  O   UNL     1      20.981  49.407  47.893  1.00  0.00    -0.246 OA
HETATM    9  N   UNL     1      23.178  49.131  48.481  1.00  0.00    -0.270 N 
HETATM   10  C   UNL     1      23.420  50.551  48.284  1.00  0.00     0.164 C 
HETATM   11  C   UNL     1      24.179  48.411  49.116  1.00  0.00     0.270 C 
HETATM   12  O   UNL     1      25.212  48.939  49.534  1.00  0.00    -0.267 OA
ENDROOT
BRANCH   1  13
HETATM   13  N   UNL     1      24.256  44.915  50.491  1.00  0.00    -0.245 NA
HETATM   14  H   UNL     1      23.331  44.728  50.110  1.00  0.00     0.135 HD
BRANCH  13  15
HETATM   15  C   UNL     1      25.086  43.782  50.269  1.00  0.00     0.014 A 
HETATM   16  C   UNL     1      26.213  43.802  49.438  1.00  0.00     0.024 A 
HETATM   17  C   UNL     1      27.011  42.664  49.281  1.00  0.00     0.008 A 
HETATM   18  C   UNL     1      26.718  41.489  49.980  1.00  0.00    -0.062 A 
HETATM   19  C   UNL     1      27.547  40.256  49.775  1.00  0.00     0.048 C 
HETATM   20  C   UNL     1      25.608  41.468  50.829  1.00  0.00     0.008 A 
HETATM   21  C   UNL     1      24.813  42.608  50.983  1.00  0.00     0.024 A 
ENDBRANCH  13  15
ENDBRANCH   1  13
BRANCH   1  22
HETATM   22  N   UNL     1      25.806  46.683  50.773  1.00  0.00    -0.379 N 
HETATM   23  H   UNL     1      26.358  47.254  50.119  1.00  0.00     0.160 HD
BRANCH  22  24
HETATM   24  C   UNL     1      25.890  47.191  52.144  1.00  0.00     0.125 C 
BRANCH  24  25
HETATM   25  C   UNL     1      25.699  46.051  53.150  1.00  0.00     0.061 C 
BRANCH  25  26
HETATM   26  C   UNL     1      26.933  45.815  53.969  1.00  0.00    -0.022 A 
HETATM   27  C   UNL     1      27.800  44.676  53.882  1.00  0.00    -0.000 A 
HETATM   28  C   UNL     1      28.807  44.838  54.830  1.00  0.00     0.058 A 
HETATM   29  C   UNL     1      27.805  43.516  53.082  1.00  0.00     0.014 A 
HETATM   30  C   UNL     1      29.837  43.895  55.035  1.00  0.00     0.075 A 
HETATM   31  N   UNL     1      28.570  46.041  55.460  1.00  0.00    -0.358 N 
HETATM   32  C   UNL     1      29.801  42.747  54.215  1.00  0.00     0.018 A 
HETATM   33  C   UNL     1      28.808  42.559  53.258  1.00  0.00     0.002 A 
HETATM   34  H   UNL     1      29.150  46.422  56.198  1.00  0.00     0.166 HD
HETATM   35  C   UNL     1      27.440  46.638  54.961  1.00  0.00     0.013 A 
HETATM   36  C   UNL     1      26.957  47.944  55.480  1.00  0.00     0.068 C 
BRANCH  30  37
HETATM   37  C   UNL     1      30.934  44.048  56.056  1.00  0.00     0.419 C 
HETATM   38  F   UNL     1      30.469  44.321  57.311  1.00  0.00    -0.166 F 
HETATM   39  F   UNL     1      31.697  42.927  56.182  1.00  0.00    -0.166 F 
HETATM   40  F   UNL     1      31.798  45.057  55.754  1.00  0.00    -0.166 F 
ENDBRANCH  30  37
ENDBRANCH  25  26
ENDBRANCH  24  25
ENDBRANCH  22  24
ENDBRANCH   1  22
TORSDOF 7
ENDMDL
MODEL 4
REMARK VINA RESULT:     -10.1      4.271      7.116
REMARK  7 active torsions:
REMARK  status: ('A' for Active; 'I' for Inactive)
REMARK    1  A    between atoms: C_5  and  N_6 
REMARK    2  A    between atoms: N_6  and  C_7 
REMARK    3  A    between atoms: C_7  and  N_8 
REMARK    4  A    between atoms: N_8  and  C_9 
REMARK    5  A    between atoms: C_9  and  C_10 
REMARK    6  A    between atoms: C_10  and  C_11 
REMARK    7  A    between atoms: C_14  and  C_15 
ROOT
HETATM    1  C   UNL     1      27.244  41.720  50.936  1.00  0.00     0.102 C 
HETATM    2  C   UNL     1      27.891  40.825  50.136  1.00  0.00     0.139 C 
HETATM    3  C   UNL     1      28.728  39.747  50.716  1.00  0.00     0.270 C 
HETATM    4  O   UNL     1      29.434  39.904  51.709  1.00  0.00    -0.267 OA
HETATM    5  N   UNL     1      28.710  38.571  49.990  1.00  0.00    -0.270 N 
HETATM    6  C   UNL     1      29.277  37.394  50.622  1.00  0.00     0.164 C 
HETATM    7  C   UNL     1      28.512  38.522  48.620  1.00  0.00     0.333 C 
HETATM    8  O   UNL     1      28.656  37.476  47.984  1.00  0.00    -0.246 OA
HETATM    9  N   UNL     1      28.165  39.714  48.000  1.00  0.00    -0.270 N 
HETATM   10  C   UNL     1      28.005  39.700  46.556  1.00  0.00     0.164 C 
HETATM   11  C   UNL     1      27.734  40.852  48.663  1.00  0.00     0.270 C 
HETATM   12  O   UNL     1      27.202  41.799  48.079  1.00  0.00    -0.267 OA
ENDROOT
BRANCH   1  13
HETATM   13  N   UNL     1      27.269  41.591  52.319  1.00  0.00    -0.245 NA
HETATM   14  H   UNL     1      27.707  40.708  52.569  1.00  0.00     0.135 HD
BRANCH  13  15
HETATM   15  C   UNL     1      27.734  42.606  53.199  1.00  0.00     0.014 A 
HETATM   16  C   UNL     1      26.883  43.409  53.969  1.00  0.00     0.024 A 
HETATM   17  C   UNL     1      27.399  44.372  54.842  1.00  0.00     0.008 A 
HETATM   18  C   UNL     1      28.780  44.531  54.990  1.00  0.00    -0.062 A 
HETATM   19  C   UNL     1      29.331  45.595  55.892  1.00  0.00     0.048 C 
HETATM   20  C   UNL     1      29.636  43.717  54.243  1.00  0.00     0.008 A 
HETATM   21  C   UNL     1      29.116  42.755  53.371  1.00  0.00     0.024 A 
ENDBRANCH  13  15
ENDBRANCH   1  13
BRANCH   1  22
HETATM   22  N   UNL     1      26.564  42.829  50.426  1.00  0.00    -0.379 N 
HETATM   23  H   UNL     1      25.706  43.028  50.960  1.00  0.00     0.160 HD
BRANCH  22  24
HETATM   24  C   UNL     1      27.224  44.057  49.979  1.00  0.00     0.125 C 
BRANCH  24  25
HETATM   25  C   UNL     1      26.902  45.214  50.930  1.00  0.00     0.061 C 
BRANCH  25  26
HETATM   26  C   UNL     1      25.848  46.122  50.370  1.00  0.00    -0.022 A 
HETATM   27  C   UNL     1      26.073  47.392  49.744  1.00  0.00    -0.000 A 
HETATM   28  C   UNL     1      24.831  47.916  49.392  1.00  0.00     0.058 A 
HETATM   29  C   UNL     1      27.230  48.144  49.455  1.00  0.00     0.014 A 
HETATM   30  C   UNL     1      24.670  49.169  48.762  1.00  0.00     0.075 A 
HETATM   31  N   UNL     1      23.886  46.990  49.778  1.00  0.00    -0.358 N 
HETATM   32  C   UNL     1      25.854  49.888  48.495  1.00  0.00     0.018 A 
HETATM   33  C   UNL     1      27.109  49.389  48.833  1.00  0.00     0.002 A 
HETATM   34  H   UNL     1      22.889  47.104  49.642  1.00  0.00     0.166 HD
HETATM   35  C   UNL     1      24.480  45.908  50.377  1.00  0.00     0.013 A 
HETATM   36  C   UNL     1      23.677  44.770  50.895  1.00  0.00     0.068 C 
BRANCH  30  37
HETATM   37  C   UNL     1      23.337  49.755  48.375  1.00  0.00     0.419 C 
HETATM   38  F   UNL     1      22.571  48.908  47.627  1.00  0.00    -0.166 F 
HETATM   39  F   UNL     1      22.574  50.085  49.454  1.00  0.00    -0.166 F 
HETATM   40  F   UNL     1      23.456  50.894  47.638  1.00  0.00    -0.166 F 
ENDBRANCH  30  37
ENDBRANCH  25  26
ENDBRANCH  24  25
ENDBRANCH  22  24
ENDBRANCH   1  22
TORSDOF 7
ENDMDL
MODEL 5
REMARK VINA RESULT:      -9.6      2.393      4.947
REMARK  7 active torsions:
REMARK  status: ('A' for Active; 'I' for Inactive)
REMARK    1  A    between atoms: C_5  and  N_6 
REMARK    2  A    between atoms: N_6  and  C_7 
REMARK    3  A    between atoms: C_7  and  N_8 
REMARK    4  A    between atoms: N_8  and  C_9 
REMARK    5  A    between atoms: C_9  and  C_10 
REMARK    6  A    between atoms: C_10  and  C_11 
REMARK    7  A    between atoms: C_14  and  C_15 
ROOT
HETATM    1  C   UNL     1      26.151  41.273  50.284  1.00  0.00     0.102 C 
HETATM    2  C   UNL     1      26.269  40.479  49.182  1.00  0.00     0.139 C 
HETATM    3  C   UNL     1      27.027  39.205  49.236  1.00  0.00     0.270 C 
HETATM    4  O   UNL     1      28.061  39.064  49.884  1.00  0.00    -0.267 OA
HETATM    5  N   UNL     1      26.511  38.211  48.426  1.00  0.00    -0.270 N 
HETATM    6  C   UNL     1      27.021  36.867  48.621  1.00  0.00     0.164 C 
HETATM    7  C   UNL     1      25.823  38.464  47.252  1.00  0.00     0.333 C 
HETATM    8  O   UNL     1      25.513  37.557  46.475  1.00  0.00    -0.246 OA
HETATM    9  N   UNL     1      25.520  39.792  46.983  1.00  0.00    -0.270 N 
HETATM   10  C   UNL     1      24.847  40.089  45.730  1.00  0.00     0.164 C 
HETATM   11  C   UNL     1      25.597  40.821  47.908  1.00  0.00     0.270 C 
HETATM   12  O   UNL     1      25.090  41.928  47.712  1.00  0.00    -0.267 OA
ENDROOT
BRANCH   1  13
HETATM   13  N   UNL     1      26.651  40.868  51.515  1.00  0.00    -0.245 NA
HETATM   14  H   UNL     1      26.917  39.887  51.467  1.00  0.00     0.135 HD
BRANCH  13  15
HETATM   15  C   UNL     1      27.643  41.582  52.240  1.00  0.00     0.014 A 
HETATM   16  C   UNL     1      28.198  42.792  51.803  1.00  0.00     0.024 A 
HETATM   17  C   UNL     1      29.151  43.466  52.573  1.00  0.00     0.008 A 
HETATM   18  C   UNL     1      29.546  42.962  53.816  1.00  0.00    -0.062 A 
HETATM   19  C   UNL     1      30.601  43.662  54.620  1.00  0.00     0.048 C 
HETATM   20  C   UNL     1      28.980  41.768  54.271  1.00  0.00     0.008 A 
HETATM   21  C   UNL     1      28.027  41.097  53.497  1.00  0.00     0.024 A 
ENDBRANCH  13  15
ENDBRANCH   1  13
BRANCH   1  22
HETATM   22  N   UNL     1      25.569  42.543  50.236  1.00  0.00    -0.379 N 
HETATM   23  H   UNL     1      25.560  42.921  49.279  1.00  0.00     0.160 HD
BRANCH  22  24
HETATM   24  C   UNL     1      24.367  42.919  50.981  1.00  0.00     0.125 C 
BRANCH  24  25
HETATM   25  C   UNL     1      24.023  44.392  50.735  1.00  0.00     0.061 C 
BRANCH  25  26
HETATM   26  C   UNL     1      24.866  45.310  51.569  1.00  0.00    -0.022 A 
HETATM   27  C   UNL     1      25.438  45.003  52.847  1.00  0.00    -0.000 A 
HETATM   28  C   UNL     1      26.122  46.135  53.287  1.00  0.00     0.058 A 
HETATM   29  C   UNL     1      25.422  43.860  53.672  1.00  0.00     0.014 A 
HETATM   30  C   UNL     1      26.801  46.197  54.522  1.00  0.00     0.075 A 
HETATM   31  N   UNL     1      25.984  47.090  52.302  1.00  0.00    -0.358 N 
HETATM   32  C   UNL     1      26.757  45.032  55.317  1.00  0.00     0.018 A 
HETATM   33  C   UNL     1      26.082  43.886  54.903  1.00  0.00     0.002 A 
HETATM   34  H   UNL     1      26.385  48.018  52.349  1.00  0.00     0.166 HD
HETATM   35  C   UNL     1      25.223  46.613  51.265  1.00  0.00     0.013 A 
HETATM   36  C   UNL     1      24.914  47.454  50.079  1.00  0.00     0.068 C 
BRANCH  30  37
HETATM   37  C   UNL     1      27.545  47.410  55.018  1.00  0.00     0.419 C 
HETATM   38  F   UNL     1      28.242  47.182  56.170  1.00  0.00    -0.166 F 
HETATM   39  F   UNL     1      28.459  47.871  54.119  1.00  0.00    -0.166 F 
HETATM   40  F   UNL     1      26.721  48.461  55.286  1.00  0.00    -0.166 F 
ENDBRANCH  30  37
ENDBRANCH  25  26
ENDBRANCH  24  25
ENDBRANCH  22  24
ENDBRANCH   1  22
TORSDOF 7
ENDMDL
MODEL 6
REMARK VINA RESULT:      -9.6     12.369     14.434
REMARK  7 active torsions:
REMARK  status: ('A' for Active; 'I' for Inactive)
REMARK    1  A    between atoms: C_5  and  N_6 
REMARK    2  A    between atoms: N_6  and  C_7 
REMARK    3  A    between atoms: C_7  and  N_8 
REMARK    4  A    between atoms: N_8  and  C_9 
REMARK    5  A    between atoms: C_9  and  C_10 
REMARK    6  A    between atoms: C_10  and  C_11 
REMARK    7  A    between atoms: C_14  and  C_15 
ROOT
HETATM    1  C   UNL     1      27.305  49.140  39.116  1.00  0.00     0.102 C 
HETATM    2  C   UNL     1      26.363  48.264  38.661  1.00  0.00     0.139 C 
HETATM    3  C   UNL     1      25.887  47.146  39.510  1.00  0.00     0.270 C 
HETATM    4  O   UNL     1      26.622  46.511  40.262  1.00  0.00    -0.267 OA
HETATM    5  N   UNL     1      24.556  46.824  39.318  1.00  0.00    -0.270 N 
HETATM    6  C   UNL     1      23.944  45.935  40.287  1.00  0.00     0.164 C 
HETATM    7  C   UNL     1      23.892  47.007  38.117  1.00  0.00     0.333 C 
HETATM    8  O   UNL     1      22.754  46.568  37.934  1.00  0.00    -0.246 OA
HETATM    9  N   UNL     1      24.580  47.690  37.124  1.00  0.00    -0.270 N 
HETATM   10  C   UNL     1      23.926  47.847  35.836  1.00  0.00     0.164 C 
HETATM   11  C   UNL     1      25.734  48.431  37.331  1.00  0.00     0.270 C 
HETATM   12  O   UNL     1      26.175  49.219  36.491  1.00  0.00    -0.267 OA
ENDROOT
BRANCH   1  13
HETATM   13  N   UNL     1      27.775  49.070  40.421  1.00  0.00    -0.245 NA
HETATM   14  H   UNL     1      27.163  48.471  40.970  1.00  0.00     0.135 HD
BRANCH  13  15
HETATM   15  C   UNL     1      29.126  48.791  40.762  1.00  0.00     0.014 A 
HETATM   16  C   UNL     1      29.594  48.740  42.081  1.00  0.00     0.024 A 
HETATM   17  C   UNL     1      30.930  48.430  42.359  1.00  0.00     0.008 A 
HETATM   18  C   UNL     1      31.820  48.132  41.322  1.00  0.00    -0.062 A 
HETATM   19  C   UNL     1      33.263  47.846  41.619  1.00  0.00     0.048 C 
HETATM   20  C   UNL     1      31.355  48.159  40.005  1.00  0.00     0.008 A 
HETATM   21  C   UNL     1      30.019  48.468  39.732  1.00  0.00     0.024 A 
ENDBRANCH  13  15
ENDBRANCH   1  13
BRANCH   1  22
HETATM   22  N   UNL     1      27.880  50.116  38.299  1.00  0.00    -0.379 N 
HETATM   23  H   UNL     1      27.903  49.822  37.312  1.00  0.00     0.160 HD
BRANCH  22  24
HETATM   24  C   UNL     1      27.620  51.551  38.433  1.00  0.00     0.125 C 
BRANCH  24  25
HETATM   25  C   UNL     1      28.937  52.333  38.462  1.00  0.00     0.061 C 
BRANCH  25  26
HETATM   26  C   UNL     1      29.600  52.264  39.807  1.00  0.00    -0.022 A 
HETATM   27  C   UNL     1      30.987  51.998  40.051  1.00  0.00    -0.000 A 
HETATM   28  C   UNL     1      31.180  51.997  41.431  1.00  0.00     0.058 A 
HETATM   29  C   UNL     1      32.092  51.747  39.215  1.00  0.00     0.014 A 
HETATM   30  C   UNL     1      32.431  51.754  42.038  1.00  0.00     0.075 A 
HETATM   31  N   UNL     1      29.955  52.269  42.004  1.00  0.00    -0.358 N 
HETATM   32  C   UNL     1      33.509  51.505  41.163  1.00  0.00     0.018 A 
HETATM   33  C   UNL     1      33.346  51.501  39.780  1.00  0.00     0.002 A 
HETATM   34  H   UNL     1      29.795  52.336  43.001  1.00  0.00     0.166 HD
HETATM   35  C   UNL     1      28.991  52.423  41.040  1.00  0.00     0.013 A 
HETATM   36  C   UNL     1      27.577  52.713  41.396  1.00  0.00     0.068 C 
BRANCH  30  37
HETATM   37  C   UNL     1      32.661  51.747  43.527  1.00  0.00     0.419 C 
HETATM   38  F   UNL     1      33.946  52.050  43.875  1.00  0.00    -0.166 F 
HETATM   39  F   UNL     1      31.879  52.647  44.185  1.00  0.00    -0.166 F 
HETATM   40  F   UNL     1      32.399  50.537  44.095  1.00  0.00    -0.166 F 
ENDBRANCH  30  37
ENDBRANCH  25  26
ENDBRANCH  24  25
ENDBRANCH  22  24
ENDBRANCH   1  22
TORSDOF 7
ENDMDL
MODEL 7
REMARK VINA RESULT:      -9.4     11.485     15.418
REMARK  7 active torsions:
REMARK  status: ('A' for Active; 'I' for Inactive)
REMARK    1  A    between atoms: C_5  and  N_6 
REMARK    2  A    between atoms: N_6  and  C_7 
REMARK    3  A    between atoms: C_7  and  N_8 
REMARK    4  A    between atoms: N_8  and  C_9 
REMARK    5  A    between atoms: C_9  and  C_10 
REMARK    6  A    between atoms: C_10  and  C_11 
REMARK    7  A    between atoms: C_14  and  C_15 
ROOT
HETATM    1  C   UNL     1      15.427  52.462  48.186  1.00  0.00     0.102 C 
HETATM    2  C   UNL     1      14.802  53.599  48.608  1.00  0.00     0.139 C 
HETATM    3  C   UNL     1      14.747  53.952  50.047  1.00  0.00     0.270 C 
HETATM    4  O   UNL     1      14.601  53.121  50.939  1.00  0.00    -0.267 OA
HETATM    5  N   UNL     1      14.791  55.312  50.292  1.00  0.00    -0.270 N 
HETATM    6  C   UNL     1      15.014  55.730  51.664  1.00  0.00     0.164 C 
HETATM    7  C   UNL     1      14.309  56.264  49.410  1.00  0.00     0.333 C 
HETATM    8  O   UNL     1      14.221  57.452  49.726  1.00  0.00    -0.246 OA
HETATM    9  N   UNL     1      13.908  55.807  48.163  1.00  0.00    -0.270 N 
HETATM   10  C   UNL     1      13.346  56.778  47.239  1.00  0.00     0.164 C 
HETATM   11  C   UNL     1      14.212  54.557  47.645  1.00  0.00     0.270 C 
HETATM   12  O   UNL     1      14.057  54.278  46.454  1.00  0.00    -0.267 OA
ENDROOT
BRANCH   1  13
HETATM   13  N   UNL     1      16.114  51.651  49.080  1.00  0.00    -0.245 NA
HETATM   14  H   UNL     1      15.695  50.724  49.088  1.00  0.00     0.135 HD
BRANCH  13  15
HETATM   15  C   UNL     1      17.529  51.520  49.101  1.00  0.00     0.014 A 
HETATM   16  C   UNL     1      18.383  52.227  48.246  1.00  0.00     0.024 A 
HETATM   17  C   UNL     1      19.772  52.080  48.333  1.00  0.00     0.008 A 
HETATM   18  C   UNL     1      20.339  51.245  49.301  1.00  0.00    -0.062 A 
HETATM   19  C   UNL     1      21.825  51.053  49.363  1.00  0.00     0.048 C 
HETATM   20  C   UNL     1      19.494  50.554  50.174  1.00  0.00     0.008 A 
HETATM   21  C   UNL     1      18.107  50.705  50.084  1.00  0.00     0.024 A 
ENDBRANCH  13  15
ENDBRANCH   1  13
BRANCH   1  22
HETATM   22  N   UNL     1      15.377  52.025  46.860  1.00  0.00    -0.379 N 
HETATM   23  H   UNL     1      16.281  52.151  46.384  1.00  0.00     0.160 HD
BRANCH  22  24
HETATM   24  C   UNL     1      14.700  50.801  46.428  1.00  0.00     0.125 C 
BRANCH  24  25
HETATM   25  C   UNL     1      15.468  50.142  45.278  1.00  0.00     0.061 C 
BRANCH  25  26
HETATM   26  C   UNL     1      16.836  49.696  45.702  1.00  0.00    -0.022 A 
HETATM   27  C   UNL     1      17.136  48.802  46.781  1.00  0.00    -0.000 A 
HETATM   28  C   UNL     1      18.522  48.674  46.852  1.00  0.00     0.058 A 
HETATM   29  C   UNL     1      16.344  48.098  47.711  1.00  0.00     0.014 A 
HETATM   30  C   UNL     1      19.177  47.875  47.812  1.00  0.00     0.075 A 
HETATM   31  N   UNL     1      19.044  49.452  45.840  1.00  0.00    -0.358 N 
HETATM   32  C   UNL     1      18.347  47.191  48.724  1.00  0.00     0.018 A 
HETATM   33  C   UNL     1      16.959  47.298  48.677  1.00  0.00     0.002 A 
HETATM   34  H   UNL     1      20.033  49.547  45.649  1.00  0.00     0.166 HD
HETATM   35  C   UNL     1      18.044  50.082  45.144  1.00  0.00     0.013 A 
HETATM   36  C   UNL     1      18.343  50.991  44.007  1.00  0.00     0.068 C 
BRANCH  30  37
HETATM   37  C   UNL     1      20.674  47.724  47.908  1.00  0.00     0.419 C 
HETATM   38  F   UNL     1      21.133  47.713  49.194  1.00  0.00    -0.166 F 
HETATM   39  F   UNL     1      21.123  46.568  47.346  1.00  0.00    -0.166 F 
HETATM   40  F   UNL     1      21.346  48.731  47.283  1.00  0.00    -0.166 F 
ENDBRANCH  30  37
ENDBRANCH  25  26
ENDBRANCH  24  25
ENDBRANCH  22  24
ENDBRANCH   1  22
TORSDOF 7
ENDMDL
MODEL 8
REMARK VINA RESULT:      -9.4      8.969     12.358
REMARK  7 active torsions:
REMARK  status: ('A' for Active; 'I' for Inactive)
REMARK    1  A    between atoms: C_5  and  N_6 
REMARK    2  A    between atoms: N_6  and  C_7 
REMARK    3  A    between atoms: C_7  and  N_8 
REMARK    4  A    between atoms: N_8  and  C_9 
REMARK    5  A    between atoms: C_9  and  C_10 
REMARK    6  A    between atoms: C_10  and  C_11 
REMARK    7  A    between atoms: C_14  and  C_15 
ROOT
HETATM    1  C   UNL     1      22.127  48.034  48.811  1.00  0.00     0.102 C 
HETATM    2  C   UNL     1      23.117  47.131  49.066  1.00  0.00     0.139 C 
HETATM    3  C   UNL     1      24.221  47.452  50.002  1.00  0.00     0.270 C 
HETATM    4  O   UNL     1      24.733  48.565  50.083  1.00  0.00    -0.267 OA
HETATM    5  N   UNL     1      24.681  46.363  50.719  1.00  0.00    -0.270 N 
HETATM    6  C   UNL     1      25.564  46.634  51.840  1.00  0.00     0.164 C 
HETATM    7  C   UNL     1      24.639  45.063  50.246  1.00  0.00     0.333 C 
HETATM    8  O   UNL     1      25.197  44.139  50.842  1.00  0.00    -0.246 OA
HETATM    9  N   UNL     1      23.956  44.858  49.056  1.00  0.00    -0.270 N 
HETATM   10  C   UNL     1      23.944  43.511  48.509  1.00  0.00     0.164 C 
HETATM   11  C   UNL     1      23.095  45.775  48.472  1.00  0.00     0.270 C 
HETATM   12  O   UNL     1      22.322  45.471  47.560  1.00  0.00    -0.267 OA
ENDROOT
BRANCH   1  13
HETATM   13  N   UNL     1      22.069  49.243  49.492  1.00  0.00    -0.245 NA
HETATM   14  H   UNL     1      22.939  49.752  49.355  1.00  0.00     0.135 HD
BRANCH  13  15
HETATM   15  C   UNL     1      20.980  50.152  49.400  1.00  0.00     0.014 A 
HETATM   16  C   UNL     1      20.920  51.191  48.463  1.00  0.00     0.024 A 
HETATM   17  C   UNL     1      19.808  52.038  48.398  1.00  0.00     0.008 A 
HETATM   18  C   UNL     1      18.716  51.842  49.249  1.00  0.00    -0.062 A 
HETATM   19  C   UNL     1      17.545  52.779  49.210  1.00  0.00     0.048 C 
HETATM   20  C   UNL     1      18.758  50.793  50.171  1.00  0.00     0.008 A 
HETATM   21  C   UNL     1      19.872  49.949  50.232  1.00  0.00     0.024 A 
ENDBRANCH  13  15
ENDBRANCH   1  13
BRANCH   1  22
HETATM   22  N   UNL     1      21.152  47.824  47.832  1.00  0.00    -0.379 N 
HETATM   23  H   UNL     1      21.553  47.408  46.979  1.00  0.00     0.160 HD
BRANCH  22  24
HETATM   24  C   UNL     1      19.812  47.308  48.112  1.00  0.00     0.125 C 
BRANCH  24  25
HETATM   25  C   UNL     1      18.950  47.340  46.846  1.00  0.00     0.061 C 
BRANCH  25  26
HETATM   26  C   UNL     1      17.899  48.408  46.911  1.00  0.00    -0.022 A 
HETATM   27  C   UNL     1      17.828  49.575  46.082  1.00  0.00    -0.000 A 
HETATM   28  C   UNL     1      16.718  50.314  46.487  1.00  0.00     0.058 A 
HETATM   29  C   UNL     1      18.622  50.070  45.028  1.00  0.00     0.014 A 
HETATM   30  C   UNL     1      16.348  51.541  45.895  1.00  0.00     0.075 A 
HETATM   31  N   UNL     1      16.127  49.612  47.515  1.00  0.00    -0.358 N 
HETATM   32  C   UNL     1      17.171  52.000  44.846  1.00  0.00     0.018 A 
HETATM   33  C   UNL     1      18.286  51.282  44.419  1.00  0.00     0.002 A 
HETATM   34  H   UNL     1      15.292  49.912  48.003  1.00  0.00     0.166 HD
HETATM   35  C   UNL     1      16.830  48.467  47.790  1.00  0.00     0.013 A 
HETATM   36  C   UNL     1      16.406  47.535  48.867  1.00  0.00     0.068 C 
BRANCH  30  37
HETATM   37  C   UNL     1      15.154  52.357  46.317  1.00  0.00     0.419 C 
HETATM   38  F   UNL     1      15.251  53.674  45.972  1.00  0.00    -0.166 F 
HETATM   39  F   UNL     1      13.991  51.916  45.762  1.00  0.00    -0.166 F 
HETATM   40  F   UNL     1      14.955  52.341  47.665  1.00  0.00    -0.166 F 
ENDBRANCH  30  37
ENDBRANCH  25  26
ENDBRANCH  24  25
ENDBRANCH  22  24
ENDBRANCH   1  22
TORSDOF 7
ENDMDL
MODEL 9
REMARK VINA RESULT:      -9.3      4.993      8.742
REMARK  7 active torsions:
REMARK  status: ('A' for Active; 'I' for Inactive)
REMARK    1  A    between atoms: C_5  and  N_6 
REMARK    2  A    between atoms: N_6  and  C_7 
REMARK    3  A    between atoms: C_7  and  N_8 
REMARK    4  A    between atoms: N_8  and  C_9 
REMARK    5  A    between atoms: C_9  and  C_10 
REMARK    6  A    between atoms: C_10  and  C_11 
REMARK    7  A    between atoms: C_14  and  C_15 
ROOT
HETATM    1  C   UNL     1      26.685  43.791  51.826  1.00  0.00     0.102 C 
HETATM    2  C   UNL     1      25.650  44.540  51.349  1.00  0.00     0.139 C 
HETATM    3  C   UNL     1      25.791  46.003  51.152  1.00  0.00     0.270 C 
HETATM    4  O   UNL     1      26.425  46.726  51.915  1.00  0.00    -0.267 OA
HETATM    5  N   UNL     1      25.076  46.495  50.076  1.00  0.00    -0.270 N 
HETATM    6  C   UNL     1      25.369  47.852  49.652  1.00  0.00     0.164 C 
HETATM    7  C   UNL     1      23.901  45.927  49.616  1.00  0.00     0.333 C 
HETATM    8  O   UNL     1      23.209  46.479  48.758  1.00  0.00    -0.246 OA
HETATM    9  N   UNL     1      23.531  44.717  50.187  1.00  0.00    -0.270 N 
HETATM   10  C   UNL     1      22.273  44.128  49.760  1.00  0.00     0.164 C 
HETATM   11  C   UNL     1      24.367  43.916  50.950  1.00  0.00     0.270 C 
HETATM   12  O   UNL     1      24.092  42.747  51.229  1.00  0.00    -0.267 OA
ENDROOT
BRANCH   1  13
HETATM   13  N   UNL     1      27.934  44.357  52.048  1.00  0.00    -0.245 NA
HETATM   14  H   UNL     1      27.870  45.368  51.953  1.00  0.00     0.135 HD
BRANCH  13  15
HETATM   15  C   UNL     1      28.755  44.048  53.166  1.00  0.00     0.014 A 
HETATM   16  C   UNL     1      29.792  43.107  53.125  1.00  0.00     0.024 A 
HETATM   17  C   UNL     1      30.588  42.865  54.249  1.00  0.00     0.008 A 
HETATM   18  C   UNL     1      30.386  43.584  55.431  1.00  0.00    -0.062 A 
HETATM   19  C   UNL     1      31.210  43.291  56.650  1.00  0.00     0.048 C 
HETATM   20  C   UNL     1      29.369  44.542  55.473  1.00  0.00     0.008 A 
HETATM   21  C   UNL     1      28.576  44.781  54.346  1.00  0.00     0.024 A 
ENDBRANCH  13  15
ENDBRANCH   1  13
BRANCH   1  22
HETATM   22  N   UNL     1      26.546  42.441  52.157  1.00  0.00    -0.379 N 
HETATM   23  H   UNL     1      25.580  42.214  52.432  1.00  0.00     0.160 HD
BRANCH  22  24
HETATM   24  C   UNL     1      27.171  41.348  51.411  1.00  0.00     0.125 C 
BRANCH  24  25
HETATM   25  C   UNL     1      26.104  40.388  50.875  1.00  0.00     0.061 C 
BRANCH  25  26
HETATM   26  C   UNL     1      26.356  40.013  49.444  1.00  0.00    -0.022 A 
HETATM   27  C   UNL     1      27.438  39.205  48.962  1.00  0.00    -0.000 A 
HETATM   28  C   UNL     1      27.318  39.123  47.576  1.00  0.00     0.058 A 
HETATM   29  C   UNL     1      28.514  38.544  49.587  1.00  0.00     0.014 A 
HETATM   30  C   UNL     1      28.225  38.412  46.761  1.00  0.00     0.075 A 
HETATM   31  N   UNL     1      26.194  39.844  47.231  1.00  0.00    -0.358 N 
HETATM   32  C   UNL     1      29.289  37.769  47.429  1.00  0.00     0.018 A 
HETATM   33  C   UNL     1      29.433  37.831  48.813  1.00  0.00     0.002 A 
HETATM   34  H   UNL     1      25.859  39.955  46.283  1.00  0.00     0.166 HD
HETATM   35  C   UNL     1      25.609  40.394  48.343  1.00  0.00     0.013 A 
HETATM   36  C   UNL     1      24.384  41.230  48.242  1.00  0.00     0.068 C 
BRANCH  30  37
HETATM   37  C   UNL     1      28.117  38.313  45.262  1.00  0.00     0.419 C 
HETATM   38  F   UNL     1      29.097  37.546  44.700  1.00  0.00    -0.166 F 
HETATM   39  F   UNL     1      26.939  37.761  44.855  1.00  0.00    -0.166 F 
HETATM   40  F   UNL     1      28.196  39.525  44.646  1.00  0.00    -0.166 F 
ENDBRANCH  30  37
ENDBRANCH  25  26
ENDBRANCH  24  25
ENDBRANCH  22  24
ENDBRANCH   1  22
TORSDOF 7
ENDMDL
MODEL 10
REMARK VINA RESULT:      -9.2      7.964     11.424
REMARK  7 active torsions:
REMARK  status: ('A' for Active; 'I' for Inactive)
REMARK    1  A    between atoms: C_5  and  N_6 
REMARK    2  A    between atoms: N_6  and  C_7 
REMARK    3  A    between atoms: C_7  and  N_8 
REMARK    4  A    between atoms: N_8  and  C_9 
REMARK    5  A    between atoms: C_9  and  C_10 
REMARK    6  A    between atoms: C_10  and  C_11 
REMARK    7  A    between atoms: C_14  and  C_15 
ROOT
HETATM    1  C   UNL     1      22.304  46.856  47.988  1.00  0.00     0.102 C 
HETATM    2  C   UNL     1      23.127  46.150  48.815  1.00  0.00     0.139 C 
HETATM    3  C   UNL     1      24.230  46.817  49.548  1.00  0.00     0.270 C 
HETATM    4  O   UNL     1      24.907  47.722  49.067  1.00  0.00    -0.267 OA
HETATM    5  N   UNL     1      24.483  46.275  50.794  1.00  0.00    -0.270 N 
HETATM    6  C   UNL     1      25.351  47.029  51.680  1.00  0.00     0.164 C 
HETATM    7  C   UNL     1      24.256  44.946  51.109  1.00  0.00     0.333 C 
HETATM    8  O   UNL     1      24.637  44.460  52.177  1.00  0.00    -0.246 OA
HETATM    9  N   UNL     1      23.598  44.185  50.153  1.00  0.00    -0.270 N 
HETATM   10  C   UNL     1      23.396  42.774  50.437  1.00  0.00     0.164 C 
HETATM   11  C   UNL     1      22.916  44.705  49.063  1.00  0.00     0.270 C 
HETATM   12  O   UNL     1      22.143  44.029  48.381  1.00  0.00    -0.267 OA
ENDROOT
BRANCH   1  13
HETATM   13  N   UNL     1      22.409  48.237  47.883  1.00  0.00    -0.245 NA
HETATM   14  H   UNL     1      22.651  48.487  46.927  1.00  0.00     0.135 HD
BRANCH  13  15
HETATM   15  C   UNL     1      21.428  49.144  48.366  1.00  0.00     0.014 A 
HETATM   16  C   UNL     1      20.365  48.763  49.195  1.00  0.00     0.024 A 
HETATM   17  C   UNL     1      19.445  49.706  49.664  1.00  0.00     0.008 A 
HETATM   18  C   UNL     1      19.587  51.059  49.342  1.00  0.00    -0.062 A 
HETATM   19  C   UNL     1      18.574  52.062  49.808  1.00  0.00     0.048 C 
HETATM   20  C   UNL     1      20.659  51.451  48.535  1.00  0.00     0.008 A 
HETATM   21  C   UNL     1      21.576  50.505  48.068  1.00  0.00     0.024 A 
ENDBRANCH  13  15
ENDBRANCH   1  13
BRANCH   1  22
HETATM   22  N   UNL     1      21.349  46.241  47.175  1.00  0.00    -0.379 N 
HETATM   23  H   UNL     1      20.418  46.665  47.294  1.00  0.00     0.160 HD
BRANCH  22  24
HETATM   24  C   UNL     1      21.592  45.843  45.787  1.00  0.00     0.125 C 
BRANCH  24  25
HETATM   25  C   UNL     1      20.493  46.394  44.872  1.00  0.00     0.061 C 
BRANCH  25  26
HETATM   26  C   UNL     1      19.259  46.764  45.640  1.00  0.00    -0.022 A 
HETATM   27  C   UNL     1      18.758  48.092  45.843  1.00  0.00    -0.000 A 
HETATM   28  C   UNL     1      17.611  47.995  46.629  1.00  0.00     0.058 A 
HETATM   29  C   UNL     1      19.191  49.369  45.433  1.00  0.00     0.014 A 
HETATM   30  C   UNL     1      16.858  49.115  47.040  1.00  0.00     0.075 A 
HETATM   31  N   UNL     1      17.414  46.654  46.880  1.00  0.00    -0.358 N 
HETATM   32  C   UNL     1      17.328  50.374  46.609  1.00  0.00     0.018 A 
HETATM   33  C   UNL     1      18.470  50.501  45.822  1.00  0.00     0.002 A 
HETATM   34  H   UNL     1      16.647  46.284  47.427  1.00  0.00     0.166 HD
HETATM   35  C   UNL     1      18.402  45.899  46.300  1.00  0.00     0.013 A 
HETATM   36  C   UNL     1      18.427  44.419  46.432  1.00  0.00     0.068 C 
BRANCH  30  37
HETATM   37  C   UNL     1      15.617  49.034  47.891  1.00  0.00     0.419 C 
HETATM   38  F   UNL     1      15.330  50.201  48.539  1.00  0.00    -0.166 F 
HETATM   39  F   UNL     1      14.503  48.730  47.168  1.00  0.00    -0.166 F 
HETATM   40  F   UNL     1      15.705  48.084  48.862  1.00  0.00    -0.166 F 
ENDBRANCH  30  37
ENDBRANCH  25  26
ENDBRANCH  24  25
ENDBRANCH  22  24
ENDBRANCH   1  22
TORSDOF 7
ENDMDL
