MODEL 1
REMARK VINA RESULT:      -8.5      0.000      0.000
REMARK  5 active torsions:
REMARK  status: ('A' for Active; 'I' for Inactive)
REMARK    1  A    between atoms: C_2  and  C_3 
REMARK    2  A    between atoms: C_3  and  N_4 
REMARK    3  A    between atoms: C_3  and  C_19 
REMARK       I    between atoms: N_4  and  C_5 
REMARK       I    between atoms: C_5  and  N_6 
REMARK    4  A    between atoms: N_6  and  C_7 
REMARK    5  A    between atoms: C_12  and  C_13 
ROOT
HETATM    1  N   UNL     1      26.130  45.192  51.780  1.00  0.00    -0.334 N 
HETATM    2  C   UNL     1      25.512  44.447  52.721  1.00  0.00     0.321 C 
HETATM    3  N   UNL     1      25.973  44.490  54.000  1.00  0.00    -0.306 N 
HETATM    4  O   UNL     1      24.483  43.811  52.496  1.00  0.00    -0.247 OA
HETATM    5  H   UNL     1      27.091  45.441  51.940  1.00  0.00     0.165 HD
HETATM    6  H   UNL     1      25.281  44.072  54.612  1.00  0.00     0.171 HD
ENDROOT
BRANCH   1   7
HETATM    7  C   UNL     1      25.668  45.244  50.406  1.00  0.00     0.122 C 
BRANCH   7   8
HETATM    8  C   UNL     1      26.427  44.270  49.488  1.00  0.00     0.026 C 
HETATM    9  C   UNL     1      25.746  42.924  49.266  1.00  0.00     0.007 C 
ENDBRANCH   7   8
BRANCH   7  10
HETATM   10  C   UNL     1      25.711  46.668  49.939  1.00  0.00     0.001 A 
HETATM   11  C   UNL     1      26.774  47.429  49.483  1.00  0.00     0.122 A 
HETATM   12  N   UNL     1      26.276  48.671  49.217  1.00  0.00    -0.285 N 
HETATM   13  C   UNL     1      27.012  49.823  48.757  1.00  0.00     0.179 C 
HETATM   14  N   UNL     1      24.955  48.775  49.437  1.00  0.00    -0.185 NA
HETATM   15  C   UNL     1      24.615  47.564  49.883  1.00  0.00     0.149 A 
ENDBRANCH   7  10
ENDBRANCH   1   7
BRANCH   3  16
HETATM   16  C   UNL     1      27.118  45.024  54.625  1.00  0.00     0.075 A 
HETATM   17  C   UNL     1      27.253  46.314  55.145  1.00  0.00     0.143 A 
HETATM   18  F   UNL     1      26.262  47.213  55.061  1.00  0.00    -0.204 F 
HETATM   19  C   UNL     1      28.446  46.744  55.727  1.00  0.00     0.045 A 
HETATM   20  C   UNL     1      29.539  45.882  55.801  1.00  0.00     0.019 A 
HETATM   21  C   UNL     1      29.446  44.586  55.278  1.00  0.00     0.050 A 
HETATM   22  C   UNL     1      28.237  44.175  54.684  1.00  0.00     0.049 A 
BRANCH  21  23
HETATM   23  C   UNL     1      30.610  43.626  55.352  1.00  0.00     0.417 C 
HETATM   24  F   UNL     1      30.401  42.579  56.196  1.00  0.00    -0.166 F 
HETATM   25  F   UNL     1      30.906  43.080  54.141  1.00  0.00    -0.166 F 
HETATM   26  F   UNL     1      31.752  44.232  55.780  1.00  0.00    -0.166 F 
ENDBRANCH  21  23
ENDBRANCH   3  16
TORSDOF 5
ENDMDL
MODEL 2
REMARK VINA RESULT:      -8.2      1.569      2.361
REMARK  5 active torsions:
REMARK  status: ('A' for Active; 'I' for Inactive)
REMARK    1  A    between atoms: C_2  and  C_3 
REMARK    2  A    between atoms: C_3  and  N_4 
REMARK    3  A    between atoms: C_3  and  C_19 
REMARK       I    between atoms: N_4  and  C_5 
REMARK       I    between atoms: C_5  and  N_6 
REMARK    4  A    between atoms: N_6  and  C_7 
REMARK    5  A    between atoms: C_12  and  C_13 
ROOT
HETATM    1  N   UNL     1      26.173  44.483  51.538  1.00  0.00    -0.334 N 
HETATM    2  C   UNL     1      25.596  44.292  52.744  1.00  0.00     0.321 C 
HETATM    3  N   UNL     1      26.386  44.010  53.814  1.00  0.00    -0.306 N 
HETATM    4  O   UNL     1      24.393  44.466  52.941  1.00  0.00    -0.247 OA
HETATM    5  H   UNL     1      27.070  44.056  51.378  1.00  0.00     0.165 HD
HETATM    6  H   UNL     1      25.843  44.122  54.662  1.00  0.00     0.171 HD
ENDROOT
BRANCH   1   7
HETATM    7  C   UNL     1      25.407  44.840  50.359  1.00  0.00     0.122 C 
BRANCH   7   8
HETATM    8  C   UNL     1      25.619  43.857  49.194  1.00  0.00     0.026 C 
HETATM    9  C   UNL     1      26.700  42.807  49.422  1.00  0.00     0.007 C 
ENDBRANCH   7   8
BRANCH   7  10
HETATM   10  C   UNL     1      25.707  46.266  50.006  1.00  0.00     0.001 A 
HETATM   11  C   UNL     1      26.891  46.857  49.599  1.00  0.00     0.122 A 
HETATM   12  N   UNL     1      26.626  48.185  49.437  1.00  0.00    -0.285 N 
HETATM   13  C   UNL     1      27.560  49.219  49.062  1.00  0.00     0.179 C 
HETATM   14  N   UNL     1      25.345  48.507  49.680  1.00  0.00    -0.185 NA
HETATM   15  C   UNL     1      24.791  47.346  50.033  1.00  0.00     0.149 A 
ENDBRANCH   7  10
ENDBRANCH   1   7
BRANCH   3  16
HETATM   16  C   UNL     1      27.745  43.678  53.983  1.00  0.00     0.075 A 
HETATM   17  C   UNL     1      28.445  42.678  53.302  1.00  0.00     0.143 A 
HETATM   18  F   UNL     1      27.844  41.885  52.404  1.00  0.00    -0.204 F 
HETATM   19  C   UNL     1      29.792  42.423  53.566  1.00  0.00     0.045 A 
HETATM   20  C   UNL     1      30.472  43.169  54.526  1.00  0.00     0.019 A 
HETATM   21  C   UNL     1      29.799  44.171  55.239  1.00  0.00     0.050 A 
HETATM   22  C   UNL     1      28.438  44.405  54.966  1.00  0.00     0.049 A 
BRANCH  21  23
HETATM   23  C   UNL     1      30.512  45.004  56.279  1.00  0.00     0.417 C 
HETATM   24  F   UNL     1      30.877  46.237  55.833  1.00  0.00    -0.166 F 
HETATM   25  F   UNL     1      29.745  45.216  57.383  1.00  0.00    -0.166 F 
HETATM   26  F   UNL     1      31.653  44.410  56.722  1.00  0.00    -0.166 F 
ENDBRANCH  21  23
ENDBRANCH   3  16
TORSDOF 5
ENDMDL
MODEL 3
REMARK VINA RESULT:      -8.0      1.242      1.684
REMARK  5 active torsions:
REMARK  status: ('A' for Active; 'I' for Inactive)
REMARK    1  A    between atoms: C_2  and  C_3 
REMARK    2  A    between atoms: C_3  and  N_4 
REMARK    3  A    between atoms: C_3  and  C_19 
REMARK       I    between atoms: N_4  and  C_5 
REMARK       I    between atoms: C_5  and  N_6 
REMARK    4  A    between atoms: N_6  and  C_7 
REMARK    5  A    between atoms: C_12  and  C_13 
ROOT
HETATM    1  N   UNL     1      25.123  45.100  51.324  1.00  0.00    -0.334 N 
HETATM    2  C   UNL     1      24.920  43.966  52.028  1.00  0.00     0.321 C 
HETATM    3  N   UNL     1      25.576  43.798  53.208  1.00  0.00    -0.306 N 
HETATM    4  O   UNL     1      24.087  43.120  51.702  1.00  0.00    -0.247 OA
HETATM    5  H   UNL     1      25.988  45.591  51.470  1.00  0.00     0.165 HD
HETATM    6  H   UNL     1      25.153  43.028  53.712  1.00  0.00     0.171 HD
ENDROOT
BRANCH   1   7
HETATM    7  C   UNL     1      24.422  45.379  50.085  1.00  0.00     0.122 C 
BRANCH   7   8
HETATM    8  C   UNL     1      24.832  44.428  48.945  1.00  0.00     0.026 C 
HETATM    9  C   UNL     1      23.691  43.964  48.047  1.00  0.00     0.007 C 
ENDBRANCH   7   8
BRANCH   7  10
HETATM   10  C   UNL     1      24.597  46.830  49.751  1.00  0.00     0.001 A 
HETATM   11  C   UNL     1      23.685  47.754  49.270  1.00  0.00     0.122 A 
HETATM   12  N   UNL     1      24.367  48.924  49.108  1.00  0.00    -0.285 N 
HETATM   13  C   UNL     1      23.851  50.168  48.590  1.00  0.00     0.179 C 
HETATM   14  N   UNL     1      25.657  48.845  49.475  1.00  0.00    -0.185 NA
HETATM   15  C   UNL     1      25.798  47.574  49.856  1.00  0.00     0.149 A 
ENDBRANCH   7  10
ENDBRANCH   1   7
BRANCH   3  16
HETATM   16  C   UNL     1      26.619  44.478  53.868  1.00  0.00     0.075 A 
HETATM   17  C   UNL     1      26.577  45.786  54.358  1.00  0.00     0.143 A 
HETATM   18  F   UNL     1      25.493  46.559  54.207  1.00  0.00    -0.204 F 
HETATM   19  C   UNL     1      27.683  46.367  54.981  1.00  0.00     0.045 A 
HETATM   20  C   UNL     1      28.865  45.643  55.126  1.00  0.00     0.019 A 
HETATM   21  C   UNL     1      28.949  44.334  54.634  1.00  0.00     0.050 A 
HETATM   22  C   UNL     1      27.827  43.770  53.999  1.00  0.00     0.049 A 
BRANCH  21  23
HETATM   23  C   UNL     1      30.214  43.521  54.785  1.00  0.00     0.417 C 
HETATM   24  F   UNL     1      30.749  43.120  53.599  1.00  0.00    -0.166 F 
HETATM   25  F   UNL     1      31.197  44.211  55.426  1.00  0.00    -0.166 F 
HETATM   26  F   UNL     1      30.015  42.388  55.511  1.00  0.00    -0.166 F 
ENDBRANCH  21  23
ENDBRANCH   3  16
TORSDOF 5
ENDMDL
MODEL 4
REMARK VINA RESULT:      -7.9      2.076      2.753
REMARK  5 active torsions:
REMARK  status: ('A' for Active; 'I' for Inactive)
REMARK    1  A    between atoms: C_2  and  C_3 
REMARK    2  A    between atoms: C_3  and  N_4 
REMARK    3  A    between atoms: C_3  and  C_19 
REMARK       I    between atoms: N_4  and  C_5 
REMARK       I    between atoms: C_5  and  N_6 
REMARK    4  A    between atoms: N_6  and  C_7 
REMARK    5  A    between atoms: C_12  and  C_13 
ROOT
HETATM    1  N   UNL     1      26.206  45.836  52.218  1.00  0.00    -0.334 N 
HETATM    2  C   UNL     1      26.235  46.561  53.357  1.00  0.00     0.321 C 
HETATM    3  N   UNL     1      27.170  46.269  54.299  1.00  0.00    -0.306 N 
HETATM    4  O   UNL     1      25.518  47.546  53.537  1.00  0.00    -0.247 OA
HETATM    5  H   UNL     1      26.588  44.906  52.248  1.00  0.00     0.165 HD
HETATM    6  H   UNL     1      27.210  47.028  54.969  1.00  0.00     0.171 HD
ENDROOT
BRANCH   1   7
HETATM    7  C   UNL     1      25.274  46.118  51.142  1.00  0.00     0.122 C 
BRANCH   7   8
HETATM    8  C   UNL     1      24.771  44.842  50.444  1.00  0.00     0.026 C 
HETATM    9  C   UNL     1      24.778  43.586  51.307  1.00  0.00     0.007 C 
ENDBRANCH   7   8
BRANCH   7  10
HETATM   10  C   UNL     1      25.906  47.106  50.208  1.00  0.00     0.001 A 
HETATM   11  C   UNL     1      25.402  48.276  49.668  1.00  0.00     0.122 A 
HETATM   12  N   UNL     1      26.375  48.781  48.856  1.00  0.00    -0.285 N 
HETATM   13  C   UNL     1      26.300  49.969  48.042  1.00  0.00     0.179 C 
HETATM   14  N   UNL     1      27.497  48.042  48.846  1.00  0.00    -0.185 NA
HETATM   15  C   UNL     1      27.209  47.023  49.658  1.00  0.00     0.149 A 
ENDBRANCH   7  10
ENDBRANCH   1   7
BRANCH   3  16
HETATM   16  C   UNL     1      28.092  45.220  54.490  1.00  0.00     0.075 A 
HETATM   17  C   UNL     1      29.250  45.265  55.271  1.00  0.00     0.143 A 
HETATM   18  F   UNL     1      29.620  46.380  55.917  1.00  0.00    -0.204 F 
HETATM   19  C   UNL     1      30.104  44.165  55.373  1.00  0.00     0.045 A 
HETATM   20  C   UNL     1      29.814  42.988  54.686  1.00  0.00     0.019 A 
HETATM   21  C   UNL     1      28.670  42.910  53.882  1.00  0.00     0.050 A 
HETATM   22  C   UNL     1      27.827  44.034  53.783  1.00  0.00     0.049 A 
BRANCH  21  23
HETATM   23  C   UNL     1      28.324  41.644  53.133  1.00  0.00     0.417 C 
HETATM   24  F   UNL     1      27.546  41.855  52.036  1.00  0.00    -0.166 F 
HETATM   25  F   UNL     1      29.430  40.989  52.688  1.00  0.00    -0.166 F 
HETATM   26  F   UNL     1      27.646  40.755  53.909  1.00  0.00    -0.166 F 
ENDBRANCH  21  23
ENDBRANCH   3  16
TORSDOF 5
ENDMDL
MODEL 5
REMARK VINA RESULT:      -7.7      1.913      2.569
REMARK  5 active torsions:
REMARK  status: ('A' for Active; 'I' for Inactive)
REMARK    1  A    between atoms: C_2  and  C_3 
REMARK    2  A    between atoms: C_3  and  N_4 
REMARK    3  A    between atoms: C_3  and  C_19 
REMARK       I    between atoms: N_4  and  C_5 
REMARK       I    between atoms: C_5  and  N_6 
REMARK    4  A    between atoms: N_6  and  C_7 
REMARK    5  A    between atoms: C_12  and  C_13 
ROOT
HETATM    1  N   UNL     1      26.105  45.487  52.579  1.00  0.00    -0.334 N 
HETATM    2  C   UNL     1      26.348  46.145  53.733  1.00  0.00     0.321 C 
HETATM    3  N   UNL     1      27.491  45.873  54.417  1.00  0.00    -0.306 N 
HETATM    4  O   UNL     1      25.630  47.058  54.142  1.00  0.00    -0.247 OA
HETATM    5  H   UNL     1      26.542  44.590  52.453  1.00  0.00     0.165 HD
HETATM    6  H   UNL     1      27.635  46.593  55.115  1.00  0.00     0.171 HD
ENDROOT
BRANCH   1   7
HETATM    7  C   UNL     1      24.936  45.758  51.763  1.00  0.00     0.122 C 
BRANCH   7   8
HETATM    8  C   UNL     1      24.325  44.480  51.161  1.00  0.00     0.026 C 
HETATM    9  C   UNL     1      25.124  43.204  51.402  1.00  0.00     0.007 C 
ENDBRANCH   7   8
BRANCH   7  10
HETATM   10  C   UNL     1      25.294  46.794  50.741  1.00  0.00     0.001 A 
HETATM   11  C   UNL     1      24.550  47.845  50.233  1.00  0.00     0.122 A 
HETATM   12  N   UNL     1      25.335  48.464  49.305  1.00  0.00    -0.285 N 
HETATM   13  C   UNL     1      24.980  49.590  48.477  1.00  0.00     0.179 C 
HETATM   14  N   UNL     1      26.554  47.913  49.185  1.00  0.00    -0.185 NA
HETATM   15  C   UNL     1      26.526  46.896  50.049  1.00  0.00     0.149 A 
ENDBRANCH   7  10
ENDBRANCH   1   7
BRANCH   3  16
HETATM   16  C   UNL     1      28.497  44.891  54.316  1.00  0.00     0.075 A 
HETATM   17  C   UNL     1      28.779  44.104  53.196  1.00  0.00     0.143 A 
HETATM   18  F   UNL     1      28.058  44.199  52.070  1.00  0.00    -0.204 F 
HETATM   19  C   UNL     1      29.792  43.143  53.217  1.00  0.00     0.045 A 
HETATM   20  C   UNL     1      30.548  42.948  54.370  1.00  0.00     0.019 A 
HETATM   21  C   UNL     1      30.285  43.708  55.517  1.00  0.00     0.050 A 
HETATM   22  C   UNL     1      29.252  44.664  55.480  1.00  0.00     0.049 A 
BRANCH  21  23
HETATM   23  C   UNL     1      31.095  43.526  56.780  1.00  0.00     0.417 C 
HETATM   24  F   UNL     1      32.434  43.687  56.596  1.00  0.00    -0.166 F 
HETATM   25  F   UNL     1      30.740  44.409  57.752  1.00  0.00    -0.166 F 
HETATM   26  F   UNL     1      30.935  42.287  57.321  1.00  0.00    -0.166 F 
ENDBRANCH  21  23
ENDBRANCH   3  16
TORSDOF 5
ENDMDL
MODEL 6
REMARK VINA RESULT:      -7.5      1.779      3.457
REMARK  5 active torsions:
REMARK  status: ('A' for Active; 'I' for Inactive)
REMARK    1  A    between atoms: C_2  and  C_3 
REMARK    2  A    between atoms: C_3  and  N_4 
REMARK    3  A    between atoms: C_3  and  C_19 
REMARK       I    between atoms: N_4  and  C_5 
REMARK       I    between atoms: C_5  and  N_6 
REMARK    4  A    between atoms: N_6  and  C_7 
REMARK    5  A    between atoms: C_12  and  C_13 
ROOT
HETATM    1  N   UNL     1      26.944  43.804  52.115  1.00  0.00    -0.334 N 
HETATM    2  C   UNL     1      27.493  42.671  52.604  1.00  0.00     0.321 C 
HETATM    3  N   UNL     1      28.246  42.739  53.734  1.00  0.00    -0.306 N 
HETATM    4  O   UNL     1      27.256  41.559  52.131  1.00  0.00    -0.247 OA
HETATM    5  H   UNL     1      27.390  44.675  52.348  1.00  0.00     0.165 HD
HETATM    6  H   UNL     1      28.388  41.802  54.091  1.00  0.00     0.171 HD
ENDROOT
BRANCH   1   7
HETATM    7  C   UNL     1      26.085  43.808  50.946  1.00  0.00     0.122 C 
BRANCH   7   8
HETATM    8  C   UNL     1      26.813  43.338  49.674  1.00  0.00     0.026 C 
HETATM    9  C   UNL     1      26.109  42.232  48.896  1.00  0.00     0.007 C 
ENDBRANCH   7   8
BRANCH   7  10
HETATM   10  C   UNL     1      25.459  45.164  50.816  1.00  0.00     0.001 A 
HETATM   11  C   UNL     1      24.605  45.666  49.850  1.00  0.00     0.122 A 
HETATM   12  N   UNL     1      24.358  46.965  50.186  1.00  0.00    -0.285 N 
HETATM   13  C   UNL     1      23.556  47.915  49.457  1.00  0.00     0.179 C 
HETATM   14  N   UNL     1      24.967  47.346  51.321  1.00  0.00    -0.185 NA
HETATM   15  C   UNL     1      25.640  46.257  51.698  1.00  0.00     0.149 A 
ENDBRANCH   7  10
ENDBRANCH   1   7
BRANCH   3  16
HETATM   16  C   UNL     1      28.784  43.789  54.505  1.00  0.00     0.075 A 
HETATM   17  C   UNL     1      30.006  43.778  55.183  1.00  0.00     0.143 A 
HETATM   18  F   UNL     1      30.800  42.698  55.184  1.00  0.00    -0.204 F 
HETATM   19  C   UNL     1      30.432  44.874  55.936  1.00  0.00     0.045 A 
HETATM   20  C   UNL     1      29.634  46.013  56.027  1.00  0.00     0.019 A 
HETATM   21  C   UNL     1      28.396  46.055  55.373  1.00  0.00     0.050 A 
HETATM   22  C   UNL     1      27.980  44.935  54.628  1.00  0.00     0.049 A 
BRANCH  21  23
HETATM   23  C   UNL     1      27.514  47.280  55.445  1.00  0.00     0.417 C 
HETATM   24  F   UNL     1      26.286  47.100  54.887  1.00  0.00    -0.166 F 
HETATM   25  F   UNL     1      27.290  47.678  56.727  1.00  0.00    -0.166 F 
HETATM   26  F   UNL     1      28.063  48.350  54.809  1.00  0.00    -0.166 F 
ENDBRANCH  21  23
ENDBRANCH   3  16
TORSDOF 5
ENDMDL
MODEL 7
REMARK VINA RESULT:      -7.3      3.006      4.519
REMARK  5 active torsions:
REMARK  status: ('A' for Active; 'I' for Inactive)
REMARK    1  A    between atoms: C_2  and  C_3 
REMARK    2  A    between atoms: C_3  and  N_4 
REMARK    3  A    between atoms: C_3  and  C_19 
REMARK       I    between atoms: N_4  and  C_5 
REMARK       I    between atoms: C_5  and  N_6 
REMARK    4  A    between atoms: N_6  and  C_7 
REMARK    5  A    between atoms: C_12  and  C_13 
ROOT
HETATM    1  N   UNL     1      27.585  42.481  52.393  1.00  0.00    -0.334 N 
HETATM    2  C   UNL     1      28.485  41.753  53.087  1.00  0.00     0.321 C 
HETATM    3  N   UNL     1      29.093  42.315  54.166  1.00  0.00    -0.306 N 
HETATM    4  O   UNL     1      28.704  40.565  52.851  1.00  0.00    -0.247 OA
HETATM    5  H   UNL     1      27.661  43.483  52.437  1.00  0.00     0.165 HD
HETATM    6  H   UNL     1      29.551  41.586  54.701  1.00  0.00     0.171 HD
ENDROOT
BRANCH   1   7
HETATM    7  C   UNL     1      26.853  41.937  51.263  1.00  0.00     0.122 C 
BRANCH   7   8
HETATM    8  C   UNL     1      27.709  41.857  49.986  1.00  0.00     0.026 C 
HETATM    9  C   UNL     1      27.908  40.454  49.427  1.00  0.00     0.007 C 
ENDBRANCH   7   8
BRANCH   7  10
HETATM   10  C   UNL     1      25.586  42.720  51.091  1.00  0.00     0.001 A 
HETATM   11  C   UNL     1      24.562  42.573  50.172  1.00  0.00     0.122 A 
HETATM   12  N   UNL     1      23.661  43.564  50.433  1.00  0.00    -0.285 N 
HETATM   13  C   UNL     1      22.444  43.846  49.711  1.00  0.00     0.179 C 
HETATM   14  N   UNL     1      24.006  44.337  51.476  1.00  0.00    -0.185 NA
HETATM   15  C   UNL     1      25.176  43.830  51.869  1.00  0.00     0.149 A 
ENDBRANCH   7  10
ENDBRANCH   1   7
BRANCH   3  16
HETATM   16  C   UNL     1      29.158  43.617  54.701  1.00  0.00     0.075 A 
HETATM   17  C   UNL     1      30.196  44.144  55.475  1.00  0.00     0.143 A 
HETATM   18  F   UNL     1      31.261  43.407  55.820  1.00  0.00    -0.204 F 
HETATM   19  C   UNL     1      30.145  45.449  55.970  1.00  0.00     0.045 A 
HETATM   20  C   UNL     1      29.043  46.258  55.700  1.00  0.00     0.019 A 
HETATM   21  C   UNL     1      27.978  45.759  54.939  1.00  0.00     0.050 A 
HETATM   22  C   UNL     1      28.043  44.437  54.458  1.00  0.00     0.049 A 
BRANCH  21  23
HETATM   23  C   UNL     1      26.774  46.616  54.621  1.00  0.00     0.417 C 
HETATM   24  F   UNL     1      25.616  45.909  54.513  1.00  0.00    -0.166 F 
HETATM   25  F   UNL     1      26.549  47.562  55.572  1.00  0.00    -0.166 F 
HETATM   26  F   UNL     1      26.916  47.288  53.446  1.00  0.00    -0.166 F 
ENDBRANCH  21  23
ENDBRANCH   3  16
TORSDOF 5
ENDMDL
MODEL 8
REMARK VINA RESULT:      -7.3      2.366      4.023
REMARK  5 active torsions:
REMARK  status: ('A' for Active; 'I' for Inactive)
REMARK    1  A    between atoms: C_2  and  C_3 
REMARK    2  A    between atoms: C_3  and  N_4 
REMARK    3  A    between atoms: C_3  and  C_19 
REMARK       I    between atoms: N_4  and  C_5 
REMARK       I    between atoms: C_5  and  N_6 
REMARK    4  A    between atoms: N_6  and  C_7 
REMARK    5  A    between atoms: C_12  and  C_13 
ROOT
HETATM    1  N   UNL     1      26.273  44.253  51.791  1.00  0.00    -0.334 N 
HETATM    2  C   UNL     1      25.761  45.461  52.106  1.00  0.00     0.321 C 
HETATM    3  N   UNL     1      26.348  46.188  53.094  1.00  0.00    -0.306 N 
HETATM    4  O   UNL     1      24.847  45.983  51.466  1.00  0.00    -0.247 OA
HETATM    5  H   UNL     1      26.796  43.769  52.502  1.00  0.00     0.165 HD
HETATM    6  H   UNL     1      26.001  47.139  53.052  1.00  0.00     0.171 HD
ENDROOT
BRANCH   1   7
HETATM    7  C   UNL     1      25.739  43.440  50.715  1.00  0.00     0.122 C 
BRANCH   7   8
HETATM    8  C   UNL     1      24.328  42.905  51.021  1.00  0.00     0.026 C 
HETATM    9  C   UNL     1      23.302  43.117  49.914  1.00  0.00     0.007 C 
ENDBRANCH   7   8
BRANCH   7  10
HETATM   10  C   UNL     1      26.732  42.366  50.387  1.00  0.00     0.001 A 
HETATM   11  C   UNL     1      27.081  41.811  49.168  1.00  0.00     0.122 A 
HETATM   12  N   UNL     1      28.012  40.849  49.431  1.00  0.00    -0.285 N 
HETATM   13  C   UNL     1      28.645  39.968  48.480  1.00  0.00     0.179 C 
HETATM   14  N   UNL     1      28.323  40.750  50.734  1.00  0.00    -0.185 NA
HETATM   15  C   UNL     1      27.542  41.663  51.313  1.00  0.00     0.149 A 
ENDBRANCH   7  10
ENDBRANCH   1   7
BRANCH   3  16
HETATM   16  C   UNL     1      27.332  45.925  54.067  1.00  0.00     0.075 A 
HETATM   17  C   UNL     1      27.657  46.735  55.159  1.00  0.00     0.143 A 
HETATM   18  F   UNL     1      27.048  47.911  55.368  1.00  0.00    -0.204 F 
HETATM   19  C   UNL     1      28.669  46.382  56.053  1.00  0.00     0.045 A 
HETATM   20  C   UNL     1      29.384  45.200  55.870  1.00  0.00     0.019 A 
HETATM   21  C   UNL     1      29.096  44.370  54.779  1.00  0.00     0.050 A 
HETATM   22  C   UNL     1      28.080  44.749  53.882  1.00  0.00     0.049 A 
BRANCH  21  23
HETATM   23  C   UNL     1      29.848  43.077  54.560  1.00  0.00     0.417 C 
HETATM   24  F   UNL     1      30.644  42.725  55.606  1.00  0.00    -0.166 F 
HETATM   25  F   UNL     1      29.013  42.024  54.352  1.00  0.00    -0.166 F 
HETATM   26  F   UNL     1      30.662  43.133  53.470  1.00  0.00    -0.166 F 
ENDBRANCH  21  23
ENDBRANCH   3  16
TORSDOF 5
ENDMDL
MODEL 9
REMARK VINA RESULT:      -7.2      4.065      6.440
REMARK  5 active torsions:
REMARK  status: ('A' for Active; 'I' for Inactive)
REMARK    1  A    between atoms: C_2  and  C_3 
REMARK    2  A    between atoms: C_3  and  N_4 
REMARK    3  A    between atoms: C_3  and  C_19 
REMARK       I    between atoms: N_4  and  C_5 
REMARK       I    between atoms: C_5  and  N_6 
REMARK    4  A    between atoms: N_6  and  C_7 
REMARK    5  A    between atoms: C_12  and  C_13 
ROOT
HETATM    1  N   UNL     1      22.677  48.280  49.507  1.00  0.00    -0.334 N 
HETATM    2  C   UNL     1      23.950  48.528  49.134  1.00  0.00     0.321 C 
HETATM    3  N   UNL     1      24.953  47.796  49.689  1.00  0.00    -0.306 N 
HETATM    4  O   UNL     1      24.238  49.318  48.234  1.00  0.00    -0.247 OA
HETATM    5  H   UNL     1      22.529  47.864  50.411  1.00  0.00     0.165 HD
HETATM    6  H   UNL     1      25.800  47.938  49.151  1.00  0.00     0.171 HD
ENDROOT
BRANCH   1   7
HETATM    7  C   UNL     1      21.547  48.979  48.923  1.00  0.00     0.122 C 
BRANCH   7   8
HETATM    8  C   UNL     1      21.150  50.234  49.721  1.00  0.00     0.026 C 
HETATM    9  C   UNL     1      20.671  51.411  48.880  1.00  0.00     0.007 C 
ENDBRANCH   7   8
BRANCH   7  10
HETATM   10  C   UNL     1      20.424  48.003  48.736  1.00  0.00     0.001 A 
HETATM   11  C   UNL     1      19.055  48.202  48.748  1.00  0.00     0.122 A 
HETATM   12  N   UNL     1      18.483  46.978  48.560  1.00  0.00    -0.285 N 
HETATM   13  C   UNL     1      17.074  46.670  48.538  1.00  0.00     0.179 C 
HETATM   14  N   UNL     1      19.378  45.990  48.397  1.00  0.00    -0.185 NA
HETATM   15  C   UNL     1      20.554  46.611  48.512  1.00  0.00     0.149 A 
ENDBRANCH   7  10
ENDBRANCH   1   7
BRANCH   3  16
HETATM   16  C   UNL     1      25.038  46.881  50.758  1.00  0.00     0.075 A 
HETATM   17  C   UNL     1      24.514  45.586  50.784  1.00  0.00     0.143 A 
HETATM   18  F   UNL     1      23.820  45.087  49.751  1.00  0.00    -0.204 F 
HETATM   19  C   UNL     1      24.642  44.771  51.910  1.00  0.00     0.045 A 
HETATM   20  C   UNL     1      25.304  45.240  53.043  1.00  0.00     0.019 A 
HETATM   21  C   UNL     1      25.830  46.538  53.058  1.00  0.00     0.050 A 
HETATM   22  C   UNL     1      25.680  47.350  51.917  1.00  0.00     0.049 A 
BRANCH  21  23
HETATM   23  C   UNL     1      26.561  47.072  54.269  1.00  0.00     0.417 C 
HETATM   24  F   UNL     1      27.738  47.686  53.968  1.00  0.00    -0.166 F 
HETATM   25  F   UNL     1      25.824  47.989  54.953  1.00  0.00    -0.166 F 
HETATM   26  F   UNL     1      26.865  46.092  55.162  1.00  0.00    -0.166 F 
ENDBRANCH  21  23
ENDBRANCH   3  16
TORSDOF 5
ENDMDL
MODEL 10
REMARK VINA RESULT:      -7.1     12.323     15.414
REMARK  5 active torsions:
REMARK  status: ('A' for Active; 'I' for Inactive)
REMARK    1  A    between atoms: C_2  and  C_3 
REMARK    2  A    between atoms: C_3  and  N_4 
REMARK    3  A    between atoms: C_3  and  C_19 
REMARK       I    between atoms: N_4  and  C_5 
REMARK       I    between atoms: C_5  and  N_6 
REMARK    4  A    between atoms: N_6  and  C_7 
REMARK    5  A    between atoms: C_12  and  C_13 
ROOT
HETATM    1  N   UNL     1      32.926  50.127  41.589  1.00  0.00    -0.334 N 
HETATM    2  C   UNL     1      32.555  48.870  41.266  1.00  0.00     0.321 C 
HETATM    3  N   UNL     1      31.280  48.647  40.849  1.00  0.00    -0.306 N 
HETATM    4  O   UNL     1      33.350  47.931  41.230  1.00  0.00    -0.247 OA
HETATM    5  H   UNL     1      32.204  50.766  41.877  1.00  0.00     0.165 HD
HETATM    6  H   UNL     1      31.228  47.723  40.435  1.00  0.00     0.171 HD
ENDROOT
BRANCH   1   7
HETATM    7  C   UNL     1      34.280  50.458  41.991  1.00  0.00     0.122 C 
BRANCH   7   8
HETATM    8  C   UNL     1      34.325  51.503  43.120  1.00  0.00     0.026 C 
HETATM    9  C   UNL     1      33.043  51.633  43.934  1.00  0.00     0.007 C 
ENDBRANCH   7   8
BRANCH   7  10
HETATM   10  C   UNL     1      35.058  50.855  40.772  1.00  0.00     0.001 A 
HETATM   11  C   UNL     1      36.296  50.430  40.322  1.00  0.00     0.122 A 
HETATM   12  N   UNL     1      36.555  51.129  39.179  1.00  0.00    -0.285 N 
HETATM   13  C   UNL     1      37.746  51.060  38.369  1.00  0.00     0.179 C 
HETATM   14  N   UNL     1      35.563  51.963  38.828  1.00  0.00    -0.185 NA
HETATM   15  C   UNL     1      34.660  51.804  39.798  1.00  0.00     0.149 A 
ENDBRANCH   7  10
ENDBRANCH   1   7
BRANCH   3  16
HETATM   16  C   UNL     1      30.099  49.415  40.816  1.00  0.00     0.075 A 
HETATM   17  C   UNL     1      28.998  49.280  41.666  1.00  0.00     0.143 A 
HETATM   18  F   UNL     1      28.956  48.337  42.618  1.00  0.00    -0.204 F 
HETATM   19  C   UNL     1      27.868  50.088  41.528  1.00  0.00     0.045 A 
HETATM   20  C   UNL     1      27.816  51.054  40.526  1.00  0.00     0.019 A 
HETATM   21  C   UNL     1      28.895  51.209  39.646  1.00  0.00     0.050 A 
HETATM   22  C   UNL     1      30.021  50.377  39.794  1.00  0.00     0.049 A 
BRANCH  21  23
HETATM   23  C   UNL     1      28.872  52.254  38.555  1.00  0.00     0.417 C 
HETATM   24  F   UNL     1      27.679  52.337  37.905  1.00  0.00    -0.166 F 
HETATM   25  F   UNL     1      29.127  53.503  39.032  1.00  0.00    -0.166 F 
HETATM   26  F   UNL     1      29.808  52.019  37.595  1.00  0.00    -0.166 F 
ENDBRANCH  21  23
ENDBRANCH   3  16
TORSDOF 5
ENDMDL
