MODEL 1
REMARK VINA RESULT:      -7.7      0.000      0.000
REMARK  3 active torsions:
REMARK  status: ('A' for Active; 'I' for Inactive)
REMARK    1  A    between atoms: C_2  and  C_3 
REMARK    2  A    between atoms: C_9  and  C_10 
REMARK    3  A    between atoms: C_21  and  N_22 
ROOT
HETATM    1  C   UNL     1      19.572  50.388  49.616  1.00  0.00     0.066 A 
HETATM    2  N   UNL     1      18.796  50.291  50.710  1.00  0.00    -0.177 NA
HETATM    3  N   UNL     1      18.568  48.968  50.844  1.00  0.00    -0.256 N 
HETATM    4  H   UNL     1      17.983  48.647  51.607  1.00  0.00     0.191 HD
HETATM    5  C   UNL     1      19.163  48.235  49.870  1.00  0.00     0.175 A 
HETATM    6  C   UNL     1      19.845  49.113  49.068  1.00  0.00     0.035 A 
HETATM    7  C   UNL     1      20.595  48.611  47.885  1.00  0.00     0.104 A 
HETATM    8  C   UNL     1      20.318  47.123  47.684  1.00  0.00     0.067 A 
HETATM    9  C   UNL     1      20.785  46.526  46.367  1.00  0.00     0.020 C 
HETATM   10  N   UNL     1      21.172  46.031  45.273  1.00  0.00    -0.096 N 
HETATM   11  C   UNL     1      19.603  46.367  48.560  1.00  0.00     0.139 A 
HETATM   12  O   UNL     1      19.054  46.917  49.736  1.00  0.00    -0.279 OA
ENDROOT
BRANCH   7  13
HETATM   13  C   UNL     1      22.064  48.904  48.164  1.00  0.00    -0.043 A 
HETATM   14  C   UNL     1      22.835  48.111  49.037  1.00  0.00     0.033 A 
HETATM   15  C   UNL     1      24.183  48.401  49.279  1.00  0.00     0.056 A 
HETATM   16 CL   UNL     1      25.040  47.376  50.376  1.00  0.00    -0.083 Cl
HETATM   17  C   UNL     1      24.786  49.487  48.640  1.00  0.00     0.055 A 
HETATM   18 CL   UNL     1      26.442  49.909  48.890  1.00  0.00    -0.083 Cl
HETATM   19  C   UNL     1      24.038  50.275  47.762  1.00  0.00     0.026 A 
HETATM   20  C   UNL     1      22.691  49.985  47.522  1.00  0.00     0.010 A 
ENDBRANCH   7  13
BRANCH  11  21
HETATM   21  N   UNL     1      19.316  45.030  48.412  1.00  0.00    -0.282 NA
HETATM   22  H   UNL     1      19.570  44.617  47.518  1.00  0.00     0.126 HD
HETATM   23  H   UNL     1      19.628  44.478  49.208  1.00  0.00     0.126 HD
ENDBRANCH  11  21
BRANCH   1  24
HETATM   24  C   UNL     1      20.007  51.729  49.128  1.00  0.00     0.057 C 
HETATM   25  C   UNL     1      18.909  52.464  48.374  1.00  0.00     0.011 C 
ENDBRANCH   1  24
TORSDOF 3
ENDMDL
MODEL 2
REMARK VINA RESULT:      -7.5     10.355     12.034
REMARK  3 active torsions:
REMARK  status: ('A' for Active; 'I' for Inactive)
REMARK    1  A    between atoms: C_2  and  C_3 
REMARK    2  A    between atoms: C_9  and  C_10 
REMARK    3  A    between atoms: C_21  and  N_22 
ROOT
HETATM    1  C   UNL     1      28.983  52.756  40.538  1.00  0.00     0.066 A 
HETATM    2  N   UNL     1      27.832  53.225  41.051  1.00  0.00    -0.177 NA
HETATM    3  N   UNL     1      27.254  52.146  41.620  1.00  0.00    -0.256 N 
HETATM    4  H   UNL     1      26.350  52.254  42.067  1.00  0.00     0.191 HD
HETATM    5  C   UNL     1      27.994  51.019  41.473  1.00  0.00     0.175 A 
HETATM    6  C   UNL     1      29.135  51.374  40.800  1.00  0.00     0.035 A 
HETATM    7  C   UNL     1      30.152  50.341  40.466  1.00  0.00     0.104 A 
HETATM    8  C   UNL     1      29.626  48.954  40.825  1.00  0.00     0.067 A 
HETATM    9  C   UNL     1      30.426  47.775  40.295  1.00  0.00     0.020 C 
HETATM   10  N   UNL     1      31.089  46.797  39.854  1.00  0.00    -0.096 N 
HETATM   11  C   UNL     1      28.456  48.742  41.485  1.00  0.00     0.139 A 
HETATM   12  O   UNL     1      27.630  49.811  41.889  1.00  0.00    -0.279 OA
ENDROOT
BRANCH   7  13
HETATM   13  C   UNL     1      31.405  50.717  41.248  1.00  0.00    -0.043 A 
HETATM   14  C   UNL     1      31.356  51.096  42.604  1.00  0.00     0.033 A 
HETATM   15  C   UNL     1      32.520  51.440  43.302  1.00  0.00     0.056 A 
HETATM   16 CL   UNL     1      32.355  51.905  44.958  1.00  0.00    -0.083 Cl
HETATM   17  C   UNL     1      33.757  51.398  42.654  1.00  0.00     0.055 A 
HETATM   18 CL   UNL     1      35.235  51.809  43.447  1.00  0.00    -0.083 Cl
HETATM   19  C   UNL     1      33.823  51.011  41.313  1.00  0.00     0.026 A 
HETATM   20  C   UNL     1      32.658  50.670  40.617  1.00  0.00     0.010 A 
ENDBRANCH   7  13
BRANCH  11  21
HETATM   21  N   UNL     1      27.937  47.512  41.816  1.00  0.00    -0.282 NA
HETATM   22  H   UNL     1      28.252  47.118  42.698  1.00  0.00     0.126 HD
HETATM   23  H   UNL     1      26.925  47.477  41.702  1.00  0.00     0.126 HD
ENDBRANCH  11  21
BRANCH   1  24
HETATM   24  C   UNL     1      29.892  53.671  39.788  1.00  0.00     0.057 C 
HETATM   25  C   UNL     1      30.963  54.288  40.674  1.00  0.00     0.011 C 
ENDBRANCH   1  24
TORSDOF 3
ENDMDL
MODEL 3
REMARK VINA RESULT:      -7.4      4.772      6.360
REMARK  3 active torsions:
REMARK  status: ('A' for Active; 'I' for Inactive)
REMARK    1  A    between atoms: C_2  and  C_3 
REMARK    2  A    between atoms: C_9  and  C_10 
REMARK    3  A    between atoms: C_21  and  N_22 
ROOT
HETATM    1  C   UNL     1      25.346  47.605  49.769  1.00  0.00     0.066 A 
HETATM    2  N   UNL     1      24.349  48.503  49.849  1.00  0.00    -0.177 NA
HETATM    3  N   UNL     1      23.226  47.774  49.678  1.00  0.00    -0.256 N 
HETATM    4  H   UNL     1      22.330  48.247  49.684  1.00  0.00     0.191 HD
HETATM    5  C   UNL     1      23.484  46.456  49.483  1.00  0.00     0.175 A 
HETATM    6  C   UNL     1      24.844  46.299  49.560  1.00  0.00     0.035 A 
HETATM    7  C   UNL     1      25.448  44.953  49.367  1.00  0.00     0.104 A 
HETATM    8  C   UNL     1      24.376  43.956  48.937  1.00  0.00     0.067 A 
HETATM    9  C   UNL     1      24.874  42.610  48.434  1.00  0.00     0.020 C 
HETATM   10  N   UNL     1      25.288  41.495  48.017  1.00  0.00    -0.096 N 
HETATM   11  C   UNL     1      23.049  44.253  48.887  1.00  0.00     0.139 A 
HETATM   12  O   UNL     1      22.565  45.530  49.234  1.00  0.00    -0.279 OA
ENDROOT
BRANCH   7  13
HETATM   13  C   UNL     1      26.093  44.587  50.699  1.00  0.00    -0.043 A 
HETATM   14  C   UNL     1      25.364  44.570  51.905  1.00  0.00     0.033 A 
HETATM   15  C   UNL     1      25.977  44.233  53.117  1.00  0.00     0.056 A 
HETATM   16 CL   UNL     1      25.001  44.253  54.543  1.00  0.00    -0.083 Cl
HETATM   17  C   UNL     1      27.332  43.896  53.140  1.00  0.00     0.055 A 
HETATM   18 CL   UNL     1      28.160  43.472  54.595  1.00  0.00    -0.083 Cl
HETATM   19  C   UNL     1      28.066  43.896  51.950  1.00  0.00     0.026 A 
HETATM   20  C   UNL     1      27.451  44.235  50.740  1.00  0.00     0.010 A 
ENDBRANCH   7  13
BRANCH  11  21
HETATM   21  N   UNL     1      22.052  43.393  48.492  1.00  0.00    -0.282 NA
HETATM   22  H   UNL     1      21.839  42.634  49.134  1.00  0.00     0.126 HD
HETATM   23  H   UNL     1      21.222  43.886  48.168  1.00  0.00     0.126 HD
ENDBRANCH  11  21
BRANCH   1  24
HETATM   24  C   UNL     1      26.765  48.055  49.880  1.00  0.00     0.057 C 
HETATM   25  C   UNL     1      27.116  49.141  48.875  1.00  0.00     0.011 C 
ENDBRANCH   1  24
TORSDOF 3
ENDMDL
MODEL 4
REMARK VINA RESULT:      -7.4      5.393      6.973
REMARK  3 active torsions:
REMARK  status: ('A' for Active; 'I' for Inactive)
REMARK    1  A    between atoms: C_2  and  C_3 
REMARK    2  A    between atoms: C_9  and  C_10 
REMARK    3  A    between atoms: C_21  and  N_22 
ROOT
HETATM    1  C   UNL     1      26.456  46.367  53.840  1.00  0.00     0.066 A 
HETATM    2  N   UNL     1      27.516  45.838  54.477  1.00  0.00    -0.177 NA
HETATM    3  N   UNL     1      27.702  44.642  53.880  1.00  0.00    -0.256 N 
HETATM    4  H   UNL     1      28.451  44.043  54.209  1.00  0.00     0.191 HD
HETATM    5  C   UNL     1      26.793  44.398  52.903  1.00  0.00     0.175 A 
HETATM    6  C   UNL     1      25.983  45.501  52.826  1.00  0.00     0.035 A 
HETATM    7  C   UNL     1      24.862  45.533  51.848  1.00  0.00     0.104 A 
HETATM    8  C   UNL     1      24.720  44.172  51.172  1.00  0.00     0.067 A 
HETATM    9  C   UNL     1      23.455  43.957  50.356  1.00  0.00     0.020 C 
HETATM   10  N   UNL     1      22.406  43.780  49.680  1.00  0.00    -0.096 N 
HETATM   11  C   UNL     1      25.596  43.147  51.354  1.00  0.00     0.139 A 
HETATM   12  O   UNL     1      26.717  43.274  52.199  1.00  0.00    -0.279 OA
ENDROOT
BRANCH   7  13
HETATM   13  C   UNL     1      25.195  46.648  50.864  1.00  0.00    -0.043 A 
HETATM   14  C   UNL     1      24.197  47.454  50.280  1.00  0.00     0.033 A 
HETATM   15  C   UNL     1      24.526  48.472  49.376  1.00  0.00     0.056 A 
HETATM   16 CL   UNL     1      23.231  49.397  48.703  1.00  0.00    -0.083 Cl
HETATM   17  C   UNL     1      25.864  48.706  49.051  1.00  0.00     0.055 A 
HETATM   18 CL   UNL     1      26.348  49.940  47.944  1.00  0.00    -0.083 Cl
HETATM   19  C   UNL     1      26.865  47.923  49.633  1.00  0.00     0.026 A 
HETATM   20  C   UNL     1      26.534  46.906  50.534  1.00  0.00     0.010 A 
ENDBRANCH   7  13
BRANCH  11  21
HETATM   21  N   UNL     1      25.498  41.902  50.779  1.00  0.00    -0.282 NA
HETATM   22  H   UNL     1      25.897  41.810  49.848  1.00  0.00     0.126 HD
HETATM   23  H   UNL     1      25.790  41.160  51.413  1.00  0.00     0.126 HD
ENDBRANCH  11  21
BRANCH   1  24
HETATM   24  C   UNL     1      25.925  47.698  54.256  1.00  0.00     0.057 C 
HETATM   25  C   UNL     1      26.629  48.251  55.485  1.00  0.00     0.011 C 
ENDBRANCH   1  24
TORSDOF 3
ENDMDL
MODEL 5
REMARK VINA RESULT:      -7.3      5.546      7.244
REMARK  3 active torsions:
REMARK  status: ('A' for Active; 'I' for Inactive)
REMARK    1  A    between atoms: C_2  and  C_3 
REMARK    2  A    between atoms: C_9  and  C_10 
REMARK    3  A    between atoms: C_21  and  N_22 
ROOT
HETATM    1  C   UNL     1      26.034  47.092  49.828  1.00  0.00     0.066 A 
HETATM    2  N   UNL     1      25.047  48.001  49.746  1.00  0.00    -0.177 NA
HETATM    3  N   UNL     1      23.918  47.290  49.944  1.00  0.00    -0.256 N 
HETATM    4  H   UNL     1      23.025  47.769  49.912  1.00  0.00     0.191 HD
HETATM    5  C   UNL     1      24.160  45.969  50.136  1.00  0.00     0.175 A 
HETATM    6  C   UNL     1      25.520  45.801  50.094  1.00  0.00     0.035 A 
HETATM    7  C   UNL     1      26.107  44.443  50.255  1.00  0.00     0.104 A 
HETATM    8  C   UNL     1      24.998  43.395  50.286  1.00  0.00     0.067 A 
HETATM    9  C   UNL     1      25.441  41.946  50.167  1.00  0.00     0.020 C 
HETATM   10  N   UNL     1      25.809  40.744  50.068  1.00  0.00    -0.096 N 
HETATM   11  C   UNL     1      23.673  43.704  50.306  1.00  0.00     0.139 A 
HETATM   12  O   UNL     1      23.225  45.039  50.298  1.00  0.00    -0.279 OA
ENDROOT
BRANCH   7  13
HETATM   13  C   UNL     1      26.914  44.485  51.547  1.00  0.00    -0.043 A 
HETATM   14  C   UNL     1      28.105  43.749  51.712  1.00  0.00     0.033 A 
HETATM   15  C   UNL     1      28.829  43.802  52.909  1.00  0.00     0.056 A 
HETATM   16 CL   UNL     1      30.269  42.853  53.017  1.00  0.00    -0.083 Cl
HETATM   17  C   UNL     1      28.377  44.603  53.959  1.00  0.00     0.055 A 
HETATM   18 CL   UNL     1      29.213  44.718  55.466  1.00  0.00    -0.083 Cl
HETATM   19  C   UNL     1      27.205  45.349  53.807  1.00  0.00     0.026 A 
HETATM   20  C   UNL     1      26.482  45.294  52.611  1.00  0.00     0.010 A 
ENDBRANCH   7  13
BRANCH  11  21
HETATM   21  N   UNL     1      22.642  42.794  50.319  1.00  0.00    -0.282 NA
HETATM   22  H   UNL     1      22.799  41.951  50.865  1.00  0.00     0.126 HD
HETATM   23  H   UNL     1      21.743  43.232  50.511  1.00  0.00     0.126 HD
ENDBRANCH  11  21
BRANCH   1  24
HETATM   24  C   UNL     1      27.452  47.511  49.623  1.00  0.00     0.057 C 
HETATM   25  C   UNL     1      27.574  48.941  49.121  1.00  0.00     0.011 C 
ENDBRANCH   1  24
TORSDOF 3
ENDMDL
MODEL 6
REMARK VINA RESULT:      -6.9     11.142     13.670
REMARK  3 active torsions:
REMARK  status: ('A' for Active; 'I' for Inactive)
REMARK    1  A    between atoms: C_2  and  C_3 
REMARK    2  A    between atoms: C_9  and  C_10 
REMARK    3  A    between atoms: C_21  and  N_22 
ROOT
HETATM    1  C   UNL     1      29.642  51.725  38.212  1.00  0.00     0.066 A 
HETATM    2  N   UNL     1      30.208  51.857  36.999  1.00  0.00    -0.177 NA
HETATM    3  N   UNL     1      31.506  51.550  37.199  1.00  0.00    -0.256 N 
HETATM    4  H   UNL     1      32.147  51.595  36.415  1.00  0.00     0.191 HD
HETATM    5  C   UNL     1      31.777  51.241  38.493  1.00  0.00     0.175 A 
HETATM    6  C   UNL     1      30.591  51.317  39.178  1.00  0.00     0.035 A 
HETATM    7  C   UNL     1      30.561  51.048  40.641  1.00  0.00     0.104 A 
HETATM    8  C   UNL     1      31.982  50.876  41.171  1.00  0.00     0.067 A 
HETATM    9  C   UNL     1      32.138  50.871  42.682  1.00  0.00     0.020 C 
HETATM   10  N   UNL     1      32.267  50.868  43.937  1.00  0.00    -0.096 N 
HETATM   11  C   UNL     1      33.082  50.836  40.371  1.00  0.00     0.139 A 
HETATM   12  O   UNL     1      32.983  50.956  38.971  1.00  0.00    -0.279 OA
ENDROOT
BRANCH   7  13
HETATM   13  C   UNL     1      29.709  49.796  40.820  1.00  0.00    -0.043 A 
HETATM   14  C   UNL     1      30.027  48.577  40.189  1.00  0.00     0.033 A 
HETATM   15  C   UNL     1      29.230  47.440  40.367  1.00  0.00     0.056 A 
HETATM   16 CL   UNL     1      29.695  45.996  39.540  1.00  0.00    -0.083 Cl
HETATM   17  C   UNL     1      28.103  47.504  41.190  1.00  0.00     0.055 A 
HETATM   18 CL   UNL     1      27.069  46.146  41.456  1.00  0.00    -0.083 Cl
HETATM   19  C   UNL     1      27.782  48.703  41.833  1.00  0.00     0.026 A 
HETATM   20  C   UNL     1      28.580  49.838  41.653  1.00  0.00     0.010 A 
ENDBRANCH   7  13
BRANCH  11  21
HETATM   21  N   UNL     1      34.379  50.699  40.806  1.00  0.00    -0.282 NA
HETATM   22  H   UNL     1      34.641  49.775  41.139  1.00  0.00     0.126 HD
HETATM   23  H   UNL     1      35.050  51.089  40.147  1.00  0.00     0.126 HD
ENDBRANCH  11  21
BRANCH   1  24
HETATM   24  C   UNL     1      28.191  52.021  38.393  1.00  0.00     0.057 C 
HETATM   25  C   UNL     1      27.319  50.783  38.258  1.00  0.00     0.011 C 
ENDBRANCH   1  24
TORSDOF 3
ENDMDL
MODEL 7
REMARK VINA RESULT:      -6.9      7.165      9.159
REMARK  3 active torsions:
REMARK  status: ('A' for Active; 'I' for Inactive)
REMARK    1  A    between atoms: C_2  and  C_3 
REMARK    2  A    between atoms: C_9  and  C_10 
REMARK    3  A    between atoms: C_21  and  N_22 
ROOT
HETATM    1  C   UNL     1      27.958  41.854  52.806  1.00  0.00     0.066 A 
HETATM    2  N   UNL     1      29.092  41.132  52.764  1.00  0.00    -0.177 NA
HETATM    3  N   UNL     1      29.061  40.529  51.558  1.00  0.00    -0.256 N 
HETATM    4  H   UNL     1      29.820  39.907  51.302  1.00  0.00     0.191 HD
HETATM    5  C   UNL     1      27.947  40.838  50.847  1.00  0.00     0.175 A 
HETATM    6  C   UNL     1      27.218  41.715  51.608  1.00  0.00     0.035 A 
HETATM    7  C   UNL     1      25.917  42.231  51.105  1.00  0.00     0.104 A 
HETATM    8  C   UNL     1      25.537  41.518  49.810  1.00  0.00     0.067 A 
HETATM    9  C   UNL     1      24.115  41.730  49.319  1.00  0.00     0.020 C 
HETATM   10  N   UNL     1      22.934  41.906  48.913  1.00  0.00    -0.096 N 
HETATM   11  C   UNL     1      26.359  40.648  49.163  1.00  0.00     0.139 A 
HETATM   12  O   UNL     1      27.642  40.338  49.655  1.00  0.00    -0.279 OA
ENDROOT
BRANCH   7  13
HETATM   13  C   UNL     1      26.104  43.732  50.918  1.00  0.00    -0.043 A 
HETATM   14  C   UNL     1      25.725  44.664  51.905  1.00  0.00     0.033 A 
HETATM   15  C   UNL     1      25.905  46.038  51.711  1.00  0.00     0.056 A 
HETATM   16 CL   UNL     1      25.396  47.100  52.975  1.00  0.00    -0.083 Cl
HETATM   17  C   UNL     1      26.480  46.502  50.526  1.00  0.00     0.055 A 
HETATM   18 CL   UNL     1      26.732  48.182  50.212  1.00  0.00    -0.083 Cl
HETATM   19  C   UNL     1      26.873  45.590  49.543  1.00  0.00     0.026 A 
HETATM   20  C   UNL     1      26.691  44.217  49.738  1.00  0.00     0.010 A 
ENDBRANCH   7  13
BRANCH  11  21
HETATM   21  N   UNL     1      26.053  39.973  48.004  1.00  0.00    -0.282 NA
HETATM   22  H   UNL     1      26.798  39.403  47.612  1.00  0.00     0.126 HD
HETATM   23  H   UNL     1      25.166  39.478  48.069  1.00  0.00     0.126 HD
ENDBRANCH  11  21
BRANCH   1  24
HETATM   24  C   UNL     1      27.624  42.646  54.026  1.00  0.00     0.057 C 
HETATM   25  C   UNL     1      28.703  43.655  54.383  1.00  0.00     0.011 C 
ENDBRANCH   1  24
TORSDOF 3
ENDMDL
MODEL 8
REMARK VINA RESULT:      -6.9     10.698     12.628
REMARK  3 active torsions:
REMARK  status: ('A' for Active; 'I' for Inactive)
REMARK    1  A    between atoms: C_2  and  C_3 
REMARK    2  A    between atoms: C_9  and  C_10 
REMARK    3  A    between atoms: C_21  and  N_22 
ROOT
HETATM    1  C   UNL     1      31.879  48.996  42.101  1.00  0.00     0.066 A 
HETATM    2  N   UNL     1      32.982  48.317  41.739  1.00  0.00    -0.177 NA
HETATM    3  N   UNL     1      32.546  47.438  40.813  1.00  0.00    -0.256 N 
HETATM    4  H   UNL     1      33.211  46.794  40.398  1.00  0.00     0.191 HD
HETATM    5  C   UNL     1      31.212  47.533  40.590  1.00  0.00     0.175 A 
HETATM    6  C   UNL     1      30.744  48.548  41.385  1.00  0.00     0.035 A 
HETATM    7  C   UNL     1      29.296  48.889  41.380  1.00  0.00     0.104 A 
HETATM    8  C   UNL     1      28.523  47.871  40.546  1.00  0.00     0.067 A 
HETATM    9  C   UNL     1      27.008  47.918  40.667  1.00  0.00     0.020 C 
HETATM   10  N   UNL     1      25.752  47.956  40.768  1.00  0.00    -0.096 N 
HETATM   11  C   UNL     1      29.118  46.894  39.811  1.00  0.00     0.139 A 
HETATM   12  O   UNL     1      30.519  46.749  39.771  1.00  0.00    -0.279 OA
ENDROOT
BRANCH   7  13
HETATM   13  C   UNL     1      29.200  50.304  40.821  1.00  0.00    -0.043 A 
HETATM   14  C   UNL     1      29.543  50.609  39.488  1.00  0.00     0.033 A 
HETATM   15  C   UNL     1      29.449  51.916  38.997  1.00  0.00     0.056 A 
HETATM   16 CL   UNL     1      29.905  52.190  37.353  1.00  0.00    -0.083 Cl
HETATM   17  C   UNL     1      28.997  52.941  39.831  1.00  0.00     0.055 A 
HETATM   18 CL   UNL     1      28.857  54.578  39.299  1.00  0.00    -0.083 Cl
HETATM   19  C   UNL     1      28.641  52.652  41.152  1.00  0.00     0.026 A 
HETATM   20  C   UNL     1      28.738  51.345  41.641  1.00  0.00     0.010 A 
ENDBRANCH   7  13
BRANCH  11  21
HETATM   21  N   UNL     1      28.462  45.948  39.059  1.00  0.00    -0.282 NA
HETATM   22  H   UNL     1      28.040  46.280  38.196  1.00  0.00     0.126 HD
HETATM   23  H   UNL     1      29.015  45.103  38.933  1.00  0.00     0.126 HD
ENDBRANCH  11  21
BRANCH   1  24
HETATM   24  C   UNL     1      31.966  50.052  43.152  1.00  0.00     0.057 C 
HETATM   25  C   UNL     1      32.385  51.403  42.593  1.00  0.00     0.011 C 
ENDBRANCH   1  24
TORSDOF 3
ENDMDL
MODEL 9
REMARK VINA RESULT:      -6.7     11.603     13.675
REMARK  3 active torsions:
REMARK  status: ('A' for Active; 'I' for Inactive)
REMARK    1  A    between atoms: C_2  and  C_3 
REMARK    2  A    between atoms: C_9  and  C_10 
REMARK    3  A    between atoms: C_21  and  N_22 
ROOT
HETATM    1  C   UNL     1      33.184  50.154  41.707  1.00  0.00     0.066 A 
HETATM    2  N   UNL     1      33.744  50.703  42.799  1.00  0.00    -0.177 NA
HETATM    3  N   UNL     1      33.097  51.877  42.954  1.00  0.00    -0.256 N 
HETATM    4  H   UNL     1      33.364  52.485  43.720  1.00  0.00     0.191 HD
HETATM    5  C   UNL     1      32.161  52.088  41.995  1.00  0.00     0.175 A 
HETATM    6  C   UNL     1      32.166  50.984  41.181  1.00  0.00     0.035 A 
HETATM    7  C   UNL     1      31.250  50.920  40.010  1.00  0.00     0.104 A 
HETATM    8  C   UNL     1      30.534  52.257  39.834  1.00  0.00     0.067 A 
HETATM    9  C   UNL     1      29.779  52.445  38.528  1.00  0.00     0.020 C 
HETATM   10  N   UNL     1      29.152  52.601  37.445  1.00  0.00    -0.096 N 
HETATM   11  C   UNL     1      30.633  53.285  40.719  1.00  0.00     0.139 A 
HETATM   12  O   UNL     1      31.422  53.186  41.882  1.00  0.00    -0.279 OA
ENDROOT
BRANCH   7  13
HETATM   13  C   UNL     1      30.290  49.770  40.291  1.00  0.00    -0.043 A 
HETATM   14  C   UNL     1      30.114  48.703  39.387  1.00  0.00     0.033 A 
HETATM   15  C   UNL     1      29.225  47.658  39.664  1.00  0.00     0.056 A 
HETATM   16 CL   UNL     1      29.070  46.403  38.487  1.00  0.00    -0.083 Cl
HETATM   17  C   UNL     1      28.504  47.659  40.860  1.00  0.00     0.055 A 
HETATM   18 CL   UNL     1      27.387  46.407  41.271  1.00  0.00    -0.083 Cl
HETATM   19  C   UNL     1      28.677  48.703  41.772  1.00  0.00     0.026 A 
HETATM   20  C   UNL     1      29.565  49.748  41.492  1.00  0.00     0.010 A 
ENDBRANCH   7  13
BRANCH  11  21
HETATM   21  N   UNL     1      30.020  54.509  40.591  1.00  0.00    -0.282 NA
HETATM   22  H   UNL     1      29.087  54.500  40.187  1.00  0.00     0.126 HD
HETATM   23  H   UNL     1      30.079  55.061  41.445  1.00  0.00     0.126 HD
ENDBRANCH  11  21
BRANCH   1  24
HETATM   24  C   UNL     1      33.675  48.840  41.198  1.00  0.00     0.057 C 
HETATM   25  C   UNL     1      32.789  47.679  41.622  1.00  0.00     0.011 C 
ENDBRANCH   1  24
TORSDOF 3
ENDMDL
MODEL 10
REMARK VINA RESULT:      -6.6      5.481      6.834
REMARK  3 active torsions:
REMARK  status: ('A' for Active; 'I' for Inactive)
REMARK    1  A    between atoms: C_2  and  C_3 
REMARK    2  A    between atoms: C_9  and  C_10 
REMARK    3  A    between atoms: C_21  and  N_22 
ROOT
HETATM    1  C   UNL     1      17.023  51.563  49.537  1.00  0.00     0.066 A 
HETATM    2  N   UNL     1      18.064  51.205  50.309  1.00  0.00    -0.177 NA
HETATM    3  N   UNL     1      18.360  49.950  49.912  1.00  0.00    -0.256 N 
HETATM    4  H   UNL     1      19.117  49.457  50.372  1.00  0.00     0.191 HD
HETATM    5  C   UNL     1      17.538  49.506  48.929  1.00  0.00     0.175 A 
HETATM    6  C   UNL     1      16.672  50.529  48.638  1.00  0.00     0.035 A 
HETATM    7  C   UNL     1      15.623  50.342  47.600  1.00  0.00     0.104 A 
HETATM    8  C   UNL     1      15.607  48.891  47.128  1.00  0.00     0.067 A 
HETATM    9  C   UNL     1      14.418  48.475  46.278  1.00  0.00     0.020 C 
HETATM   10  N   UNL     1      13.430  48.130  45.573  1.00  0.00    -0.096 N 
HETATM   11  C   UNL     1      16.526  47.965  47.515  1.00  0.00     0.139 A 
HETATM   12  O   UNL     1      17.576  48.289  48.397  1.00  0.00    -0.279 OA
ENDROOT
BRANCH   7  13
HETATM   13  C   UNL     1      15.959  51.322  46.482  1.00  0.00    -0.043 A 
HETATM   14  C   UNL     1      15.174  52.463  46.223  1.00  0.00     0.033 A 
HETATM   15  C   UNL     1      15.501  53.348  45.189  1.00  0.00     0.056 A 
HETATM   16 CL   UNL     1      14.468  54.712  44.943  1.00  0.00    -0.083 Cl
HETATM   17  C   UNL     1      16.629  53.110  44.402  1.00  0.00     0.055 A 
HETATM   18 CL   UNL     1      17.096  54.154  43.107  1.00  0.00    -0.083 Cl
HETATM   19  C   UNL     1      17.426  51.989  44.654  1.00  0.00     0.026 A 
HETATM   20  C   UNL     1      17.096  51.105  45.687  1.00  0.00     0.010 A 
ENDBRANCH   7  13
BRANCH  11  21
HETATM   21  N   UNL     1      16.541  46.646  47.128  1.00  0.00    -0.282 NA
HETATM   22  H   UNL     1      16.999  46.000  47.766  1.00  0.00     0.126 HD
HETATM   23  H   UNL     1      15.625  46.322  46.823  1.00  0.00     0.126 HD
ENDBRANCH  11  21
BRANCH   1  24
HETATM   24  C   UNL     1      16.388  52.902  49.716  1.00  0.00     0.057 C 
HETATM   25  C   UNL     1      14.947  52.809  50.191  1.00  0.00     0.011 C 
ENDBRANCH   1  24
TORSDOF 3
ENDMDL
