MODEL 1
REMARK VINA RESULT:      -8.6      0.000      0.000
REMARK  8 active torsions:
REMARK  status: ('A' for Active; 'I' for Inactive)
REMARK    1  A    between atoms: C_2  and  N_3 
REMARK    2  A    between atoms: C_2  and  C_17 
REMARK    3  A    between atoms: N_3  and  C_6 
REMARK    4  A    between atoms: C_6  and  C_7 
REMARK    5  A    between atoms: C_7  and  O_8 
REMARK    6  A    between atoms: C_7  and  C_9 
REMARK    7  A    between atoms: C_11  and  O_12 
REMARK    8  A    between atoms: C_17  and  C_18 
ROOT
HETATM    1  N   UNL     1      25.374  44.568  51.772  1.00  0.00    -0.068 N 
HETATM    2  H   UNL     1      24.868  43.869  51.211  1.00  0.00     0.277 HD
HETATM    3  H   UNL     1      24.621  45.064  52.283  1.00  0.00     0.277 HD
ENDROOT
BRANCH   1   4
HETATM    4  C   UNL     1      26.328  43.859  52.704  1.00  0.00     0.188 C 
HETATM    5  C   UNL     1      25.910  44.243  54.127  1.00  0.00     0.040 C 
BRANCH   4   6
HETATM    6  C   UNL     1      27.786  44.252  52.403  1.00  0.00     0.099 C 
BRANCH   6   7
HETATM    7  C   UNL     1      28.626  44.212  53.642  1.00  0.00     0.078 A 
HETATM    8  S   UNL     1      29.621  42.858  53.973  1.00  0.00    -0.073 SA
HETATM    9  C   UNL     1      30.169  43.615  55.421  1.00  0.00     0.035 A 
HETATM   10  C   UNL     1      29.535  44.854  55.553  1.00  0.00     0.074 A 
HETATM   11  C   UNL     1      31.090  43.147  56.372  1.00  0.00     0.021 A 
HETATM   12  N   UNL     1      28.652  45.178  54.532  1.00  0.00    -0.245 NA
HETATM   13  C   UNL     1      29.837  45.654  56.673  1.00  0.00     0.033 A 
HETATM   14  C   UNL     1      30.757  45.200  57.624  1.00  0.00     0.002 A 
HETATM   15  C   UNL     1      31.373  43.961  57.473  1.00  0.00     0.002 A 
ENDBRANCH   6   7
ENDBRANCH   4   6
ENDBRANCH   1   4
BRANCH   1  16
HETATM   16  C   UNL     1      25.962  45.579  50.817  1.00  0.00     0.269 C 
BRANCH  16  17
HETATM   17  C   UNL     1      25.129  46.875  50.935  1.00  0.00     0.177 C 
BRANCH  17  18
HETATM   18  O   UNL     1      25.260  47.345  52.288  1.00  0.00    -0.389 OA
HETATM   19  H   UNL     1      25.753  46.654  52.776  1.00  0.00     0.210 HD
ENDBRANCH  17  18
BRANCH  17  20
HETATM   20  C   UNL     1      25.550  47.923  49.937  1.00  0.00    -0.025 A 
HETATM   21  C   UNL     1      24.603  48.625  49.167  1.00  0.00     0.046 A 
HETATM   22  C   UNL     1      25.010  49.607  48.260  1.00  0.00     0.068 A 
HETATM   23  C   UNL     1      26.367  49.906  48.139  1.00  0.00     0.037 A 
HETATM   24  C   UNL     1      27.315  49.222  48.897  1.00  0.00     0.003 A 
HETATM   25  C   UNL     1      26.910  48.235  49.793  1.00  0.00     0.010 A 
BRANCH  22  26
HETATM   26  O   UNL     1      24.190  50.348  47.458  1.00  0.00    -0.356 OA
HETATM   27  C   UNL     1      22.788  50.192  47.631  1.00  0.00     0.210 C 
ENDBRANCH  22  26
ENDBRANCH  17  20
ENDBRANCH  16  17
ENDBRANCH   1  16
TORSDOF 8
ENDMDL
MODEL 2
REMARK VINA RESULT:      -8.4     12.069     13.353
REMARK  8 active torsions:
REMARK  status: ('A' for Active; 'I' for Inactive)
REMARK    1  A    between atoms: C_2  and  N_3 
REMARK    2  A    between atoms: C_2  and  C_17 
REMARK    3  A    between atoms: N_3  and  C_6 
REMARK    4  A    between atoms: C_6  and  C_7 
REMARK    5  A    between atoms: C_7  and  O_8 
REMARK    6  A    between atoms: C_7  and  C_9 
REMARK    7  A    between atoms: C_11  and  O_12 
REMARK    8  A    between atoms: C_17  and  C_18 
ROOT
HETATM    1  N   UNL     1      27.395  49.955  41.475  1.00  0.00    -0.068 N 
HETATM    2  H   UNL     1      26.465  49.846  41.903  1.00  0.00     0.277 HD
HETATM    3  H   UNL     1      28.038  49.973  42.288  1.00  0.00     0.277 HD
ENDROOT
BRANCH   1   4
HETATM    4  C   UNL     1      27.659  48.784  40.560  1.00  0.00     0.188 C 
HETATM    5  C   UNL     1      26.302  48.125  40.295  1.00  0.00     0.040 C 
BRANCH   4   6
HETATM    6  C   UNL     1      28.664  47.804  41.196  1.00  0.00     0.099 C 
BRANCH   6   7
HETATM    7  C   UNL     1      29.974  48.474  41.474  1.00  0.00     0.078 A 
HETATM    8  S   UNL     1      31.373  48.049  40.582  1.00  0.00    -0.073 SA
HETATM    9  C   UNL     1      32.290  49.208  41.467  1.00  0.00     0.035 A 
HETATM   10  C   UNL     1      31.454  49.832  42.397  1.00  0.00     0.074 A 
HETATM   11  C   UNL     1      33.649  49.541  41.350  1.00  0.00     0.021 A 
HETATM   12  N   UNL     1      30.135  49.397  42.393  1.00  0.00    -0.245 NA
HETATM   13  C   UNL     1      31.996  50.827  43.235  1.00  0.00     0.033 A 
HETATM   14  C   UNL     1      33.348  51.169  43.124  1.00  0.00     0.002 A 
HETATM   15  C   UNL     1      34.161  50.532  42.192  1.00  0.00     0.002 A 
ENDBRANCH   6   7
ENDBRANCH   4   6
ENDBRANCH   1   4
BRANCH   1  16
HETATM   16  C   UNL     1      27.457  51.338  40.869  1.00  0.00     0.269 C 
BRANCH  16  17
HETATM   17  C   UNL     1      28.346  51.256  39.609  1.00  0.00     0.177 C 
BRANCH  17  18
HETATM   18  O   UNL     1      27.618  51.871  38.531  1.00  0.00    -0.389 OA
HETATM   19  H   UNL     1      27.094  51.159  38.108  1.00  0.00     0.210 HD
ENDBRANCH  17  18
BRANCH  17  20
HETATM   20  C   UNL     1      29.692  51.904  39.812  1.00  0.00    -0.025 A 
HETATM   21  C   UNL     1      30.812  51.526  39.046  1.00  0.00     0.046 A 
HETATM   22  C   UNL     1      32.047  52.150  39.235  1.00  0.00     0.068 A 
HETATM   23  C   UNL     1      32.160  53.173  40.177  1.00  0.00     0.037 A 
HETATM   24  C   UNL     1      31.060  53.562  40.938  1.00  0.00     0.003 A 
HETATM   25  C   UNL     1      29.830  52.931  40.758  1.00  0.00     0.010 A 
BRANCH  22  26
HETATM   26  O   UNL     1      33.201  51.867  38.561  1.00  0.00    -0.356 OA
HETATM   27  C   UNL     1      34.405  52.438  39.054  1.00  0.00     0.210 C 
ENDBRANCH  22  26
ENDBRANCH  17  20
ENDBRANCH  16  17
ENDBRANCH   1  16
TORSDOF 8
ENDMDL
MODEL 3
REMARK VINA RESULT:      -8.4      3.441      7.315
REMARK  8 active torsions:
REMARK  status: ('A' for Active; 'I' for Inactive)
REMARK    1  A    between atoms: C_2  and  N_3 
REMARK    2  A    between atoms: C_2  and  C_17 
REMARK    3  A    between atoms: N_3  and  C_6 
REMARK    4  A    between atoms: C_6  and  C_7 
REMARK    5  A    between atoms: C_7  and  O_8 
REMARK    6  A    between atoms: C_7  and  C_9 
REMARK    7  A    between atoms: C_11  and  O_12 
REMARK    8  A    between atoms: C_17  and  C_18 
ROOT
HETATM    1  N   UNL     1      28.718  41.522  51.125  1.00  0.00    -0.068 N 
HETATM    2  H   UNL     1      29.600  41.409  50.607  1.00  0.00     0.277 HD
HETATM    3  H   UNL     1      28.419  42.487  50.893  1.00  0.00     0.277 HD
ENDROOT
BRANCH   1   4
HETATM    4  C   UNL     1      27.729  40.485  50.649  1.00  0.00     0.188 C 
HETATM    5  C   UNL     1      28.555  39.323  50.088  1.00  0.00     0.040 C 
BRANCH   4   6
HETATM    6  C   UNL     1      26.774  41.078  49.596  1.00  0.00     0.099 C 
BRANCH   6   7
HETATM    7  C   UNL     1      26.412  42.492  49.927  1.00  0.00     0.078 A 
HETATM    8  S   UNL     1      25.087  42.832  50.958  1.00  0.00    -0.073 SA
HETATM    9  C   UNL     1      25.399  44.519  50.805  1.00  0.00     0.035 A 
HETATM   10  C   UNL     1      26.497  44.702  49.958  1.00  0.00     0.074 A 
HETATM   11  C   UNL     1      24.724  45.603  51.389  1.00  0.00     0.021 A 
HETATM   12  N   UNL     1      27.059  43.535  49.459  1.00  0.00    -0.245 NA
HETATM   13  C   UNL     1      26.935  46.014  49.690  1.00  0.00     0.033 A 
HETATM   14  C   UNL     1      26.271  47.100  50.271  1.00  0.00     0.002 A 
HETATM   15  C   UNL     1      25.180  46.894  51.108  1.00  0.00     0.002 A 
ENDBRANCH   6   7
ENDBRANCH   4   6
ENDBRANCH   1   4
BRANCH   1  16
HETATM   16  C   UNL     1      29.054  41.535  52.598  1.00  0.00     0.269 C 
BRANCH  16  17
HETATM   17  C   UNL     1      28.097  42.532  53.288  1.00  0.00     0.177 C 
BRANCH  17  18
HETATM   18  O   UNL     1      27.105  41.759  53.985  1.00  0.00    -0.389 OA
HETATM   19  H   UNL     1      26.484  41.425  53.305  1.00  0.00     0.210 HD
ENDBRANCH  17  18
BRANCH  17  20
HETATM   20  C   UNL     1      28.820  43.477  54.213  1.00  0.00    -0.025 A 
HETATM   21  C   UNL     1      28.303  44.754  54.509  1.00  0.00     0.046 A 
HETATM   22  C   UNL     1      28.977  45.609  55.384  1.00  0.00     0.068 A 
HETATM   23  C   UNL     1      30.160  45.179  55.985  1.00  0.00     0.037 A 
HETATM   24  C   UNL     1      30.681  43.917  55.706  1.00  0.00     0.003 A 
HETATM   25  C   UNL     1      30.015  43.069  54.825  1.00  0.00     0.010 A 
BRANCH  22  26
HETATM   26  O   UNL     1      28.581  46.866  55.741  1.00  0.00    -0.356 OA
HETATM   27  C   UNL     1      27.617  47.508  54.918  1.00  0.00     0.210 C 
ENDBRANCH  22  26
ENDBRANCH  17  20
ENDBRANCH  16  17
ENDBRANCH   1  16
TORSDOF 8
ENDMDL
MODEL 4
REMARK VINA RESULT:      -8.3     12.583     14.822
REMARK  8 active torsions:
REMARK  status: ('A' for Active; 'I' for Inactive)
REMARK    1  A    between atoms: C_2  and  N_3 
REMARK    2  A    between atoms: C_2  and  C_17 
REMARK    3  A    between atoms: N_3  and  C_6 
REMARK    4  A    between atoms: C_6  and  C_7 
REMARK    5  A    between atoms: C_7  and  O_8 
REMARK    6  A    between atoms: C_7  and  C_9 
REMARK    7  A    between atoms: C_11  and  O_12 
REMARK    8  A    between atoms: C_17  and  C_18 
ROOT
HETATM    1  N   UNL     1      27.538  48.187  38.975  1.00  0.00    -0.068 N 
HETATM    2  H   UNL     1      27.056  47.399  38.520  1.00  0.00     0.277 HD
HETATM    3  H   UNL     1      28.321  48.401  38.330  1.00  0.00     0.277 HD
ENDROOT
BRANCH   1   4
HETATM    4  C   UNL     1      26.576  49.342  39.113  1.00  0.00     0.188 C 
HETATM    5  C   UNL     1      25.196  48.807  38.720  1.00  0.00     0.040 C 
BRANCH   4   6
HETATM    6  C   UNL     1      27.010  50.527  38.229  1.00  0.00     0.099 C 
BRANCH   6   7
HETATM    7  C   UNL     1      28.388  50.993  38.582  1.00  0.00     0.078 A 
HETATM    8  S   UNL     1      28.621  52.163  39.811  1.00  0.00    -0.073 SA
HETATM    9  C   UNL     1      30.325  52.078  39.569  1.00  0.00     0.035 A 
HETATM   10  C   UNL     1      30.593  51.161  38.548  1.00  0.00     0.074 A 
HETATM   11  C   UNL     1      31.351  52.771  40.232  1.00  0.00     0.021 A 
HETATM   12  N   UNL     1      29.475  50.555  37.990  1.00  0.00    -0.245 NA
HETATM   13  C   UNL     1      31.933  50.928  38.181  1.00  0.00     0.033 A 
HETATM   14  C   UNL     1      32.963  51.610  38.838  1.00  0.00     0.002 A 
HETATM   15  C   UNL     1      32.671  52.519  39.850  1.00  0.00     0.002 A 
ENDBRANCH   6   7
ENDBRANCH   4   6
ENDBRANCH   1   4
BRANCH   1  16
HETATM   16  C   UNL     1      28.176  47.661  40.240  1.00  0.00     0.269 C 
BRANCH  16  17
HETATM   17  C   UNL     1      29.653  47.343  39.921  1.00  0.00     0.177 C 
BRANCH  17  18
HETATM   18  O   UNL     1      29.850  47.584  38.517  1.00  0.00    -0.389 OA
HETATM   19  H   UNL     1      30.818  47.593  38.369  1.00  0.00     0.210 HD
ENDBRANCH  17  18
BRANCH  17  20
HETATM   20  C   UNL     1      30.609  48.147  40.764  1.00  0.00    -0.025 A 
HETATM   21  C   UNL     1      32.003  48.064  40.576  1.00  0.00     0.046 A 
HETATM   22  C   UNL     1      32.873  48.831  41.353  1.00  0.00     0.068 A 
HETATM   23  C   UNL     1      32.350  49.704  42.308  1.00  0.00     0.037 A 
HETATM   24  C   UNL     1      30.973  49.800  42.502  1.00  0.00     0.003 A 
HETATM   25  C   UNL     1      30.106  49.026  41.735  1.00  0.00     0.010 A 
BRANCH  22  26
HETATM   26  O   UNL     1      34.236  48.832  41.267  1.00  0.00    -0.356 OA
HETATM   27  C   UNL     1      34.915  50.025  41.637  1.00  0.00     0.210 C 
ENDBRANCH  22  26
ENDBRANCH  17  20
ENDBRANCH  16  17
ENDBRANCH   1  16
TORSDOF 8
ENDMDL
MODEL 5
REMARK VINA RESULT:      -8.3      3.135      8.735
REMARK  8 active torsions:
REMARK  status: ('A' for Active; 'I' for Inactive)
REMARK    1  A    between atoms: C_2  and  N_3 
REMARK    2  A    between atoms: C_2  and  C_17 
REMARK    3  A    between atoms: N_3  and  C_6 
REMARK    4  A    between atoms: C_6  and  C_7 
REMARK    5  A    between atoms: C_7  and  O_8 
REMARK    6  A    between atoms: C_7  and  C_9 
REMARK    7  A    between atoms: C_11  and  O_12 
REMARK    8  A    between atoms: C_17  and  C_18 
ROOT
HETATM    1  N   UNL     1      25.017  44.821  52.006  1.00  0.00    -0.068 N 
HETATM    2  H   UNL     1      24.013  45.027  51.919  1.00  0.00     0.277 HD
HETATM    3  H   UNL     1      25.038  43.853  52.377  1.00  0.00     0.277 HD
ENDROOT
BRANCH   1   4
HETATM    4  C   UNL     1      25.665  44.928  50.646  1.00  0.00     0.188 C 
HETATM    5  C   UNL     1      26.641  43.753  50.537  1.00  0.00     0.040 C 
BRANCH   4   6
HETATM    6  C   UNL     1      26.373  46.286  50.479  1.00  0.00     0.099 C 
BRANCH   6   7
HETATM    7  C   UNL     1      25.464  47.299  49.855  1.00  0.00     0.078 A 
HETATM    8  S   UNL     1      26.105  48.720  49.145  1.00  0.00    -0.073 SA
HETATM    9  C   UNL     1      24.514  49.223  48.716  1.00  0.00     0.035 A 
HETATM   10  C   UNL     1      23.600  48.264  49.161  1.00  0.00     0.074 A 
HETATM   11  C   UNL     1      24.104  50.380  48.035  1.00  0.00     0.021 A 
HETATM   12  N   UNL     1      24.158  47.175  49.817  1.00  0.00    -0.245 NA
HETATM   13  C   UNL     1      22.228  48.469  48.914  1.00  0.00     0.033 A 
HETATM   14  C   UNL     1      21.809  49.617  48.232  1.00  0.00     0.002 A 
HETATM   15  C   UNL     1      22.737  50.559  47.800  1.00  0.00     0.002 A 
ENDBRANCH   6   7
ENDBRANCH   4   6
ENDBRANCH   1   4
BRANCH   1  16
HETATM   16  C   UNL     1      25.567  45.698  53.107  1.00  0.00     0.269 C 
BRANCH  16  17
HETATM   17  C   UNL     1      25.770  44.810  54.355  1.00  0.00     0.177 C 
BRANCH  17  18
HETATM   18  O   UNL     1      24.954  43.637  54.182  1.00  0.00    -0.389 OA
HETATM   19  H   UNL     1      25.387  42.920  54.691  1.00  0.00     0.210 HD
ENDBRANCH  17  18
BRANCH  17  20
HETATM   20  C   UNL     1      27.217  44.454  54.578  1.00  0.00    -0.025 A 
HETATM   21  C   UNL     1      28.087  45.317  55.273  1.00  0.00     0.046 A 
HETATM   22  C   UNL     1      29.421  44.962  55.487  1.00  0.00     0.068 A 
HETATM   23  C   UNL     1      29.884  43.730  55.026  1.00  0.00     0.037 A 
HETATM   24  C   UNL     1      29.035  42.864  54.340  1.00  0.00     0.003 A 
HETATM   25  C   UNL     1      27.707  43.223  54.116  1.00  0.00     0.010 A 
BRANCH  22  26
HETATM   26  O   UNL     1      30.356  45.714  56.139  1.00  0.00    -0.356 OA
HETATM   27  C   UNL     1      30.511  45.501  57.536  1.00  0.00     0.210 C 
ENDBRANCH  22  26
ENDBRANCH  17  20
ENDBRANCH  16  17
ENDBRANCH   1  16
TORSDOF 8
ENDMDL
MODEL 6
REMARK VINA RESULT:      -8.2      2.171      3.807
REMARK  8 active torsions:
REMARK  status: ('A' for Active; 'I' for Inactive)
REMARK    1  A    between atoms: C_2  and  N_3 
REMARK    2  A    between atoms: C_2  and  C_17 
REMARK    3  A    between atoms: N_3  and  C_6 
REMARK    4  A    between atoms: C_6  and  C_7 
REMARK    5  A    between atoms: C_7  and  O_8 
REMARK    6  A    between atoms: C_7  and  C_9 
REMARK    7  A    between atoms: C_11  and  O_12 
REMARK    8  A    between atoms: C_17  and  C_18 
ROOT
HETATM    1  N   UNL     1      27.876  41.329  51.485  1.00  0.00    -0.068 N 
HETATM    2  H   UNL     1      28.301  40.550  50.965  1.00  0.00     0.277 HD
HETATM    3  H   UNL     1      26.946  40.961  51.760  1.00  0.00     0.277 HD
ENDROOT
BRANCH   1   4
HETATM    4  C   UNL     1      28.739  41.655  52.680  1.00  0.00     0.188 C 
HETATM    5  C   UNL     1      27.845  41.506  53.915  1.00  0.00     0.040 C 
BRANCH   4   6
HETATM    6  C   UNL     1      29.329  43.073  52.562  1.00  0.00     0.099 C 
BRANCH   6   7
HETATM    7  C   UNL     1      29.663  43.637  53.908  1.00  0.00     0.078 A 
HETATM    8  S   UNL     1      28.776  44.958  54.541  1.00  0.00    -0.073 SA
HETATM    9  C   UNL     1      29.734  44.917  55.972  1.00  0.00     0.035 A 
HETATM   10  C   UNL     1      30.679  43.893  55.855  1.00  0.00     0.074 A 
HETATM   11  C   UNL     1      29.657  45.729  57.115  1.00  0.00     0.021 A 
HETATM   12  N   UNL     1      30.630  43.176  54.667  1.00  0.00    -0.245 NA
HETATM   13  C   UNL     1      31.575  43.673  56.920  1.00  0.00     0.033 A 
HETATM   14  C   UNL     1      31.504  44.474  58.065  1.00  0.00     0.002 A 
HETATM   15  C   UNL     1      30.556  45.488  58.158  1.00  0.00     0.002 A 
ENDBRANCH   6   7
ENDBRANCH   4   6
ENDBRANCH   1   4
BRANCH   1  16
HETATM   16  C   UNL     1      27.606  42.442  50.499  1.00  0.00     0.269 C 
BRANCH  16  17
HETATM   17  C   UNL     1      26.125  42.852  50.651  1.00  0.00     0.177 C 
BRANCH  17  18
HETATM   18  O   UNL     1      25.442  41.761  51.294  1.00  0.00    -0.389 OA
HETATM   19  H   UNL     1      26.052  41.418  51.980  1.00  0.00     0.210 HD
ENDBRANCH  17  18
BRANCH  17  20
HETATM   20  C   UNL     1      25.961  44.140  51.416  1.00  0.00    -0.025 A 
HETATM   21  C   UNL     1      26.250  45.386  50.826  1.00  0.00     0.046 A 
HETATM   22  C   UNL     1      26.074  46.572  51.544  1.00  0.00     0.068 A 
HETATM   23  C   UNL     1      25.584  46.515  52.849  1.00  0.00     0.037 A 
HETATM   24  C   UNL     1      25.288  45.290  53.443  1.00  0.00     0.003 A 
HETATM   25  C   UNL     1      25.475  44.107  52.732  1.00  0.00     0.010 A 
BRANCH  22  26
HETATM   26  O   UNL     1      26.325  47.833  51.084  1.00  0.00    -0.356 OA
HETATM   27  C   UNL     1      26.498  47.998  49.683  1.00  0.00     0.210 C 
ENDBRANCH  22  26
ENDBRANCH  17  20
ENDBRANCH  16  17
ENDBRANCH   1  16
TORSDOF 8
ENDMDL
MODEL 7
REMARK VINA RESULT:      -8.2      1.885      2.588
REMARK  8 active torsions:
REMARK  status: ('A' for Active; 'I' for Inactive)
REMARK    1  A    between atoms: C_2  and  N_3 
REMARK    2  A    between atoms: C_2  and  C_17 
REMARK    3  A    between atoms: N_3  and  C_6 
REMARK    4  A    between atoms: C_6  and  C_7 
REMARK    5  A    between atoms: C_7  and  O_8 
REMARK    6  A    between atoms: C_7  and  C_9 
REMARK    7  A    between atoms: C_11  and  O_12 
REMARK    8  A    between atoms: C_17  and  C_18 
ROOT
HETATM    1  N   UNL     1      27.005  45.499  49.830  1.00  0.00    -0.068 N 
HETATM    2  H   UNL     1      27.878  45.966  49.551  1.00  0.00     0.277 HD
HETATM    3  H   UNL     1      26.551  45.267  48.927  1.00  0.00     0.277 HD
ENDROOT
BRANCH   1   4
HETATM    4  C   UNL     1      27.338  44.267  50.637  1.00  0.00     0.188 C 
HETATM    5  C   UNL     1      26.910  43.065  49.790  1.00  0.00     0.040 C 
BRANCH   4   6
HETATM    6  C   UNL     1      26.626  44.295  52.002  1.00  0.00     0.099 C 
BRANCH   6   7
HETATM    7  C   UNL     1      27.609  44.415  53.125  1.00  0.00     0.078 A 
HETATM    8  S   UNL     1      27.487  45.698  54.253  1.00  0.00    -0.073 SA
HETATM    9  C   UNL     1      28.860  45.087  55.096  1.00  0.00     0.035 A 
HETATM   10  C   UNL     1      29.323  43.943  54.440  1.00  0.00     0.074 A 
HETATM   11  C   UNL     1      29.484  45.583  56.252  1.00  0.00     0.021 A 
HETATM   12  N   UNL     1      28.602  43.576  53.312  1.00  0.00    -0.245 NA
HETATM   13  C   UNL     1      30.446  43.270  54.961  1.00  0.00     0.033 A 
HETATM   14  C   UNL     1      31.072  43.753  56.115  1.00  0.00     0.002 A 
HETATM   15  C   UNL     1      30.595  44.896  56.750  1.00  0.00     0.002 A 
ENDBRANCH   6   7
ENDBRANCH   4   6
ENDBRANCH   1   4
BRANCH   1  16
HETATM   16  C   UNL     1      26.122  46.538  50.481  1.00  0.00     0.269 C 
BRANCH  16  17
HETATM   17  C   UNL     1      26.484  47.909  49.869  1.00  0.00     0.177 C 
BRANCH  17  18
HETATM   18  O   UNL     1      27.516  47.683  48.894  1.00  0.00    -0.389 OA
HETATM   19  H   UNL     1      27.564  48.494  48.346  1.00  0.00     0.210 HD
ENDBRANCH  17  18
BRANCH  17  20
HETATM   20  C   UNL     1      25.289  48.602  49.266  1.00  0.00    -0.025 A 
HETATM   21  C   UNL     1      23.975  48.186  49.556  1.00  0.00     0.046 A 
HETATM   22  C   UNL     1      22.879  48.852  49.003  1.00  0.00     0.068 A 
HETATM   23  C   UNL     1      23.094  49.953  48.174  1.00  0.00     0.037 A 
HETATM   24  C   UNL     1      24.388  50.379  47.881  1.00  0.00     0.003 A 
HETATM   25  C   UNL     1      25.482  49.708  48.424  1.00  0.00     0.010 A 
BRANCH  22  26
HETATM   26  O   UNL     1      21.564  48.540  49.205  1.00  0.00    -0.356 OA
HETATM   27  C   UNL     1      20.602  49.552  48.941  1.00  0.00     0.210 C 
ENDBRANCH  22  26
ENDBRANCH  17  20
ENDBRANCH  16  17
ENDBRANCH   1  16
TORSDOF 8
ENDMDL
MODEL 8
REMARK VINA RESULT:      -8.2      1.757      2.237
REMARK  8 active torsions:
REMARK  status: ('A' for Active; 'I' for Inactive)
REMARK    1  A    between atoms: C_2  and  N_3 
REMARK    2  A    between atoms: C_2  and  C_17 
REMARK    3  A    between atoms: N_3  and  C_6 
REMARK    4  A    between atoms: C_6  and  C_7 
REMARK    5  A    between atoms: C_7  and  O_8 
REMARK    6  A    between atoms: C_7  and  C_9 
REMARK    7  A    between atoms: C_11  and  O_12 
REMARK    8  A    between atoms: C_17  and  C_18 
ROOT
HETATM    1  N   UNL     1      26.046  43.152  52.224  1.00  0.00    -0.068 N 
HETATM    2  H   UNL     1      26.893  42.677  51.883  1.00  0.00     0.277 HD
HETATM    3  H   UNL     1      25.412  42.371  52.476  1.00  0.00     0.277 HD
ENDROOT
BRANCH   1   4
HETATM    4  C   UNL     1      26.405  44.008  53.415  1.00  0.00     0.188 C 
HETATM    5  C   UNL     1      25.197  44.913  53.677  1.00  0.00     0.040 C 
BRANCH   4   6
HETATM    6  C   UNL     1      27.686  44.818  53.144  1.00  0.00     0.099 C 
BRANCH   6   7
HETATM    7  C   UNL     1      28.606  44.791  54.325  1.00  0.00     0.078 A 
HETATM    8  S   UNL     1      28.566  46.050  55.486  1.00  0.00    -0.073 SA
HETATM    9  C   UNL     1      29.804  45.259  56.386  1.00  0.00     0.035 A 
HETATM   10  C   UNL     1      30.169  44.085  55.721  1.00  0.00     0.074 A 
HETATM   11  C   UNL     1      30.409  45.647  57.593  1.00  0.00     0.021 A 
HETATM   12  N   UNL     1      29.480  43.836  54.541  1.00  0.00    -0.245 NA
HETATM   13  C   UNL     1      31.171  43.270  56.283  1.00  0.00     0.033 A 
HETATM   14  C   UNL     1      31.778  43.645  57.487  1.00  0.00     0.002 A 
HETATM   15  C   UNL     1      31.399  44.820  58.130  1.00  0.00     0.002 A 
ENDBRANCH   6   7
ENDBRANCH   4   6
ENDBRANCH   1   4
BRANCH   1  16
HETATM   16  C   UNL     1      25.404  43.841  51.042  1.00  0.00     0.269 C 
BRANCH  16  17
HETATM   17  C   UNL     1      26.535  44.446  50.182  1.00  0.00     0.177 C 
BRANCH  17  18
HETATM   18  O   UNL     1      26.628  43.658  48.982  1.00  0.00    -0.389 OA
HETATM   19  H   UNL     1      26.734  42.727  49.268  1.00  0.00     0.210 HD
ENDBRANCH  17  18
BRANCH  17  20
HETATM   20  C   UNL     1      26.307  45.904  49.875  1.00  0.00    -0.025 A 
HETATM   21  C   UNL     1      25.031  46.488  49.997  1.00  0.00     0.046 A 
HETATM   22  C   UNL     1      24.841  47.846  49.727  1.00  0.00     0.068 A 
HETATM   23  C   UNL     1      25.934  48.629  49.355  1.00  0.00     0.037 A 
HETATM   24  C   UNL     1      27.203  48.065  49.234  1.00  0.00     0.003 A 
HETATM   25  C   UNL     1      27.390  46.709  49.492  1.00  0.00     0.010 A 
BRANCH  22  26
HETATM   26  O   UNL     1      23.657  48.521  49.805  1.00  0.00    -0.356 OA
HETATM   27  C   UNL     1      23.491  49.653  48.962  1.00  0.00     0.210 C 
ENDBRANCH  22  26
ENDBRANCH  17  20
ENDBRANCH  16  17
ENDBRANCH   1  16
TORSDOF 8
ENDMDL
MODEL 9
REMARK VINA RESULT:      -8.2     12.300     14.332
REMARK  8 active torsions:
REMARK  status: ('A' for Active; 'I' for Inactive)
REMARK    1  A    between atoms: C_2  and  N_3 
REMARK    2  A    between atoms: C_2  and  C_17 
REMARK    3  A    between atoms: N_3  and  C_6 
REMARK    4  A    between atoms: C_6  and  C_7 
REMARK    5  A    between atoms: C_7  and  O_8 
REMARK    6  A    between atoms: C_7  and  C_9 
REMARK    7  A    between atoms: C_11  and  O_12 
REMARK    8  A    between atoms: C_17  and  C_18 
ROOT
HETATM    1  N   UNL     1      33.798  49.863  42.081  1.00  0.00    -0.068 N 
HETATM    2  H   UNL     1      34.135  49.679  43.035  1.00  0.00     0.277 HD
HETATM    3  H   UNL     1      33.061  50.580  42.215  1.00  0.00     0.277 HD
ENDROOT
BRANCH   1   4
HETATM    4  C   UNL     1      34.945  50.369  41.240  1.00  0.00     0.188 C 
HETATM    5  C   UNL     1      36.181  50.362  42.143  1.00  0.00     0.040 C 
BRANCH   4   6
HETATM    6  C   UNL     1      34.642  51.774  40.684  1.00  0.00     0.099 C 
BRANCH   6   7
HETATM    7  C   UNL     1      33.185  51.936  40.382  1.00  0.00     0.078 A 
HETATM    8  S   UNL     1      32.591  51.668  38.798  1.00  0.00    -0.073 SA
HETATM    9  C   UNL     1      30.994  52.024  39.336  1.00  0.00     0.035 A 
HETATM   10  C   UNL     1      31.033  52.336  40.698  1.00  0.00     0.074 A 
HETATM   11  C   UNL     1      29.793  52.027  38.608  1.00  0.00     0.021 A 
HETATM   12  N   UNL     1      32.293  52.288  41.279  1.00  0.00    -0.245 NA
HETATM   13  C   UNL     1      29.829  52.660  41.354  1.00  0.00     0.033 A 
HETATM   14  C   UNL     1      28.626  52.662  40.639  1.00  0.00     0.002 A 
HETATM   15  C   UNL     1      28.612  52.350  39.283  1.00  0.00     0.002 A 
ENDBRANCH   6   7
ENDBRANCH   4   6
ENDBRANCH   1   4
BRANCH   1  16
HETATM   16  C   UNL     1      33.083  48.620  41.604  1.00  0.00     0.269 C 
BRANCH  16  17
HETATM   17  C   UNL     1      31.659  48.640  42.203  1.00  0.00     0.177 C 
BRANCH  17  18
HETATM   18  O   UNL     1      31.559  49.814  43.027  1.00  0.00    -0.389 OA
HETATM   19  H   UNL     1      31.807  49.539  43.934  1.00  0.00     0.210 HD
ENDBRANCH  17  18
BRANCH  17  20
HETATM   20  C   UNL     1      30.589  48.610  41.142  1.00  0.00    -0.025 A 
HETATM   21  C   UNL     1      29.245  48.898  41.448  1.00  0.00     0.046 A 
HETATM   22  C   UNL     1      28.269  48.884  40.449  1.00  0.00     0.068 A 
HETATM   23  C   UNL     1      28.640  48.605  39.133  1.00  0.00     0.037 A 
HETATM   24  C   UNL     1      29.967  48.323  38.815  1.00  0.00     0.003 A 
HETATM   25  C   UNL     1      30.938  48.325  39.813  1.00  0.00     0.010 A 
BRANCH  22  26
HETATM   26  O   UNL     1      26.938  49.140  40.623  1.00  0.00    -0.356 OA
HETATM   27  C   UNL     1      26.199  49.569  39.488  1.00  0.00     0.210 C 
ENDBRANCH  22  26
ENDBRANCH  17  20
ENDBRANCH  16  17
ENDBRANCH   1  16
TORSDOF 8
ENDMDL
MODEL 10
REMARK VINA RESULT:      -8.2     11.895     13.927
REMARK  8 active torsions:
REMARK  status: ('A' for Active; 'I' for Inactive)
REMARK    1  A    between atoms: C_2  and  N_3 
REMARK    2  A    between atoms: C_2  and  C_17 
REMARK    3  A    between atoms: N_3  and  C_6 
REMARK    4  A    between atoms: C_6  and  C_7 
REMARK    5  A    between atoms: C_7  and  O_8 
REMARK    6  A    between atoms: C_7  and  C_9 
REMARK    7  A    between atoms: C_11  and  O_12 
REMARK    8  A    between atoms: C_17  and  C_18 
ROOT
HETATM    1  N   UNL     1      26.813  50.826  39.295  1.00  0.00    -0.068 N 
HETATM    2  H   UNL     1      26.027  51.466  39.474  1.00  0.00     0.277 HD
HETATM    3  H   UNL     1      27.166  50.599  40.243  1.00  0.00     0.277 HD
ENDROOT
BRANCH   1   4
HETATM    4  C   UNL     1      26.301  49.606  38.567  1.00  0.00     0.188 C 
HETATM    5  C   UNL     1      24.804  49.832  38.339  1.00  0.00     0.040 C 
BRANCH   4   6
HETATM    6  C   UNL     1      26.576  48.326  39.378  1.00  0.00     0.099 C 
BRANCH   6   7
HETATM    7  C   UNL     1      27.973  48.312  39.916  1.00  0.00     0.078 A 
HETATM    8  S   UNL     1      29.260  47.687  38.975  1.00  0.00    -0.073 SA
HETATM    9  C   UNL     1      30.367  48.057  40.243  1.00  0.00     0.035 A 
HETATM   10  C   UNL     1      29.663  48.626  41.308  1.00  0.00     0.074 A 
HETATM   11  C   UNL     1      31.756  47.859  40.293  1.00  0.00     0.021 A 
HETATM   12  N   UNL     1      28.295  48.759  41.109  1.00  0.00    -0.245 NA
HETATM   13  C   UNL     1      30.374  49.013  42.461  1.00  0.00     0.033 A 
HETATM   14  C   UNL     1      31.759  48.824  42.520  1.00  0.00     0.002 A 
HETATM   15  C   UNL     1      32.438  48.253  41.448  1.00  0.00     0.002 A 
ENDBRANCH   6   7
ENDBRANCH   4   6
ENDBRANCH   1   4
BRANCH   1  16
HETATM   16  C   UNL     1      27.906  51.625  38.626  1.00  0.00     0.269 C 
BRANCH  16  17
HETATM   17  C   UNL     1      28.754  52.280  39.739  1.00  0.00     0.177 C 
BRANCH  17  18
HETATM   18  O   UNL     1      28.226  51.831  40.999  1.00  0.00    -0.389 OA
HETATM   19  H   UNL     1      28.531  50.907  41.115  1.00  0.00     0.210 HD
ENDBRANCH  17  18
BRANCH  17  20
HETATM   20  C   UNL     1      30.222  51.964  39.605  1.00  0.00    -0.025 A 
HETATM   21  C   UNL     1      31.119  52.181  40.668  1.00  0.00     0.046 A 
HETATM   22  C   UNL     1      32.473  51.864  40.533  1.00  0.00     0.068 A 
HETATM   23  C   UNL     1      32.930  51.307  39.338  1.00  0.00     0.037 A 
HETATM   24  C   UNL     1      32.052  51.082  38.279  1.00  0.00     0.003 A 
HETATM   25  C   UNL     1      30.705  51.409  38.410  1.00  0.00     0.010 A 
BRANCH  22  26
HETATM   26  O   UNL     1      33.436  52.034  41.487  1.00  0.00    -0.356 OA
HETATM   27  C   UNL     1      34.676  51.366  41.292  1.00  0.00     0.210 C 
ENDBRANCH  22  26
ENDBRANCH  17  20
ENDBRANCH  16  17
ENDBRANCH   1  16
TORSDOF 8
ENDMDL
