MODEL 1
REMARK VINA RESULT:      -8.8      0.000      0.000
REMARK  7 active torsions:
REMARK  status: ('A' for Active; 'I' for Inactive)
REMARK    1  A    between atoms: C_2  and  S_3 
REMARK    2  A    between atoms: C_2  and  C_20 
REMARK    3  A    between atoms: S_3  and  C_4 
REMARK    4  A    between atoms: C_4  and  C_5 
REMARK       I    between atoms: C_5  and  N_6 
REMARK    5  A    between atoms: N_6  and  C_7 
REMARK    6  A    between atoms: C_10  and  C_11 
REMARK       I    between atoms: C_11  and  N_12 
REMARK    7  A    between atoms: N_12  and  C_13 
ROOT
HETATM    1  C   UNL     1      26.438  43.416  50.333  1.00  0.00     0.231 C 
HETATM    2  N   UNL     1      25.570  44.351  50.878  1.00  0.00    -0.327 N 
HETATM    3  O   UNL     1      26.826  43.379  49.168  1.00  0.00    -0.272 OA
HETATM    4  H   UNL     1      25.236  44.164  51.815  1.00  0.00     0.169 HD
ENDROOT
BRANCH   1   5
HETATM    5  C   UNL     1      26.924  42.394  51.351  1.00  0.00     0.177 C 
BRANCH   5   6
HETATM    6  S   UNL     1      27.239  43.218  52.948  1.00  0.00    -0.147 SA
BRANCH   6   7
HETATM    7  C   UNL     1      29.078  43.165  52.984  1.00  0.00     0.113 C 
HETATM    8  C   UNL     1      29.590  41.762  52.670  1.00  0.00     0.029 C 
BRANCH   7   9
HETATM    9  C   UNL     1      29.609  43.692  54.283  1.00  0.00     0.118 A 
HETATM   10  N   UNL     1      30.581  43.181  55.014  1.00  0.00    -0.232 NA
HETATM   11  C   UNL     1      30.663  43.973  56.133  1.00  0.00     0.085 A 
HETATM   12  C   UNL     1      29.723  44.995  56.087  1.00  0.00     0.062 A 
HETATM   13  C   UNL     1      31.513  43.873  57.244  1.00  0.00     0.034 A 
HETATM   14  N   UNL     1      29.069  44.799  54.898  1.00  0.00    -0.342 N 
HETATM   15  C   UNL     1      29.569  45.943  57.100  1.00  0.00     0.032 A 
HETATM   16  H   UNL     1      28.289  45.340  54.553  1.00  0.00     0.167 HD
HETATM   17  C   UNL     1      30.424  45.827  58.203  1.00  0.00     0.002 A 
HETATM   18  C   UNL     1      31.380  44.811  58.276  1.00  0.00     0.002 A 
ENDBRANCH   7   9
ENDBRANCH   6   7
ENDBRANCH   5   6
ENDBRANCH   1   5
BRANCH   2  19
HETATM   19  C   UNL     1      25.115  45.543  50.279  1.00  0.00     0.034 A 
HETATM   20  C   UNL     1      25.801  46.758  50.340  1.00  0.00     0.030 A 
HETATM   21  C   UNL     1      25.243  47.923  49.799  1.00  0.00     0.019 A 
HETATM   22  C   UNL     1      23.981  47.886  49.200  1.00  0.00     0.032 A 
HETATM   23  C   UNL     1      23.313  46.662  49.089  1.00  0.00     0.019 A 
HETATM   24  C   UNL     1      23.876  45.500  49.626  1.00  0.00     0.030 A 
BRANCH  22  25
HETATM   25  C   UNL     1      23.308  49.113  48.686  1.00  0.00     0.251 C 
HETATM   26  N   UNL     1      22.221  49.555  49.413  1.00  0.00    -0.353 N 
HETATM   27  H   UNL     1      21.857  48.948  50.133  1.00  0.00     0.163 HD
HETATM   28  O   UNL     1      23.700  49.630  47.646  1.00  0.00    -0.268 OA
BRANCH  26  29
HETATM   29  C   UNL     1      21.340  50.637  48.986  1.00  0.00     0.076 C 
HETATM   30  C   UNL     1      20.534  50.293  47.736  1.00  0.00     0.032 C 
HETATM   31  C   UNL     1      20.441  51.115  50.124  1.00  0.00     0.032 C 
ENDBRANCH  26  29
ENDBRANCH  22  25
ENDBRANCH   2  19
TORSDOF 7
ENDMDL
MODEL 2
REMARK VINA RESULT:      -8.7      0.706      1.339
REMARK  7 active torsions:
REMARK  status: ('A' for Active; 'I' for Inactive)
REMARK    1  A    between atoms: C_2  and  S_3 
REMARK    2  A    between atoms: C_2  and  C_20 
REMARK    3  A    between atoms: S_3  and  C_4 
REMARK    4  A    between atoms: C_4  and  C_5 
REMARK       I    between atoms: C_5  and  N_6 
REMARK    5  A    between atoms: N_6  and  C_7 
REMARK    6  A    between atoms: C_10  and  C_11 
REMARK       I    between atoms: C_11  and  N_12 
REMARK    7  A    between atoms: N_12  and  C_13 
ROOT
HETATM    1  C   UNL     1      26.563  43.171  50.346  1.00  0.00     0.231 C 
HETATM    2  N   UNL     1      25.558  43.959  50.888  1.00  0.00    -0.327 N 
HETATM    3  O   UNL     1      26.971  43.213  49.188  1.00  0.00    -0.272 OA
HETATM    4  H   UNL     1      25.239  43.708  51.816  1.00  0.00     0.169 HD
ENDROOT
BRANCH   1   5
HETATM    5  C   UNL     1      27.178  42.215  51.358  1.00  0.00     0.177 C 
BRANCH   5   6
HETATM    6  S   UNL     1      27.304  43.036  52.982  1.00  0.00    -0.147 SA
BRANCH   6   7
HETATM    7  C   UNL     1      29.118  43.337  53.054  1.00  0.00     0.113 C 
HETATM    8  C   UNL     1      29.896  42.085  52.656  1.00  0.00     0.029 C 
BRANCH   7   9
HETATM    9  C   UNL     1      29.527  43.862  54.398  1.00  0.00     0.118 A 
HETATM   10  N   UNL     1      29.069  44.939  55.007  1.00  0.00    -0.232 NA
HETATM   11  C   UNL     1      29.786  45.040  56.175  1.00  0.00     0.085 A 
HETATM   12  C   UNL     1      30.701  44.001  56.286  1.00  0.00     0.062 A 
HETATM   13  C   UNL     1      29.717  46.006  57.189  1.00  0.00     0.034 A 
HETATM   14  N   UNL     1      30.513  43.261  55.147  1.00  0.00    -0.342 N 
HETATM   15  C   UNL     1      31.575  43.860  57.365  1.00  0.00     0.032 A 
HETATM   16  H   UNL     1      31.042  42.446  54.875  1.00  0.00     0.167 HD
HETATM   17  C   UNL     1      31.495  44.834  58.369  1.00  0.00     0.002 A 
HETATM   18  C   UNL     1      30.583  45.889  58.284  1.00  0.00     0.002 A 
ENDBRANCH   7   9
ENDBRANCH   6   7
ENDBRANCH   5   6
ENDBRANCH   1   5
BRANCH   2  19
HETATM   19  C   UNL     1      24.940  45.080  50.299  1.00  0.00     0.034 A 
HETATM   20  C   UNL     1      25.442  46.382  50.386  1.00  0.00     0.030 A 
HETATM   21  C   UNL     1      24.727  47.461  49.852  1.00  0.00     0.019 A 
HETATM   22  C   UNL     1      23.491  47.250  49.235  1.00  0.00     0.032 A 
HETATM   23  C   UNL     1      23.009  45.943  49.098  1.00  0.00     0.019 A 
HETATM   24  C   UNL     1      23.729  44.868  49.628  1.00  0.00     0.030 A 
BRANCH  22  25
HETATM   25  C   UNL     1      22.653  48.374  48.728  1.00  0.00     0.251 C 
HETATM   26  N   UNL     1      21.503  48.641  49.444  1.00  0.00    -0.353 N 
HETATM   27  H   UNL     1      21.223  47.976  50.151  1.00  0.00     0.163 HD
HETATM   28  O   UNL     1      22.978  48.958  47.701  1.00  0.00    -0.268 OA
BRANCH  26  29
HETATM   29  C   UNL     1      20.479  49.589  49.019  1.00  0.00     0.076 C 
HETATM   30  C   UNL     1      19.123  49.336  49.673  1.00  0.00     0.032 C 
HETATM   31  C   UNL     1      20.936  51.034  49.206  1.00  0.00     0.032 C 
ENDBRANCH  26  29
ENDBRANCH  22  25
ENDBRANCH   2  19
TORSDOF 7
ENDMDL
MODEL 3
REMARK VINA RESULT:      -8.5     12.054     14.324
REMARK  7 active torsions:
REMARK  status: ('A' for Active; 'I' for Inactive)
REMARK    1  A    between atoms: C_2  and  S_3 
REMARK    2  A    between atoms: C_2  and  C_20 
REMARK    3  A    between atoms: S_3  and  C_4 
REMARK    4  A    between atoms: C_4  and  C_5 
REMARK       I    between atoms: C_5  and  N_6 
REMARK    5  A    between atoms: N_6  and  C_7 
REMARK    6  A    between atoms: C_10  and  C_11 
REMARK       I    between atoms: C_11  and  N_12 
REMARK    7  A    between atoms: N_12  and  C_13 
ROOT
HETATM    1  C   UNL     1      25.974  49.841  38.183  1.00  0.00     0.231 C 
HETATM    2  N   UNL     1      26.252  50.541  39.347  1.00  0.00    -0.327 N 
HETATM    3  O   UNL     1      26.725  49.709  37.219  1.00  0.00    -0.272 OA
HETATM    4  H   UNL     1      25.479  50.676  39.988  1.00  0.00     0.169 HD
ENDROOT
BRANCH   1   5
HETATM    5  C   UNL     1      24.601  49.184  38.199  1.00  0.00     0.177 C 
BRANCH   5   6
HETATM    6  S   UNL     1      24.771  47.394  37.893  1.00  0.00    -0.147 SA
BRANCH   6   7
HETATM    7  C   UNL     1      25.282  46.825  39.566  1.00  0.00     0.113 C 
HETATM    8  C   UNL     1      24.360  47.392  40.642  1.00  0.00     0.029 C 
BRANCH   7   9
HETATM    9  C   UNL     1      26.726  47.138  39.826  1.00  0.00     0.118 A 
HETATM   10  N   UNL     1      27.250  47.624  40.935  1.00  0.00    -0.232 NA
HETATM   11  C   UNL     1      28.587  47.796  40.672  1.00  0.00     0.085 A 
HETATM   12  C   UNL     1      28.890  47.405  39.374  1.00  0.00     0.062 A 
HETATM   13  C   UNL     1      29.607  48.297  41.493  1.00  0.00     0.034 A 
HETATM   14  N   UNL     1      27.692  46.984  38.858  1.00  0.00    -0.342 N 
HETATM   15  C   UNL     1      30.173  47.485  38.828  1.00  0.00     0.032 A 
HETATM   16  H   UNL     1      27.532  46.665  37.914  1.00  0.00     0.167 HD
HETATM   17  C   UNL     1      31.179  47.989  39.662  1.00  0.00     0.002 A 
HETATM   18  C   UNL     1      30.903  48.389  40.972  1.00  0.00     0.002 A 
ENDBRANCH   7   9
ENDBRANCH   6   7
ENDBRANCH   5   6
ENDBRANCH   1   5
BRANCH   2  19
HETATM   19  C   UNL     1      27.494  51.073  39.747  1.00  0.00     0.034 A 
HETATM   20  C   UNL     1      28.614  51.148  38.915  1.00  0.00     0.030 A 
HETATM   21  C   UNL     1      29.842  51.606  39.408  1.00  0.00     0.019 A 
HETATM   22  C   UNL     1      29.966  51.982  40.748  1.00  0.00     0.032 A 
HETATM   23  C   UNL     1      28.836  51.958  41.572  1.00  0.00     0.019 A 
HETATM   24  C   UNL     1      27.610  51.506  41.074  1.00  0.00     0.030 A 
BRANCH  22  25
HETATM   25  C   UNL     1      31.270  52.393  41.341  1.00  0.00     0.251 C 
HETATM   26  N   UNL     1      31.765  51.578  42.340  1.00  0.00    -0.353 N 
HETATM   27  H   UNL     1      31.154  50.864  42.711  1.00  0.00     0.163 HD
HETATM   28  O   UNL     1      31.805  53.432  40.970  1.00  0.00    -0.268 OA
BRANCH  26  29
HETATM   29  C   UNL     1      32.938  51.896  43.147  1.00  0.00     0.076 C 
HETATM   30  C   UNL     1      32.672  51.805  44.648  1.00  0.00     0.032 C 
HETATM   31  C   UNL     1      34.149  51.063  42.735  1.00  0.00     0.032 C 
ENDBRANCH  26  29
ENDBRANCH  22  25
ENDBRANCH   2  19
TORSDOF 7
ENDMDL
MODEL 4
REMARK VINA RESULT:      -8.4     12.848     15.335
REMARK  7 active torsions:
REMARK  status: ('A' for Active; 'I' for Inactive)
REMARK    1  A    between atoms: C_2  and  S_3 
REMARK    2  A    between atoms: C_2  and  C_20 
REMARK    3  A    between atoms: S_3  and  C_4 
REMARK    4  A    between atoms: C_4  and  C_5 
REMARK       I    between atoms: C_5  and  N_6 
REMARK    5  A    between atoms: N_6  and  C_7 
REMARK    6  A    between atoms: C_10  and  C_11 
REMARK       I    between atoms: C_11  and  N_12 
REMARK    7  A    between atoms: N_12  and  C_13 
ROOT
HETATM    1  C   UNL     1      27.702  47.148  39.974  1.00  0.00     0.231 C 
HETATM    2  N   UNL     1      28.698  47.808  39.270  1.00  0.00    -0.327 N 
HETATM    3  O   UNL     1      27.659  46.987  41.191  1.00  0.00    -0.272 OA
HETATM    4  H   UNL     1      28.663  47.733  38.261  1.00  0.00     0.169 HD
ENDROOT
BRANCH   1   5
HETATM    5  C   UNL     1      26.585  46.632  39.078  1.00  0.00     0.177 C 
BRANCH   5   6
HETATM    6  S   UNL     1      25.081  47.634  39.328  1.00  0.00    -0.147 SA
BRANCH   6   7
HETATM    7  C   UNL     1      25.346  48.940  38.059  1.00  0.00     0.113 C 
HETATM    8  C   UNL     1      25.798  48.330  36.734  1.00  0.00     0.029 C 
BRANCH   7   9
HETATM    9  C   UNL     1      26.289  49.994  38.555  1.00  0.00     0.118 A 
HETATM   10  N   UNL     1      27.217  50.626  37.862  1.00  0.00    -0.232 NA
HETATM   11  C   UNL     1      27.859  51.446  38.757  1.00  0.00     0.085 A 
HETATM   12  C   UNL     1      27.312  51.317  40.027  1.00  0.00     0.062 A 
HETATM   13  C   UNL     1      28.933  52.326  38.559  1.00  0.00     0.034 A 
HETATM   14  N   UNL     1      26.311  50.393  39.873  1.00  0.00    -0.342 N 
HETATM   15  C   UNL     1      27.779  52.020  41.139  1.00  0.00     0.032 A 
HETATM   16  H   UNL     1      25.724  50.025  40.607  1.00  0.00     0.167 HD
HETATM   17  C   UNL     1      28.852  52.893  40.924  1.00  0.00     0.002 A 
HETATM   18  C   UNL     1      29.422  53.045  39.657  1.00  0.00     0.002 A 
ENDBRANCH   7   9
ENDBRANCH   6   7
ENDBRANCH   5   6
ENDBRANCH   1   5
BRANCH   2  19
HETATM   19  C   UNL     1      29.747  48.585  39.802  1.00  0.00     0.034 A 
HETATM   20  C   UNL     1      29.875  48.898  41.158  1.00  0.00     0.030 A 
HETATM   21  C   UNL     1      30.892  49.751  41.602  1.00  0.00     0.019 A 
HETATM   22  C   UNL     1      31.788  50.314  40.689  1.00  0.00     0.032 A 
HETATM   23  C   UNL     1      31.697  49.963  39.338  1.00  0.00     0.019 A 
HETATM   24  C   UNL     1      30.683  49.105  38.899  1.00  0.00     0.030 A 
BRANCH  22  25
HETATM   25  C   UNL     1      32.833  51.294  41.100  1.00  0.00     0.251 C 
HETATM   26  N   UNL     1      34.126  50.811  41.152  1.00  0.00    -0.353 N 
HETATM   27  H   UNL     1      34.261  49.814  41.070  1.00  0.00     0.163 HD
HETATM   28  O   UNL     1      32.508  52.432  41.417  1.00  0.00    -0.268 OA
BRANCH  26  29
HETATM   29  C   UNL     1      35.258  51.565  41.681  1.00  0.00     0.076 C 
HETATM   30  C   UNL     1      36.282  50.684  42.392  1.00  0.00     0.032 C 
HETATM   31  C   UNL     1      35.908  52.435  40.608  1.00  0.00     0.032 C 
ENDBRANCH  26  29
ENDBRANCH  22  25
ENDBRANCH   2  19
TORSDOF 7
ENDMDL
MODEL 5
REMARK VINA RESULT:      -8.2      2.965      5.210
REMARK  7 active torsions:
REMARK  status: ('A' for Active; 'I' for Inactive)
REMARK    1  A    between atoms: C_2  and  S_3 
REMARK    2  A    between atoms: C_2  and  C_20 
REMARK    3  A    between atoms: S_3  and  C_4 
REMARK    4  A    between atoms: C_4  and  C_5 
REMARK       I    between atoms: C_5  and  N_6 
REMARK    5  A    between atoms: N_6  and  C_7 
REMARK    6  A    between atoms: C_10  and  C_11 
REMARK       I    between atoms: C_11  and  N_12 
REMARK    7  A    between atoms: N_12  and  C_13 
ROOT
HETATM    1  C   UNL     1      23.355  48.009  49.618  1.00  0.00     0.231 C 
HETATM    2  N   UNL     1      22.026  47.981  49.220  1.00  0.00    -0.327 N 
HETATM    3  O   UNL     1      24.003  49.010  49.912  1.00  0.00    -0.272 OA
HETATM    4  H   UNL     1      21.677  47.095  48.876  1.00  0.00     0.169 HD
ENDROOT
BRANCH   1   5
HETATM    5  C   UNL     1      23.979  46.623  49.696  1.00  0.00     0.177 C 
BRANCH   5   6
HETATM    6  S   UNL     1      25.141  46.549  51.101  1.00  0.00    -0.147 SA
BRANCH   6   7
HETATM    7  C   UNL     1      25.949  44.930  50.769  1.00  0.00     0.113 C 
HETATM    8  C   UNL     1      24.910  43.828  50.584  1.00  0.00     0.029 C 
BRANCH   7   9
HETATM    9  C   UNL     1      26.953  44.597  51.832  1.00  0.00     0.118 A 
HETATM   10  N   UNL     1      27.029  45.109  53.046  1.00  0.00    -0.232 NA
HETATM   11  C   UNL     1      28.140  44.542  53.621  1.00  0.00     0.085 A 
HETATM   12  C   UNL     1      28.758  43.662  52.742  1.00  0.00     0.062 A 
HETATM   13  C   UNL     1      28.693  44.742  54.894  1.00  0.00     0.034 A 
HETATM   14  N   UNL     1      27.981  43.709  51.614  1.00  0.00    -0.342 N 
HETATM   15  C   UNL     1      29.921  42.955  53.054  1.00  0.00     0.032 A 
HETATM   16  H   UNL     1      28.160  43.219  50.749  1.00  0.00     0.167 HD
HETATM   17  C   UNL     1      30.461  43.167  54.329  1.00  0.00     0.002 A 
HETATM   18  C   UNL     1      29.860  44.045  55.235  1.00  0.00     0.002 A 
ENDBRANCH   7   9
ENDBRANCH   6   7
ENDBRANCH   5   6
ENDBRANCH   1   5
BRANCH   2  19
HETATM   19  C   UNL     1      21.103  49.045  49.254  1.00  0.00     0.034 A 
HETATM   20  C   UNL     1      19.893  49.004  49.951  1.00  0.00     0.030 A 
HETATM   21  C   UNL     1      18.982  50.065  49.867  1.00  0.00     0.019 A 
HETATM   22  C   UNL     1      19.268  51.176  49.069  1.00  0.00     0.032 A 
HETATM   23  C   UNL     1      20.501  51.246  48.411  1.00  0.00     0.019 A 
HETATM   24  C   UNL     1      21.410  50.187  48.503  1.00  0.00     0.030 A 
BRANCH  22  25
HETATM   25  C   UNL     1      18.297  52.290  48.878  1.00  0.00     0.251 C 
HETATM   26  N   UNL     1      17.106  52.177  49.567  1.00  0.00    -0.353 N 
HETATM   27  H   UNL     1      16.902  51.296  50.016  1.00  0.00     0.163 HD
HETATM   28  O   UNL     1      18.562  53.202  48.104  1.00  0.00    -0.268 OA
BRANCH  26  29
HETATM   29  C   UNL     1      15.972  53.078  49.389  1.00  0.00     0.076 C 
HETATM   30  C   UNL     1      15.231  52.852  48.073  1.00  0.00     0.032 C 
HETATM   31  C   UNL     1      15.025  53.037  50.586  1.00  0.00     0.032 C 
ENDBRANCH  26  29
ENDBRANCH  22  25
ENDBRANCH   2  19
TORSDOF 7
ENDMDL
MODEL 6
REMARK VINA RESULT:      -8.2      2.787     10.099
REMARK  7 active torsions:
REMARK  status: ('A' for Active; 'I' for Inactive)
REMARK    1  A    between atoms: C_2  and  S_3 
REMARK    2  A    between atoms: C_2  and  C_20 
REMARK    3  A    between atoms: S_3  and  C_4 
REMARK    4  A    between atoms: C_4  and  C_5 
REMARK       I    between atoms: C_5  and  N_6 
REMARK    5  A    between atoms: N_6  and  C_7 
REMARK    6  A    between atoms: C_10  and  C_11 
REMARK       I    between atoms: C_11  and  N_12 
REMARK    7  A    between atoms: N_12  and  C_13 
ROOT
HETATM    1  C   UNL     1      24.553  44.649  50.822  1.00  0.00     0.231 C 
HETATM    2  N   UNL     1      25.843  45.112  51.033  1.00  0.00    -0.327 N 
HETATM    3  O   UNL     1      23.826  44.120  51.659  1.00  0.00    -0.272 OA
HETATM    4  H   UNL     1      26.362  45.393  50.210  1.00  0.00     0.169 HD
ENDROOT
BRANCH   1   5
HETATM    5  C   UNL     1      24.063  44.886  49.400  1.00  0.00     0.177 C 
BRANCH   5   6
HETATM    6  S   UNL     1      22.342  44.303  49.236  1.00  0.00    -0.147 SA
BRANCH   6   7
HETATM    7  C   UNL     1      21.837  45.206  47.715  1.00  0.00     0.113 C 
HETATM    8  C   UNL     1      22.760  44.868  46.547  1.00  0.00     0.029 C 
BRANCH   7   9
HETATM    9  C   UNL     1      21.747  46.682  47.966  1.00  0.00     0.118 A 
HETATM   10  N   UNL     1      22.463  47.633  47.397  1.00  0.00    -0.232 NA
HETATM   11  C   UNL     1      22.065  48.806  47.992  1.00  0.00     0.085 A 
HETATM   12  C   UNL     1      21.082  48.569  48.944  1.00  0.00     0.062 A 
HETATM   13  C   UNL     1      22.511  50.118  47.777  1.00  0.00     0.034 A 
HETATM   14  N   UNL     1      20.892  47.212  48.905  1.00  0.00    -0.342 N 
HETATM   15  C   UNL     1      20.503  49.577  49.717  1.00  0.00     0.032 A 
HETATM   16  H   UNL     1      20.271  46.682  49.499  1.00  0.00     0.167 HD
HETATM   17  C   UNL     1      20.961  50.882  49.491  1.00  0.00     0.002 A 
HETATM   18  C   UNL     1      21.947  51.150  48.539  1.00  0.00     0.002 A 
ENDBRANCH   7   9
ENDBRANCH   6   7
ENDBRANCH   5   6
ENDBRANCH   1   5
BRANCH   2  19
HETATM   19  C   UNL     1      26.509  45.249  52.268  1.00  0.00     0.034 A 
HETATM   20  C   UNL     1      26.261  46.280  53.177  1.00  0.00     0.030 A 
HETATM   21  C   UNL     1      27.025  46.404  54.343  1.00  0.00     0.019 A 
HETATM   22  C   UNL     1      28.060  45.502  54.607  1.00  0.00     0.032 A 
HETATM   23  C   UNL     1      28.278  44.437  53.726  1.00  0.00     0.019 A 
HETATM   24  C   UNL     1      27.508  44.313  52.565  1.00  0.00     0.030 A 
BRANCH  22  25
HETATM   25  C   UNL     1      28.956  45.642  55.790  1.00  0.00     0.251 C 
HETATM   26  N   UNL     1      30.062  44.816  55.810  1.00  0.00    -0.353 N 
HETATM   27  H   UNL     1      30.111  44.075  55.126  1.00  0.00     0.163 HD
HETATM   28  O   UNL     1      28.657  46.418  56.690  1.00  0.00    -0.268 OA
BRANCH  26  29
HETATM   29  C   UNL     1      30.966  44.692  56.949  1.00  0.00     0.076 C 
HETATM   30  C   UNL     1      30.358  45.204  58.253  1.00  0.00     0.032 C 
HETATM   31  C   UNL     1      31.499  43.268  57.094  1.00  0.00     0.032 C 
ENDBRANCH  26  29
ENDBRANCH  22  25
ENDBRANCH   2  19
TORSDOF 7
ENDMDL
MODEL 7
REMARK VINA RESULT:      -8.2      2.502      3.790
REMARK  7 active torsions:
REMARK  status: ('A' for Active; 'I' for Inactive)
REMARK    1  A    between atoms: C_2  and  S_3 
REMARK    2  A    between atoms: C_2  and  C_20 
REMARK    3  A    between atoms: S_3  and  C_4 
REMARK    4  A    between atoms: C_4  and  C_5 
REMARK       I    between atoms: C_5  and  N_6 
REMARK    5  A    between atoms: N_6  and  C_7 
REMARK    6  A    between atoms: C_10  and  C_11 
REMARK       I    between atoms: C_11  and  N_12 
REMARK    7  A    between atoms: N_12  and  C_13 
ROOT
HETATM    1  C   UNL     1      24.309  46.997  49.934  1.00  0.00     0.231 C 
HETATM    2  N   UNL     1      23.429  47.139  48.871  1.00  0.00    -0.327 N 
HETATM    3  O   UNL     1      24.579  47.854  50.772  1.00  0.00    -0.272 OA
HETATM    4  H   UNL     1      23.423  46.392  48.188  1.00  0.00     0.169 HD
ENDROOT
BRANCH   1   5
HETATM    5  C   UNL     1      24.932  45.610  50.007  1.00  0.00     0.177 C 
BRANCH   5   6
HETATM    6  S   UNL     1      26.548  45.704  50.848  1.00  0.00    -0.147 SA
BRANCH   6   7
HETATM    7  C   UNL     1      26.278  44.492  52.205  1.00  0.00     0.113 C 
HETATM    8  C   UNL     1      24.956  44.758  52.921  1.00  0.00     0.029 C 
BRANCH   7   9
HETATM    9  C   UNL     1      27.444  44.465  53.148  1.00  0.00     0.118 A 
HETATM   10  N   UNL     1      28.377  43.536  53.239  1.00  0.00    -0.232 NA
HETATM   11  C   UNL     1      29.186  43.920  54.280  1.00  0.00     0.085 A 
HETATM   12  C   UNL     1      28.742  45.111  54.839  1.00  0.00     0.062 A 
HETATM   13  C   UNL     1      30.318  43.290  54.817  1.00  0.00     0.034 A 
HETATM   14  N   UNL     1      27.637  45.442  54.098  1.00  0.00    -0.342 N 
HETATM   15  C   UNL     1      29.365  45.729  55.925  1.00  0.00     0.032 A 
HETATM   16  H   UNL     1      27.035  46.237  54.254  1.00  0.00     0.167 HD
HETATM   17  C   UNL     1      30.493  45.086  56.450  1.00  0.00     0.002 A 
HETATM   18  C   UNL     1      30.963  43.887  55.907  1.00  0.00     0.002 A 
ENDBRANCH   7   9
ENDBRANCH   6   7
ENDBRANCH   5   6
ENDBRANCH   1   5
BRANCH   2  19
HETATM   19  C   UNL     1      22.531  48.201  48.643  1.00  0.00     0.034 A 
HETATM   20  C   UNL     1      22.909  49.546  48.603  1.00  0.00     0.030 A 
HETATM   21  C   UNL     1      21.948  50.555  48.462  1.00  0.00     0.019 A 
HETATM   22  C   UNL     1      20.592  50.228  48.375  1.00  0.00     0.032 A 
HETATM   23  C   UNL     1      20.213  48.881  48.363  1.00  0.00     0.019 A 
HETATM   24  C   UNL     1      21.177  47.877  48.497  1.00  0.00     0.030 A 
BRANCH  22  25
HETATM   25  C   UNL     1      19.525  51.267  48.311  1.00  0.00     0.251 C 
HETATM   26  N   UNL     1      18.261  50.817  47.987  1.00  0.00    -0.353 N 
HETATM   27  H   UNL     1      18.169  49.865  47.662  1.00  0.00     0.163 HD
HETATM   28  O   UNL     1      19.814  52.445  48.490  1.00  0.00    -0.268 OA
BRANCH  26  29
HETATM   29  C   UNL     1      17.126  51.694  47.720  1.00  0.00     0.076 C 
HETATM   30  C   UNL     1      16.996  52.072  46.247  1.00  0.00     0.032 C 
HETATM   31  C   UNL     1      15.825  51.117  48.273  1.00  0.00     0.032 C 
ENDBRANCH  26  29
ENDBRANCH  22  25
ENDBRANCH   2  19
TORSDOF 7
ENDMDL
MODEL 8
REMARK VINA RESULT:      -8.0      4.414      7.121
REMARK  7 active torsions:
REMARK  status: ('A' for Active; 'I' for Inactive)
REMARK    1  A    between atoms: C_2  and  S_3 
REMARK    2  A    between atoms: C_2  and  C_20 
REMARK    3  A    between atoms: S_3  and  C_4 
REMARK    4  A    between atoms: C_4  and  C_5 
REMARK       I    between atoms: C_5  and  N_6 
REMARK    5  A    between atoms: N_6  and  C_7 
REMARK    6  A    between atoms: C_10  and  C_11 
REMARK       I    between atoms: C_11  and  N_12 
REMARK    7  A    between atoms: N_12  and  C_13 
ROOT
HETATM    1  C   UNL     1      22.331  48.460  49.033  1.00  0.00     0.231 C 
HETATM    2  N   UNL     1      21.876  49.464  49.874  1.00  0.00    -0.327 N 
HETATM    3  O   UNL     1      21.696  47.932  48.123  1.00  0.00    -0.272 OA
HETATM    4  H   UNL     1      22.468  49.694  50.664  1.00  0.00     0.169 HD
ENDROOT
BRANCH   1   5
HETATM    5  C   UNL     1      23.771  48.056  49.317  1.00  0.00     0.177 C 
BRANCH   5   6
HETATM    6  S   UNL     1      24.909  49.296  48.613  1.00  0.00    -0.147 SA
BRANCH   6   7
HETATM    7  C   UNL     1      26.419  48.953  49.607  1.00  0.00     0.113 C 
HETATM    8  C   UNL     1      27.679  49.352  48.844  1.00  0.00     0.029 C 
BRANCH   7   9
HETATM    9  C   UNL     1      26.454  47.525  50.063  1.00  0.00     0.118 A 
HETATM   10  N   UNL     1      26.837  46.473  49.365  1.00  0.00    -0.232 NA
HETATM   11  C   UNL     1      26.634  45.388  50.183  1.00  0.00     0.085 A 
HETATM   12  C   UNL     1      26.118  45.783  51.410  1.00  0.00     0.062 A 
HETATM   13  C   UNL     1      26.857  44.025  49.938  1.00  0.00     0.034 A 
HETATM   14  N   UNL     1      26.018  47.146  51.313  1.00  0.00    -0.342 N 
HETATM   15  C   UNL     1      25.799  44.887  52.433  1.00  0.00     0.032 A 
HETATM   16  H   UNL     1      25.640  47.766  52.016  1.00  0.00     0.167 HD
HETATM   17  C   UNL     1      26.026  43.530  52.172  1.00  0.00     0.002 A 
HETATM   18  C   UNL     1      26.545  43.104  50.946  1.00  0.00     0.002 A 
ENDBRANCH   7   9
ENDBRANCH   6   7
ENDBRANCH   5   6
ENDBRANCH   1   5
BRANCH   2  19
HETATM   19  C   UNL     1      20.688  50.211  49.746  1.00  0.00     0.034 A 
HETATM   20  C   UNL     1      19.492  49.892  50.394  1.00  0.00     0.030 A 
HETATM   21  C   UNL     1      18.327  50.627  50.148  1.00  0.00     0.019 A 
HETATM   22  C   UNL     1      18.341  51.686  49.235  1.00  0.00     0.032 A 
HETATM   23  C   UNL     1      19.548  52.043  48.623  1.00  0.00     0.019 A 
HETATM   24  C   UNL     1      20.711  51.309  48.876  1.00  0.00     0.030 A 
BRANCH  22  25
HETATM   25  C   UNL     1      17.109  52.443  48.875  1.00  0.00     0.251 C 
HETATM   26  N   UNL     1      16.481  53.103  49.913  1.00  0.00    -0.353 N 
HETATM   27  H   UNL     1      16.791  52.906  50.853  1.00  0.00     0.163 HD
HETATM   28  O   UNL     1      16.689  52.407  47.725  1.00  0.00    -0.268 OA
BRANCH  26  29
HETATM   29  C   UNL     1      15.185  53.762  49.794  1.00  0.00     0.076 C 
HETATM   30  C   UNL     1      14.100  53.105  50.644  1.00  0.00     0.032 C 
HETATM   31  C   UNL     1      15.287  55.261  50.067  1.00  0.00     0.032 C 
ENDBRANCH  26  29
ENDBRANCH  22  25
ENDBRANCH   2  19
TORSDOF 7
ENDMDL
MODEL 9
REMARK VINA RESULT:      -8.0     16.686     19.478
REMARK  7 active torsions:
REMARK  status: ('A' for Active; 'I' for Inactive)
REMARK    1  A    between atoms: C_2  and  S_3 
REMARK    2  A    between atoms: C_2  and  C_20 
REMARK    3  A    between atoms: S_3  and  C_4 
REMARK    4  A    between atoms: C_4  and  C_5 
REMARK       I    between atoms: C_5  and  N_6 
REMARK    5  A    between atoms: N_6  and  C_7 
REMARK    6  A    between atoms: C_10  and  C_11 
REMARK       I    between atoms: C_11  and  N_12 
REMARK    7  A    between atoms: N_12  and  C_13 
ROOT
HETATM    1  C   UNL     1      36.647  46.174  64.202  1.00  0.00     0.231 C 
HETATM    2  N   UNL     1      37.647  45.628  63.410  1.00  0.00    -0.327 N 
HETATM    3  O   UNL     1      35.808  45.549  64.845  1.00  0.00    -0.272 OA
HETATM    4  H   UNL     1      38.169  46.275  62.832  1.00  0.00     0.169 HD
ENDROOT
BRANCH   1   5
HETATM    5  C   UNL     1      36.685  47.696  64.239  1.00  0.00     0.177 C 
BRANCH   5   6
HETATM    6  S   UNL     1      37.092  48.261  65.925  1.00  0.00    -0.147 SA
BRANCH   6   7
HETATM    7  C   UNL     1      38.911  48.487  65.762  1.00  0.00     0.113 C 
HETATM    8  C   UNL     1      39.246  49.386  64.574  1.00  0.00     0.029 C 
BRANCH   7   9
HETATM    9  C   UNL     1      39.617  47.166  65.696  1.00  0.00     0.118 A 
HETATM   10  N   UNL     1      39.303  46.059  66.342  1.00  0.00    -0.232 NA
HETATM   11  C   UNL     1      40.271  45.144  66.009  1.00  0.00     0.085 A 
HETATM   12  C   UNL     1      41.199  45.700  65.138  1.00  0.00     0.062 A 
HETATM   13  C   UNL     1      40.431  43.815  66.425  1.00  0.00     0.034 A 
HETATM   14  N   UNL     1      40.759  46.985  64.949  1.00  0.00    -0.342 N 
HETATM   15  C   UNL     1      42.304  45.003  64.646  1.00  0.00     0.032 A 
HETATM   16  H   UNL     1      41.219  47.695  64.399  1.00  0.00     0.167 HD
HETATM   17  C   UNL     1      42.450  43.677  65.072  1.00  0.00     0.002 A 
HETATM   18  C   UNL     1      41.531  43.091  65.946  1.00  0.00     0.002 A 
ENDBRANCH   7   9
ENDBRANCH   6   7
ENDBRANCH   5   6
ENDBRANCH   1   5
BRANCH   2  19
HETATM   19  C   UNL     1      38.028  44.274  63.332  1.00  0.00     0.034 A 
HETATM   20  C   UNL     1      37.283  43.222  63.871  1.00  0.00     0.030 A 
HETATM   21  C   UNL     1      37.768  41.909  63.835  1.00  0.00     0.019 A 
HETATM   22  C   UNL     1      39.017  41.636  63.270  1.00  0.00     0.032 A 
HETATM   23  C   UNL     1      39.744  42.677  62.682  1.00  0.00     0.019 A 
HETATM   24  C   UNL     1      39.252  43.986  62.715  1.00  0.00     0.030 A 
BRANCH  22  25
HETATM   25  C   UNL     1      39.615  40.270  63.284  1.00  0.00     0.251 C 
HETATM   26  N   UNL     1      40.497  40.008  64.314  1.00  0.00    -0.353 N 
HETATM   27  H   UNL     1      40.801  40.784  64.884  1.00  0.00     0.163 HD
HETATM   28  O   UNL     1      39.352  39.483  62.384  1.00  0.00    -0.268 OA
BRANCH  26  29
HETATM   29  C   UNL     1      41.301  38.794  64.410  1.00  0.00     0.076 C 
HETATM   30  C   UNL     1      42.707  39.050  64.948  1.00  0.00     0.032 C 
HETATM   31  C   UNL     1      40.583  37.702  65.200  1.00  0.00     0.032 C 
ENDBRANCH  26  29
ENDBRANCH  22  25
ENDBRANCH   2  19
TORSDOF 7
ENDMDL
MODEL 10
REMARK VINA RESULT:      -8.0      2.244     10.196
REMARK  7 active torsions:
REMARK  status: ('A' for Active; 'I' for Inactive)
REMARK    1  A    between atoms: C_2  and  S_3 
REMARK    2  A    between atoms: C_2  and  C_20 
REMARK    3  A    between atoms: S_3  and  C_4 
REMARK    4  A    between atoms: C_4  and  C_5 
REMARK       I    between atoms: C_5  and  N_6 
REMARK    5  A    between atoms: N_6  and  C_7 
REMARK    6  A    between atoms: C_10  and  C_11 
REMARK       I    between atoms: C_11  and  N_12 
REMARK    7  A    between atoms: N_12  and  C_13 
ROOT
HETATM    1  C   UNL     1      25.795  43.738  50.580  1.00  0.00     0.231 C 
HETATM    2  N   UNL     1      27.079  44.167  50.883  1.00  0.00    -0.327 N 
HETATM    3  O   UNL     1      25.080  43.031  51.286  1.00  0.00    -0.272 OA
HETATM    4  H   UNL     1      27.589  44.625  50.137  1.00  0.00     0.169 HD
ENDROOT
BRANCH   1   5
HETATM    5  C   UNL     1      25.295  44.264  49.241  1.00  0.00     0.177 C 
BRANCH   5   6
HETATM    6  S   UNL     1      23.761  45.221  49.489  1.00  0.00    -0.147 SA
BRANCH   6   7
HETATM    7  C   UNL     1      24.466  46.897  49.767  1.00  0.00     0.113 C 
HETATM    8  C   UNL     1      25.008  47.034  51.187  1.00  0.00     0.029 C 
BRANCH   7   9
HETATM    9  C   UNL     1      23.470  47.966  49.428  1.00  0.00     0.118 A 
HETATM   10  N   UNL     1      23.705  49.255  49.268  1.00  0.00    -0.232 NA
HETATM   11  C   UNL     1      22.481  49.831  49.032  1.00  0.00     0.085 A 
HETATM   12  C   UNL     1      21.473  48.875  49.046  1.00  0.00     0.062 A 
HETATM   13  C   UNL     1      22.149  51.175  48.808  1.00  0.00     0.034 A 
HETATM   14  N   UNL     1      22.127  47.696  49.293  1.00  0.00    -0.342 N 
HETATM   15  C   UNL     1      20.124  49.179  48.850  1.00  0.00     0.032 A 
HETATM   16  H   UNL     1      21.695  46.791  49.410  1.00  0.00     0.167 HD
HETATM   17  C   UNL     1      19.810  50.526  48.630  1.00  0.00     0.002 A 
HETATM   18  C   UNL     1      20.804  51.509  48.609  1.00  0.00     0.002 A 
ENDBRANCH   7   9
ENDBRANCH   6   7
ENDBRANCH   5   6
ENDBRANCH   1   5
BRANCH   2  19
HETATM   19  C   UNL     1      27.748  44.049  52.117  1.00  0.00     0.034 A 
HETATM   20  C   UNL     1      27.382  44.744  53.272  1.00  0.00     0.030 A 
HETATM   21  C   UNL     1      28.148  44.646  54.440  1.00  0.00     0.019 A 
HETATM   22  C   UNL     1      29.304  43.860  54.460  1.00  0.00     0.032 A 
HETATM   23  C   UNL     1      29.646  43.120  53.322  1.00  0.00     0.019 A 
HETATM   24  C   UNL     1      28.874  43.216  52.160  1.00  0.00     0.030 A 
BRANCH  22  25
HETATM   25  C   UNL     1      30.199  43.791  55.649  1.00  0.00     0.251 C 
HETATM   26  N   UNL     1      29.858  44.606  56.710  1.00  0.00    -0.353 N 
HETATM   27  H   UNL     1      29.138  45.299  56.560  1.00  0.00     0.163 HD
HETATM   28  O   UNL     1      31.197  43.080  55.618  1.00  0.00    -0.268 OA
BRANCH  26  29
HETATM   29  C   UNL     1      30.691  44.798  57.892  1.00  0.00     0.076 C 
HETATM   30  C   UNL     1      32.082  44.186  57.748  1.00  0.00     0.032 C 
HETATM   31  C   UNL     1      30.759  46.267  58.302  1.00  0.00     0.032 C 
ENDBRANCH  26  29
ENDBRANCH  22  25
ENDBRANCH   2  19
TORSDOF 7
ENDMDL
