MODEL 1
REMARK VINA RESULT:      -9.0      0.000      0.000
REMARK  5 active torsions:
REMARK  status: ('A' for Active; 'I' for Inactive)
REMARK    1  A    between atoms: C_5  and  S_6 
REMARK    2  A    between atoms: S_6  and  C_7 
REMARK    3  A    between atoms: C_7  and  C_8 
REMARK       I    between atoms: C_8  and  N_9 
REMARK    4  A    between atoms: N_9  and  C_10 
REMARK    5  A    between atoms: C_12  and  C_13 
ROOT
HETATM    1  C   UNL     1      25.856  46.648  52.334  1.00  0.00     0.231 C 
HETATM    2  N   UNL     1      26.039  46.659  50.964  1.00  0.00    -0.327 N 
HETATM    3  O   UNL     1      25.458  47.594  53.013  1.00  0.00    -0.272 OA
HETATM    4  H   UNL     1      26.438  45.810  50.574  1.00  0.00     0.169 HD
ENDROOT
BRANCH   2   5
HETATM    5  C   UNL     1      25.840  47.731  50.070  1.00  0.00     0.035 A 
HETATM    6  C   UNL     1      24.582  48.231  49.718  1.00  0.00     0.042 A 
HETATM    7  C   UNL     1      24.446  49.310  48.828  1.00  0.00    -0.021 A 
HETATM    8  C   UNL     1      25.603  49.883  48.287  1.00  0.00     0.012 A 
HETATM    9  C   UNL     1      26.864  49.388  48.623  1.00  0.00     0.003 A 
HETATM   10  C   UNL     1      26.980  48.317  49.511  1.00  0.00     0.029 A 
BRANCH   7  11
HETATM   11  C   UNL     1      23.120  49.817  48.497  1.00  0.00     0.010 A 
HETATM   12  C   UNL     1      22.496  51.051  48.811  1.00  0.00     0.152 A 
HETATM   13  N   UNL     1      21.253  51.143  48.331  1.00  0.00    -0.187 NA
HETATM   14  N   UNL     1      21.069  49.967  47.714  1.00  0.00    -0.289 N 
HETATM   15  H   UNL     1      20.175  49.796  47.265  1.00  0.00     0.188 HD
HETATM   16  C   UNL     1      22.152  49.139  47.784  1.00  0.00     0.123 A 
ENDBRANCH   7  11
ENDBRANCH   2   5
BRANCH   1  17
HETATM   17  C   UNL     1      26.100  45.301  53.003  1.00  0.00     0.182 C 
BRANCH  17  18
HETATM   18  S   UNL     1      27.328  44.272  52.129  1.00  0.00    -0.121 SA
BRANCH  18  19
HETATM   19  C   UNL     1      28.538  44.128  53.431  1.00  0.00     0.001 A 
HETATM   20  C   UNL     1      29.537  43.155  53.350  1.00  0.00     0.019 A 
HETATM   21  C   UNL     1      30.478  43.024  54.375  1.00  0.00     0.008 A 
HETATM   22  C   UNL     1      30.442  43.874  55.486  1.00  0.00    -0.062 A 
HETATM   23  C   UNL     1      31.428  43.724  56.607  1.00  0.00     0.048 C 
HETATM   24  C   UNL     1      29.446  44.855  55.558  1.00  0.00     0.008 A 
HETATM   25  C   UNL     1      28.505  44.986  54.534  1.00  0.00     0.019 A 
ENDBRANCH  18  19
ENDBRANCH  17  18
ENDBRANCH   1  17
TORSDOF 5
ENDMDL
MODEL 2
REMARK VINA RESULT:      -8.4      3.340      9.019
REMARK  5 active torsions:
REMARK  status: ('A' for Active; 'I' for Inactive)
REMARK    1  A    between atoms: C_5  and  S_6 
REMARK    2  A    between atoms: S_6  and  C_7 
REMARK    3  A    between atoms: C_7  and  C_8 
REMARK       I    between atoms: C_8  and  N_9 
REMARK    4  A    between atoms: N_9  and  C_10 
REMARK    5  A    between atoms: C_12  and  C_13 
ROOT
HETATM    1  C   UNL     1      25.686  43.988  52.602  1.00  0.00     0.231 C 
HETATM    2  N   UNL     1      26.999  44.411  52.707  1.00  0.00    -0.327 N 
HETATM    3  O   UNL     1      24.813  44.138  53.456  1.00  0.00    -0.272 OA
HETATM    4  H   UNL     1      27.602  44.144  51.934  1.00  0.00     0.169 HD
ENDROOT
BRANCH   2   5
HETATM    5  C   UNL     1      27.615  45.067  53.793  1.00  0.00     0.035 A 
HETATM    6  C   UNL     1      28.630  44.502  54.572  1.00  0.00     0.042 A 
HETATM    7  C   UNL     1      29.214  45.209  55.636  1.00  0.00    -0.021 A 
HETATM    8  C   UNL     1      28.757  46.503  55.914  1.00  0.00     0.012 A 
HETATM    9  C   UNL     1      27.739  47.074  55.149  1.00  0.00     0.003 A 
HETATM   10  C   UNL     1      27.171  46.359  54.093  1.00  0.00     0.029 A 
BRANCH   7  11
HETATM   11  C   UNL     1      30.281  44.595  56.417  1.00  0.00     0.010 A 
HETATM   12  C   UNL     1      30.818  44.943  57.683  1.00  0.00     0.152 A 
HETATM   13  N   UNL     1      31.808  44.133  58.068  1.00  0.00    -0.187 NA
HETATM   14  N   UNL     1      31.920  43.269  57.050  1.00  0.00    -0.289 N 
HETATM   15  H   UNL     1      32.627  42.545  57.111  1.00  0.00     0.188 HD
HETATM   16  C   UNL     1      31.032  43.501  56.038  1.00  0.00     0.123 A 
ENDBRANCH   7  11
ENDBRANCH   2   5
BRANCH   1  17
HETATM   17  C   UNL     1      25.319  43.364  51.262  1.00  0.00     0.182 C 
BRANCH  17  18
HETATM   18  S   UNL     1      26.307  44.009  49.869  1.00  0.00    -0.121 SA
BRANCH  18  19
HETATM   19  C   UNL     1      25.496  45.584  49.667  1.00  0.00     0.001 A 
HETATM   20  C   UNL     1      26.225  46.766  49.805  1.00  0.00     0.019 A 
HETATM   21  C   UNL     1      25.593  48.005  49.666  1.00  0.00     0.008 A 
HETATM   22  C   UNL     1      24.227  48.077  49.372  1.00  0.00    -0.062 A 
HETATM   23  C   UNL     1      23.531  49.400  49.250  1.00  0.00     0.048 C 
HETATM   24  C   UNL     1      23.501  46.890  49.223  1.00  0.00     0.008 A 
HETATM   25  C   UNL     1      24.132  45.651  49.362  1.00  0.00     0.019 A 
ENDBRANCH  18  19
ENDBRANCH  17  18
ENDBRANCH   1  17
TORSDOF 5
ENDMDL
MODEL 3
REMARK VINA RESULT:      -8.2      2.042      2.582
REMARK  5 active torsions:
REMARK  status: ('A' for Active; 'I' for Inactive)
REMARK    1  A    between atoms: C_5  and  S_6 
REMARK    2  A    between atoms: S_6  and  C_7 
REMARK    3  A    between atoms: C_7  and  C_8 
REMARK       I    between atoms: C_8  and  N_9 
REMARK    4  A    between atoms: N_9  and  C_10 
REMARK    5  A    between atoms: C_12  and  C_13 
ROOT
HETATM    1  C   UNL     1      26.778  44.616  50.912  1.00  0.00     0.231 C 
HETATM    2  N   UNL     1      25.525  45.125  51.201  1.00  0.00    -0.327 N 
HETATM    3  O   UNL     1      27.289  44.560  49.795  1.00  0.00    -0.272 OA
HETATM    4  H   UNL     1      25.234  45.031  52.170  1.00  0.00     0.169 HD
ENDROOT
BRANCH   2   5
HETATM    5  C   UNL     1      24.575  45.654  50.304  1.00  0.00     0.035 A 
HETATM    6  C   UNL     1      24.406  47.022  50.064  1.00  0.00     0.042 A 
HETATM    7  C   UNL     1      23.447  47.490  49.149  1.00  0.00    -0.021 A 
HETATM    8  C   UNL     1      22.649  46.557  48.477  1.00  0.00     0.012 A 
HETATM    9  C   UNL     1      22.802  45.190  48.715  1.00  0.00     0.003 A 
HETATM   10  C   UNL     1      23.761  44.742  49.625  1.00  0.00     0.029 A 
BRANCH   7  11
HETATM   11  C   UNL     1      23.309  48.921  48.910  1.00  0.00     0.010 A 
HETATM   12  C   UNL     1      22.409  49.868  49.460  1.00  0.00     0.152 A 
HETATM   13  N   UNL     1      22.592  51.101  48.979  1.00  0.00    -0.187 NA
HETATM   14  N   UNL     1      23.603  50.951  48.112  1.00  0.00    -0.289 N 
HETATM   15  H   UNL     1      23.925  51.769  47.606  1.00  0.00     0.188 HD
HETATM   16  C   UNL     1      24.068  49.670  48.033  1.00  0.00     0.123 A 
ENDBRANCH   7  11
ENDBRANCH   2   5
BRANCH   1  17
HETATM   17  C   UNL     1      27.588  44.177  52.125  1.00  0.00     0.182 C 
BRANCH  17  18
HETATM   18  S   UNL     1      27.232  45.157  53.624  1.00  0.00    -0.121 SA
BRANCH  18  19
HETATM   19  C   UNL     1      28.639  44.671  54.607  1.00  0.00     0.001 A 
HETATM   20  C   UNL     1      29.294  43.467  54.339  1.00  0.00     0.019 A 
HETATM   21  C   UNL     1      30.386  43.071  55.116  1.00  0.00     0.008 A 
HETATM   22  C   UNL     1      30.847  43.881  56.160  1.00  0.00    -0.062 A 
HETATM   23  C   UNL     1      31.999  43.452  57.020  1.00  0.00     0.048 C 
HETATM   24  C   UNL     1      30.195  45.092  56.418  1.00  0.00     0.008 A 
HETATM   25  C   UNL     1      29.103  45.489  55.642  1.00  0.00     0.019 A 
ENDBRANCH  18  19
ENDBRANCH  17  18
ENDBRANCH   1  17
TORSDOF 5
ENDMDL
MODEL 4
REMARK VINA RESULT:      -8.1      5.202      8.619
REMARK  5 active torsions:
REMARK  status: ('A' for Active; 'I' for Inactive)
REMARK    1  A    between atoms: C_5  and  S_6 
REMARK    2  A    between atoms: S_6  and  C_7 
REMARK    3  A    between atoms: C_7  and  C_8 
REMARK       I    between atoms: C_8  and  N_9 
REMARK    4  A    between atoms: N_9  and  C_10 
REMARK    5  A    between atoms: C_12  and  C_13 
ROOT
HETATM    1  C   UNL     1      25.664  43.917  52.538  1.00  0.00     0.231 C 
HETATM    2  N   UNL     1      26.987  44.297  52.674  1.00  0.00    -0.327 N 
HETATM    3  O   UNL     1      24.769  44.130  53.356  1.00  0.00    -0.272 OA
HETATM    4  H   UNL     1      27.605  43.981  51.932  1.00  0.00     0.169 HD
ENDROOT
BRANCH   2   5
HETATM    5  C   UNL     1      27.591  44.969  53.756  1.00  0.00     0.035 A 
HETATM    6  C   UNL     1      28.615  44.427  54.539  1.00  0.00     0.042 A 
HETATM    7  C   UNL     1      29.186  45.150  55.600  1.00  0.00    -0.021 A 
HETATM    8  C   UNL     1      28.705  46.437  55.870  1.00  0.00     0.012 A 
HETATM    9  C   UNL     1      27.677  46.986  55.102  1.00  0.00     0.003 A 
HETATM   10  C   UNL     1      27.123  46.255  54.050  1.00  0.00     0.029 A 
BRANCH   7  11
HETATM   11  C   UNL     1      30.264  44.560  56.384  1.00  0.00     0.010 A 
HETATM   12  C   UNL     1      30.787  44.919  57.653  1.00  0.00     0.152 A 
HETATM   13  N   UNL     1      31.794  44.131  58.041  1.00  0.00    -0.187 NA
HETATM   14  N   UNL     1      31.929  43.271  57.022  1.00  0.00    -0.289 N 
HETATM   15  H   UNL     1      32.652  42.562  57.086  1.00  0.00     0.188 HD
HETATM   16  C   UNL     1      31.040  43.483  56.007  1.00  0.00     0.123 A 
ENDBRANCH   7  11
ENDBRANCH   2   5
BRANCH   1  17
HETATM   17  C   UNL     1      25.318  43.258  51.209  1.00  0.00     0.182 C 
BRANCH  17  18
HETATM   18  S   UNL     1      26.490  43.672  49.871  1.00  0.00    -0.121 SA
BRANCH  18  19
HETATM   19  C   UNL     1      27.239  42.067  49.661  1.00  0.00     0.001 A 
HETATM   20  C   UNL     1      27.798  41.409  50.758  1.00  0.00     0.019 A 
HETATM   21  C   UNL     1      28.403  40.159  50.598  1.00  0.00     0.008 A 
HETATM   22  C   UNL     1      28.442  39.545  49.341  1.00  0.00    -0.062 A 
HETATM   23  C   UNL     1      29.115  38.217  49.151  1.00  0.00     0.048 C 
HETATM   24  C   UNL     1      27.871  40.202  48.246  1.00  0.00     0.008 A 
HETATM   25  C   UNL     1      27.267  41.451  48.405  1.00  0.00     0.019 A 
ENDBRANCH  18  19
ENDBRANCH  17  18
ENDBRANCH   1  17
TORSDOF 5
ENDMDL
MODEL 5
REMARK VINA RESULT:      -8.1      1.532      1.966
REMARK  5 active torsions:
REMARK  status: ('A' for Active; 'I' for Inactive)
REMARK    1  A    between atoms: C_5  and  S_6 
REMARK    2  A    between atoms: S_6  and  C_7 
REMARK    3  A    between atoms: C_7  and  C_8 
REMARK       I    between atoms: C_8  and  N_9 
REMARK    4  A    between atoms: N_9  and  C_10 
REMARK    5  A    between atoms: C_12  and  C_13 
ROOT
HETATM    1  C   UNL     1      25.528  46.799  51.085  1.00  0.00     0.231 C 
HETATM    2  N   UNL     1      24.757  46.997  49.954  1.00  0.00    -0.327 N 
HETATM    3  O   UNL     1      25.934  47.682  51.840  1.00  0.00    -0.272 OA
HETATM    4  H   UNL     1      24.567  46.161  49.409  1.00  0.00     0.169 HD
ENDROOT
BRANCH   2   5
HETATM    5  C   UNL     1      24.298  48.218  49.419  1.00  0.00     0.035 A 
HETATM    6  C   UNL     1      22.979  48.670  49.522  1.00  0.00     0.042 A 
HETATM    7  C   UNL     1      22.582  49.902  48.976  1.00  0.00    -0.021 A 
HETATM    8  C   UNL     1      23.539  50.680  48.312  1.00  0.00     0.012 A 
HETATM    9  C   UNL     1      24.857  50.237  48.194  1.00  0.00     0.003 A 
HETATM   10  C   UNL     1      25.234  49.011  48.745  1.00  0.00     0.029 A 
BRANCH   7  11
HETATM   11  C   UNL     1      21.203  50.350  49.118  1.00  0.00     0.010 A 
HETATM   12  C   UNL     1      20.111  49.774  49.816  1.00  0.00     0.152 A 
HETATM   13  N   UNL     1      18.986  50.487  49.702  1.00  0.00    -0.187 NA
HETATM   14  N   UNL     1      19.347  51.517  48.925  1.00  0.00    -0.289 N 
HETATM   15  H   UNL     1      18.643  52.208  48.688  1.00  0.00     0.188 HD
HETATM   16  C   UNL     1      20.659  51.483  48.548  1.00  0.00     0.123 A 
ENDBRANCH   7  11
ENDBRANCH   2   5
BRANCH   1  17
HETATM   17  C   UNL     1      25.801  45.341  51.429  1.00  0.00     0.182 C 
BRANCH  17  18
HETATM   18  S   UNL     1      25.302  44.894  53.128  1.00  0.00    -0.121 SA
BRANCH  18  19
HETATM   19  C   UNL     1      26.906  44.462  53.777  1.00  0.00     0.001 A 
HETATM   20  C   UNL     1      27.424  43.183  53.561  1.00  0.00     0.019 A 
HETATM   21  C   UNL     1      28.673  42.831  54.082  1.00  0.00     0.008 A 
HETATM   22  C   UNL     1      29.425  43.758  54.812  1.00  0.00    -0.062 A 
HETATM   23  C   UNL     1      30.753  43.383  55.401  1.00  0.00     0.048 C 
HETATM   24  C   UNL     1      28.907  45.042  55.016  1.00  0.00     0.008 A 
HETATM   25  C   UNL     1      27.660  45.394  54.496  1.00  0.00     0.019 A 
ENDBRANCH  18  19
ENDBRANCH  17  18
ENDBRANCH   1  17
TORSDOF 5
ENDMDL
MODEL 6
REMARK VINA RESULT:      -7.9      3.083      9.634
REMARK  5 active torsions:
REMARK  status: ('A' for Active; 'I' for Inactive)
REMARK    1  A    between atoms: C_5  and  S_6 
REMARK    2  A    between atoms: S_6  and  C_7 
REMARK    3  A    between atoms: C_7  and  C_8 
REMARK       I    between atoms: C_8  and  N_9 
REMARK    4  A    between atoms: N_9  and  C_10 
REMARK    5  A    between atoms: C_12  and  C_13 
ROOT
HETATM    1  C   UNL     1      24.963  47.391  50.321  1.00  0.00     0.231 C 
HETATM    2  N   UNL     1      24.799  46.646  51.475  1.00  0.00    -0.327 N 
HETATM    3  O   UNL     1      26.035  47.801  49.878  1.00  0.00    -0.272 OA
HETATM    4  H   UNL     1      23.835  46.449  51.729  1.00  0.00     0.169 HD
ENDROOT
BRANCH   2   5
HETATM    5  C   UNL     1      25.790  46.223  52.384  1.00  0.00     0.035 A 
HETATM    6  C   UNL     1      26.493  45.020  52.269  1.00  0.00     0.042 A 
HETATM    7  C   UNL     1      27.479  44.656  53.202  1.00  0.00    -0.021 A 
HETATM    8  C   UNL     1      27.748  45.525  54.267  1.00  0.00     0.012 A 
HETATM    9  C   UNL     1      27.048  46.725  54.397  1.00  0.00     0.003 A 
HETATM   10  C   UNL     1      26.073  47.072  53.460  1.00  0.00     0.029 A 
BRANCH   7  11
HETATM   11  C   UNL     1      28.204  43.402  53.042  1.00  0.00     0.010 A 
HETATM   12  C   UNL     1      27.772  42.059  53.185  1.00  0.00     0.152 A 
HETATM   13  N   UNL     1      28.746  41.172  52.961  1.00  0.00    -0.187 NA
HETATM   14  N   UNL     1      29.809  41.939  52.681  1.00  0.00    -0.289 N 
HETATM   15  H   UNL     1      30.690  41.481  52.476  1.00  0.00     0.188 HD
HETATM   16  C   UNL     1      29.540  43.278  52.716  1.00  0.00     0.123 A 
ENDBRANCH   7  11
ENDBRANCH   2   5
BRANCH   1  17
HETATM   17  C   UNL     1      23.688  47.626  49.523  1.00  0.00     0.182 C 
BRANCH  17  18
HETATM   18  S   UNL     1      23.741  49.142  48.505  1.00  0.00    -0.121 SA
BRANCH  18  19
HETATM   19  C   UNL     1      22.086  49.732  48.811  1.00  0.00     0.001 A 
HETATM   20  C   UNL     1      21.781  51.081  48.619  1.00  0.00     0.019 A 
HETATM   21  C   UNL     1      20.491  51.555  48.874  1.00  0.00     0.008 A 
HETATM   22  C   UNL     1      19.487  50.684  49.309  1.00  0.00    -0.062 A 
HETATM   23  C   UNL     1      18.106  51.186  49.614  1.00  0.00     0.048 C 
HETATM   24  C   UNL     1      19.794  49.331  49.489  1.00  0.00     0.008 A 
HETATM   25  C   UNL     1      21.082  48.856  49.235  1.00  0.00     0.019 A 
ENDBRANCH  18  19
ENDBRANCH  17  18
ENDBRANCH   1  17
TORSDOF 5
ENDMDL
MODEL 7
REMARK VINA RESULT:      -7.7      3.557      7.492
REMARK  5 active torsions:
REMARK  status: ('A' for Active; 'I' for Inactive)
REMARK    1  A    between atoms: C_5  and  S_6 
REMARK    2  A    between atoms: S_6  and  C_7 
REMARK    3  A    between atoms: C_7  and  C_8 
REMARK       I    between atoms: C_8  and  N_9 
REMARK    4  A    between atoms: N_9  and  C_10 
REMARK    5  A    between atoms: C_12  and  C_13 
ROOT
HETATM    1  C   UNL     1      25.323  46.789  51.422  1.00  0.00     0.231 C 
HETATM    2  N   UNL     1      25.388  46.159  52.652  1.00  0.00    -0.327 N 
HETATM    3  O   UNL     1      26.063  47.694  51.040  1.00  0.00    -0.272 OA
HETATM    4  H   UNL     1      24.656  45.477  52.827  1.00  0.00     0.169 HD
ENDROOT
BRANCH   2   5
HETATM    5  C   UNL     1      26.275  46.422  53.716  1.00  0.00     0.035 A 
HETATM    6  C   UNL     1      27.343  45.590  54.067  1.00  0.00     0.042 A 
HETATM    7  C   UNL     1      28.200  45.910  55.133  1.00  0.00    -0.021 A 
HETATM    8  C   UNL     1      27.964  47.087  55.854  1.00  0.00     0.012 A 
HETATM    9  C   UNL     1      26.896  47.922  55.519  1.00  0.00     0.003 A 
HETATM   10  C   UNL     1      26.056  47.589  54.455  1.00  0.00     0.029 A 
BRANCH   7  11
HETATM   11  C   UNL     1      29.314  45.029  55.460  1.00  0.00     0.010 A 
HETATM   12  C   UNL     1      29.704  43.786  54.900  1.00  0.00     0.152 A 
HETATM   13  N   UNL     1      30.792  43.271  55.482  1.00  0.00    -0.187 NA
HETATM   14  N   UNL     1      31.100  44.176  56.422  1.00  0.00    -0.289 N 
HETATM   15  H   UNL     1      31.906  43.998  57.012  1.00  0.00     0.188 HD
HETATM   16  C   UNL     1      30.249  45.244  56.452  1.00  0.00     0.123 A 
ENDBRANCH   7  11
ENDBRANCH   2   5
BRANCH   1  17
HETATM   17  C   UNL     1      24.284  46.220  50.464  1.00  0.00     0.182 C 
BRANCH  17  18
HETATM   18  S   UNL     1      25.012  45.229  49.114  1.00  0.00    -0.121 SA
BRANCH  18  19
HETATM   19  C   UNL     1      25.949  44.075  50.099  1.00  0.00     0.001 A 
HETATM   20  C   UNL     1      25.348  42.902  50.558  1.00  0.00     0.019 A 
HETATM   21  C   UNL     1      26.070  42.000  51.345  1.00  0.00     0.008 A 
HETATM   22  C   UNL     1      27.407  42.254  51.670  1.00  0.00    -0.062 A 
HETATM   23  C   UNL     1      28.184  41.309  52.539  1.00  0.00     0.048 C 
HETATM   24  C   UNL     1      28.010  43.426  51.199  1.00  0.00     0.008 A 
HETATM   25  C   UNL     1      27.288  44.327  50.412  1.00  0.00     0.019 A 
ENDBRANCH  18  19
ENDBRANCH  17  18
ENDBRANCH   1  17
TORSDOF 5
ENDMDL
MODEL 8
REMARK VINA RESULT:      -7.7      2.919      9.484
REMARK  5 active torsions:
REMARK  status: ('A' for Active; 'I' for Inactive)
REMARK    1  A    between atoms: C_5  and  S_6 
REMARK    2  A    between atoms: S_6  and  C_7 
REMARK    3  A    between atoms: C_7  and  C_8 
REMARK       I    between atoms: C_8  and  N_9 
REMARK    4  A    between atoms: N_9  and  C_10 
REMARK    5  A    between atoms: C_12  and  C_13 
ROOT
HETATM    1  C   UNL     1      25.252  47.013  51.357  1.00  0.00     0.231 C 
HETATM    2  N   UNL     1      25.318  46.307  52.545  1.00  0.00    -0.327 N 
HETATM    3  O   UNL     1      26.024  47.905  51.010  1.00  0.00    -0.272 OA
HETATM    4  H   UNL     1      24.559  45.649  52.699  1.00  0.00     0.169 HD
ENDROOT
BRANCH   2   5
HETATM    5  C   UNL     1      26.241  46.464  53.599  1.00  0.00     0.035 A 
HETATM    6  C   UNL     1      27.263  45.553  53.885  1.00  0.00     0.042 A 
HETATM    7  C   UNL     1      28.161  45.769  54.944  1.00  0.00    -0.021 A 
HETATM    8  C   UNL     1      28.013  46.923  55.724  1.00  0.00     0.012 A 
HETATM    9  C   UNL     1      26.992  47.835  55.454  1.00  0.00     0.003 A 
HETATM   10  C   UNL     1      26.110  47.606  54.397  1.00  0.00     0.029 A 
BRANCH   7  11
HETATM   11  C   UNL     1      29.225  44.807  55.203  1.00  0.00     0.010 A 
HETATM   12  C   UNL     1      30.302  44.846  56.123  1.00  0.00     0.152 A 
HETATM   13  N   UNL     1      31.084  43.764  56.056  1.00  0.00    -0.187 NA
HETATM   14  N   UNL     1      30.518  43.030  55.088  1.00  0.00    -0.289 N 
HETATM   15  H   UNL     1      30.947  42.143  54.846  1.00  0.00     0.188 HD
HETATM   16  C   UNL     1      29.406  43.608  54.544  1.00  0.00     0.123 A 
ENDBRANCH   7  11
ENDBRANCH   2   5
BRANCH   1  17
HETATM   17  C   UNL     1      24.166  46.551  50.396  1.00  0.00     0.182 C 
BRANCH  17  18
HETATM   18  S   UNL     1      24.375  47.200  48.702  1.00  0.00    -0.121 SA
BRANCH  18  19
HETATM   19  C   UNL     1      23.148  48.492  48.752  1.00  0.00     0.001 A 
HETATM   20  C   UNL     1      23.538  49.829  48.646  1.00  0.00     0.019 A 
HETATM   21  C   UNL     1      22.583  50.848  48.703  1.00  0.00     0.008 A 
HETATM   22  C   UNL     1      21.226  50.544  48.851  1.00  0.00    -0.062 A 
HETATM   23  C   UNL     1      20.195  51.630  48.943  1.00  0.00     0.048 C 
HETATM   24  C   UNL     1      20.838  49.203  48.946  1.00  0.00     0.008 A 
HETATM   25  C   UNL     1      21.791  48.183  48.889  1.00  0.00     0.019 A 
ENDBRANCH  18  19
ENDBRANCH  17  18
ENDBRANCH   1  17
TORSDOF 5
ENDMDL
MODEL 9
REMARK VINA RESULT:      -7.4      4.135      8.115
REMARK  5 active torsions:
REMARK  status: ('A' for Active; 'I' for Inactive)
REMARK    1  A    between atoms: C_5  and  S_6 
REMARK    2  A    between atoms: S_6  and  C_7 
REMARK    3  A    between atoms: C_7  and  C_8 
REMARK       I    between atoms: C_8  and  N_9 
REMARK    4  A    between atoms: N_9  and  C_10 
REMARK    5  A    between atoms: C_12  and  C_13 
ROOT
HETATM    1  C   UNL     1      25.759  42.834  50.099  1.00  0.00     0.231 C 
HETATM    2  N   UNL     1      27.013  43.264  50.496  1.00  0.00    -0.327 N 
HETATM    3  O   UNL     1      25.114  41.925  50.619  1.00  0.00    -0.272 OA
HETATM    4  H   UNL     1      27.428  43.983  49.911  1.00  0.00     0.169 HD
ENDROOT
BRANCH   2   5
HETATM    5  C   UNL     1      27.815  42.755  51.537  1.00  0.00     0.035 A 
HETATM    6  C   UNL     1      28.314  43.531  52.589  1.00  0.00     0.042 A 
HETATM    7  C   UNL     1      29.102  42.965  53.606  1.00  0.00    -0.021 A 
HETATM    8  C   UNL     1      29.389  41.596  53.548  1.00  0.00     0.012 A 
HETATM    9  C   UNL     1      28.904  40.812  52.500  1.00  0.00     0.003 A 
HETATM   10  C   UNL     1      28.121  41.390  51.499  1.00  0.00     0.029 A 
BRANCH   7  11
HETATM   11  C   UNL     1      29.591  43.800  54.696  1.00  0.00     0.010 A 
HETATM   12  C   UNL     1      29.088  45.015  55.227  1.00  0.00     0.152 A 
HETATM   13  N   UNL     1      29.829  45.488  56.234  1.00  0.00    -0.187 NA
HETATM   14  N   UNL     1      30.813  44.586  56.348  1.00  0.00    -0.289 N 
HETATM   15  H   UNL     1      31.520  44.737  57.060  1.00  0.00     0.188 HD
HETATM   16  C   UNL     1      30.719  43.559  55.453  1.00  0.00     0.123 A 
ENDBRANCH   7  11
ENDBRANCH   2   5
BRANCH   1  17
HETATM   17  C   UNL     1      25.131  43.643  48.972  1.00  0.00     0.182 C 
BRANCH  17  18
HETATM   18  S   UNL     1      23.831  44.791  49.543  1.00  0.00    -0.121 SA
BRANCH  18  19
HETATM   19  C   UNL     1      24.726  45.576  50.870  1.00  0.00     0.001 A 
HETATM   20  C   UNL     1      24.642  45.064  52.166  1.00  0.00     0.019 A 
HETATM   21  C   UNL     1      25.326  45.684  53.216  1.00  0.00     0.008 A 
HETATM   22  C   UNL     1      26.115  46.816  52.979  1.00  0.00    -0.062 A 
HETATM   23  C   UNL     1      26.830  47.508  54.102  1.00  0.00     0.048 C 
HETATM   24  C   UNL     1      26.205  47.320  51.677  1.00  0.00     0.008 A 
HETATM   25  C   UNL     1      25.522  46.700  50.628  1.00  0.00     0.019 A 
ENDBRANCH  18  19
ENDBRANCH  17  18
ENDBRANCH   1  17
TORSDOF 5
ENDMDL
MODEL 10
REMARK VINA RESULT:      -7.4      4.296     10.288
REMARK  5 active torsions:
REMARK  status: ('A' for Active; 'I' for Inactive)
REMARK    1  A    between atoms: C_5  and  S_6 
REMARK    2  A    between atoms: S_6  and  C_7 
REMARK    3  A    between atoms: C_7  and  C_8 
REMARK       I    between atoms: C_8  and  N_9 
REMARK    4  A    between atoms: N_9  and  C_10 
REMARK    5  A    between atoms: C_12  and  C_13 
ROOT
HETATM    1  C   UNL     1      21.861  48.245  48.473  1.00  0.00     0.231 C 
HETATM    2  N   UNL     1      22.679  48.279  49.588  1.00  0.00    -0.327 N 
HETATM    3  O   UNL     1      22.172  47.799  47.369  1.00  0.00    -0.272 OA
HETATM    4  H   UNL     1      22.283  48.744  50.400  1.00  0.00     0.169 HD
ENDROOT
BRANCH   2   5
HETATM    5  C   UNL     1      24.016  47.846  49.698  1.00  0.00     0.035 A 
HETATM    6  C   UNL     1      24.394  46.604  50.217  1.00  0.00     0.042 A 
HETATM    7  C   UNL     1      25.745  46.223  50.292  1.00  0.00    -0.021 A 
HETATM    8  C   UNL     1      26.721  47.119  49.839  1.00  0.00     0.012 A 
HETATM    9  C   UNL     1      26.357  48.365  49.326  1.00  0.00     0.003 A 
HETATM   10  C   UNL     1      25.010  48.726  49.257  1.00  0.00     0.029 A 
BRANCH   7  11
HETATM   11  C   UNL     1      26.102  44.913  50.823  1.00  0.00     0.010 A 
HETATM   12  C   UNL     1      27.351  44.243  50.869  1.00  0.00     0.152 A 
HETATM   13  N   UNL     1      27.273  43.035  51.435  1.00  0.00    -0.187 NA
HETATM   14  N   UNL     1      25.975  42.920  51.748  1.00  0.00    -0.289 N 
HETATM   15  H   UNL     1      25.664  42.065  52.195  1.00  0.00     0.188 HD
HETATM   16  C   UNL     1      25.232  44.013  51.404  1.00  0.00     0.123 A 
ENDBRANCH   7  11
ENDBRANCH   2   5
BRANCH   1  17
HETATM   17  C   UNL     1      20.438  48.735  48.705  1.00  0.00     0.182 C 
BRANCH  17  18
HETATM   18  S   UNL     1      19.731  49.610  47.267  1.00  0.00    -0.121 SA
BRANCH  18  19
HETATM   19  C   UNL     1      18.552  50.636  48.127  1.00  0.00     0.001 A 
HETATM   20  C   UNL     1      18.999  51.681  48.938  1.00  0.00     0.019 A 
HETATM   21  C   UNL     1      18.082  52.478  49.629  1.00  0.00     0.008 A 
HETATM   22  C   UNL     1      16.707  52.250  49.505  1.00  0.00    -0.062 A 
HETATM   23  C   UNL     1      15.714  53.080  50.265  1.00  0.00     0.048 C 
HETATM   24  C   UNL     1      16.263  51.209  48.682  1.00  0.00     0.008 A 
HETATM   25  C   UNL     1      17.178  50.412  47.991  1.00  0.00     0.019 A 
ENDBRANCH  18  19
ENDBRANCH  17  18
ENDBRANCH   1  17
TORSDOF 5
ENDMDL
