MODEL 1
REMARK VINA RESULT:     -10.9      0.000      0.000
REMARK  4 active torsions:
REMARK  status: ('A' for Active; 'I' for Inactive)
REMARK    1  A    between atoms: C_2  and  C_3 
REMARK    2  A    between atoms: C_2  and  C_19 
REMARK       I    between atoms: C_3  and  N_4 
REMARK    3  A    between atoms: N_4  and  C_5 
REMARK    4  A    between atoms: C_12  and  C_13 
REMARK       I    between atoms: C_13  and  N_14 
ROOT
HETATM    1  C   UNL     1      26.747  44.943  50.902  1.00  0.00     0.230 C 
HETATM    2  N   UNL     1      26.179  46.178  51.163  1.00  0.00    -0.327 N 
HETATM    3  O   UNL     1      27.297  44.624  49.850  1.00  0.00    -0.272 OA
HETATM    4  H   UNL     1      25.986  46.391  52.133  1.00  0.00     0.169 HD
ENDROOT
BRANCH   2   5
HETATM    5  C   UNL     1      25.948  47.227  50.250  1.00  0.00     0.035 A 
HETATM    6  C   UNL     1      24.677  47.568  49.768  1.00  0.00     0.046 A 
HETATM    7  C   UNL     1      24.534  48.677  48.906  1.00  0.00     0.030 A 
HETATM    8  C   UNL     1      25.668  49.394  48.542  1.00  0.00     0.063 A 
HETATM    9  C   UNL     1      23.452  49.343  48.253  1.00  0.00     0.156 A 
HETATM   10  N   UNL     1      25.220  50.385  47.714  1.00  0.00    -0.277 N 
HETATM   11  C   UNL     1      26.949  49.079  48.998  1.00  0.00     0.034 A 
HETATM   12  H   UNL     1      25.776  51.098  47.255  1.00  0.00     0.189 HD
HETATM   13  N   UNL     1      23.892  50.392  47.520  1.00  0.00    -0.168 NA
HETATM   14  C   UNL     1      27.062  47.987  49.867  1.00  0.00     0.032 A 
BRANCH   9  15
HETATM   15  C   UNL     1      22.021  49.014  48.327  1.00  0.00     0.270 C 
HETATM   16  N   UNL     1      21.438  49.328  49.525  1.00  0.00    -0.365 N 
HETATM   17  H   UNL     1      22.014  49.737  50.252  1.00  0.00     0.159 HD
HETATM   18  H   UNL     1      20.464  49.122  49.675  1.00  0.00     0.159 HD
HETATM   19  O   UNL     1      21.375  48.495  47.424  1.00  0.00    -0.266 OA
ENDBRANCH   9  15
ENDBRANCH   2   5
BRANCH   1  20
HETATM   20  C   UNL     1      26.554  43.891  52.007  1.00  0.00     0.107 C 
HETATM   21  C   UNL     1      25.189  44.126  52.659  1.00  0.00     0.025 C 
BRANCH  20  22
HETATM   22  C   UNL     1      27.708  43.793  52.998  1.00  0.00    -0.044 A 
HETATM   23  C   UNL     1      27.883  44.709  54.051  1.00  0.00     0.020 A 
HETATM   24  C   UNL     1      28.975  44.617  54.932  1.00  0.00    -0.025 A 
HETATM   25  C   UNL     1      29.911  43.573  54.768  1.00  0.00    -0.026 A 
HETATM   26  C   UNL     1      29.155  45.544  55.972  1.00  0.00     0.012 A 
HETATM   27  C   UNL     1      29.736  42.657  53.721  1.00  0.00     0.013 A 
HETATM   28  C   UNL     1      30.996  43.477  55.655  1.00  0.00     0.012 A 
HETATM   29  C   UNL     1      28.655  42.771  52.843  1.00  0.00     0.009 A 
HETATM   30  C   UNL     1      31.160  44.405  56.684  1.00  0.00     0.001 A 
HETATM   31  C   UNL     1      30.242  45.439  56.842  1.00  0.00     0.001 A 
ENDBRANCH  20  22
ENDBRANCH   1  20
TORSDOF 4
ENDMDL
MODEL 2
REMARK VINA RESULT:     -10.2      4.546      7.639
REMARK  4 active torsions:
REMARK  status: ('A' for Active; 'I' for Inactive)
REMARK    1  A    between atoms: C_2  and  C_3 
REMARK    2  A    between atoms: C_2  and  C_19 
REMARK       I    between atoms: C_3  and  N_4 
REMARK    3  A    between atoms: N_4  and  C_5 
REMARK    4  A    between atoms: C_12  and  C_13 
REMARK       I    between atoms: C_13  and  N_14 
ROOT
HETATM    1  C   UNL     1      27.013  43.606  51.669  1.00  0.00     0.230 C 
HETATM    2  N   UNL     1      26.487  42.326  51.669  1.00  0.00    -0.327 N 
HETATM    3  O   UNL     1      27.625  44.120  50.735  1.00  0.00    -0.272 OA
HETATM    4  H   UNL     1      25.804  42.118  52.386  1.00  0.00     0.169 HD
ENDROOT
BRANCH   2   5
HETATM    5  C   UNL     1      26.697  41.311  50.714  1.00  0.00     0.035 A 
HETATM    6  C   UNL     1      27.708  40.347  50.818  1.00  0.00     0.046 A 
HETATM    7  C   UNL     1      27.801  39.327  49.845  1.00  0.00     0.030 A 
HETATM    8  C   UNL     1      26.893  39.319  48.794  1.00  0.00     0.063 A 
HETATM    9  C   UNL     1      28.632  38.187  49.623  1.00  0.00     0.156 A 
HETATM   10  N   UNL     1      27.233  38.239  48.029  1.00  0.00    -0.277 N 
HETATM   11  C   UNL     1      25.877  40.267  48.655  1.00  0.00     0.034 A 
HETATM   12  H   UNL     1      26.785  37.927  47.174  1.00  0.00     0.189 HD
HETATM   13  N   UNL     1      28.271  37.528  48.498  1.00  0.00    -0.168 NA
HETATM   14  C   UNL     1      25.794  41.256  49.643  1.00  0.00     0.032 A 
BRANCH   9  15
HETATM   15  C   UNL     1      29.741  37.709  50.461  1.00  0.00     0.270 C 
HETATM   16  N   UNL     1      29.362  36.825  51.435  1.00  0.00    -0.365 N 
HETATM   17  H   UNL     1      28.381  36.583  51.515  1.00  0.00     0.159 HD
HETATM   18  H   UNL     1      30.051  36.457  52.070  1.00  0.00     0.159 HD
HETATM   19  O   UNL     1      30.911  38.053  50.338  1.00  0.00    -0.266 OA
ENDBRANCH   9  15
ENDBRANCH   2   5
BRANCH   1  20
HETATM   20  C   UNL     1      26.887  44.363  53.002  1.00  0.00     0.107 C 
HETATM   21  C   UNL     1      26.568  45.828  52.692  1.00  0.00     0.025 C 
BRANCH  20  22
HETATM   22  C   UNL     1      28.061  44.170  53.954  1.00  0.00    -0.044 A 
HETATM   23  C   UNL     1      28.269  44.992  55.078  1.00  0.00     0.020 A 
HETATM   24  C   UNL     1      29.378  44.815  55.922  1.00  0.00    -0.025 A 
HETATM   25  C   UNL     1      30.300  43.782  55.649  1.00  0.00    -0.026 A 
HETATM   26  C   UNL     1      29.591  45.647  57.034  1.00  0.00     0.012 A 
HETATM   27  C   UNL     1      30.093  42.960  54.531  1.00  0.00     0.013 A 
HETATM   28  C   UNL     1      31.403  43.601  56.499  1.00  0.00     0.012 A 
HETATM   29  C   UNL     1      28.994  43.158  53.690  1.00  0.00     0.009 A 
HETATM   30  C   UNL     1      31.600  44.435  57.600  1.00  0.00     0.001 A 
HETATM   31  C   UNL     1      30.695  45.459  57.866  1.00  0.00     0.001 A 
ENDBRANCH  20  22
ENDBRANCH   1  20
TORSDOF 4
ENDMDL
MODEL 3
REMARK VINA RESULT:     -10.0      2.498      3.535
REMARK  4 active torsions:
REMARK  status: ('A' for Active; 'I' for Inactive)
REMARK    1  A    between atoms: C_2  and  C_3 
REMARK    2  A    between atoms: C_2  and  C_19 
REMARK       I    between atoms: C_3  and  N_4 
REMARK    3  A    between atoms: N_4  and  C_5 
REMARK    4  A    between atoms: C_12  and  C_13 
REMARK       I    between atoms: C_13  and  N_14 
ROOT
HETATM    1  C   UNL     1      27.618  42.987  51.663  1.00  0.00     0.230 C 
HETATM    2  N   UNL     1      27.582  44.227  51.051  1.00  0.00    -0.327 N 
HETATM    3  O   UNL     1      26.666  42.213  51.752  1.00  0.00    -0.272 OA
HETATM    4  H   UNL     1      28.475  44.648  50.829  1.00  0.00     0.169 HD
ENDROOT
BRANCH   2   5
HETATM    5  C   UNL     1      26.447  44.924  50.587  1.00  0.00     0.035 A 
HETATM    6  C   UNL     1      25.535  44.391  49.667  1.00  0.00     0.046 A 
HETATM    7  C   UNL     1      24.390  45.137  49.310  1.00  0.00     0.030 A 
HETATM    8  C   UNL     1      24.208  46.395  49.871  1.00  0.00     0.063 A 
HETATM    9  C   UNL     1      23.252  44.940  48.469  1.00  0.00     0.156 A 
HETATM   10  N   UNL     1      23.040  46.864  49.339  1.00  0.00    -0.277 N 
HETATM   11  C   UNL     1      25.100  46.959  50.785  1.00  0.00     0.034 A 
HETATM   12  H   UNL     1      22.597  47.758  49.522  1.00  0.00     0.189 HD
HETATM   13  N   UNL     1      22.430  46.015  48.496  1.00  0.00    -0.168 NA
HETATM   14  C   UNL     1      26.216  46.192  51.138  1.00  0.00     0.032 A 
BRANCH   9  15
HETATM   15  C   UNL     1      22.927  43.755  47.663  1.00  0.00     0.270 C 
HETATM   16  N   UNL     1      23.879  43.436  46.732  1.00  0.00    -0.365 N 
HETATM   17  H   UNL     1      24.701  44.024  46.658  1.00  0.00     0.159 HD
HETATM   18  H   UNL     1      23.734  42.649  46.120  1.00  0.00     0.159 HD
HETATM   19  O   UNL     1      21.903  43.091  47.775  1.00  0.00    -0.266 OA
ENDBRANCH   9  15
ENDBRANCH   2   5
BRANCH   1  20
HETATM   20  C   UNL     1      28.944  42.643  52.362  1.00  0.00     0.107 C 
HETATM   21  C   UNL     1      29.006  41.124  52.549  1.00  0.00     0.025 C 
BRANCH  20  22
HETATM   22  C   UNL     1      29.216  43.437  53.634  1.00  0.00    -0.044 A 
HETATM   23  C   UNL     1      30.225  43.082  54.548  1.00  0.00     0.020 A 
HETATM   24  C   UNL     1      30.433  43.811  55.731  1.00  0.00    -0.025 A 
HETATM   25  C   UNL     1      29.625  44.935  56.005  1.00  0.00    -0.026 A 
HETATM   26  C   UNL     1      31.431  43.444  56.650  1.00  0.00     0.012 A 
HETATM   27  C   UNL     1      28.621  45.292  55.093  1.00  0.00     0.013 A 
HETATM   28  C   UNL     1      29.841  45.668  57.183  1.00  0.00     0.012 A 
HETATM   29  C   UNL     1      28.413  44.548  53.928  1.00  0.00     0.009 A 
HETATM   30  C   UNL     1      30.837  45.292  58.085  1.00  0.00     0.001 A 
HETATM   31  C   UNL     1      31.630  44.179  57.820  1.00  0.00     0.001 A 
ENDBRANCH  20  22
ENDBRANCH   1  20
TORSDOF 4
ENDMDL
MODEL 4
REMARK VINA RESULT:      -9.9      1.773      3.098
REMARK  4 active torsions:
REMARK  status: ('A' for Active; 'I' for Inactive)
REMARK    1  A    between atoms: C_2  and  C_3 
REMARK    2  A    between atoms: C_2  and  C_19 
REMARK       I    between atoms: C_3  and  N_4 
REMARK    3  A    between atoms: N_4  and  C_5 
REMARK    4  A    between atoms: C_12  and  C_13 
REMARK       I    between atoms: C_13  and  N_14 
ROOT
HETATM    1  C   UNL     1      27.357  43.609  51.878  1.00  0.00     0.230 C 
HETATM    2  N   UNL     1      27.398  44.634  50.949  1.00  0.00    -0.327 N 
HETATM    3  O   UNL     1      26.333  43.133  52.364  1.00  0.00    -0.272 OA
HETATM    4  H   UNL     1      28.270  44.760  50.453  1.00  0.00     0.169 HD
ENDROOT
BRANCH   2   5
HETATM    5  C   UNL     1      26.330  45.449  50.522  1.00  0.00     0.035 A 
HETATM    6  C   UNL     1      26.504  46.704  49.924  1.00  0.00     0.046 A 
HETATM    7  C   UNL     1      25.376  47.420  49.467  1.00  0.00     0.030 A 
HETATM    8  C   UNL     1      24.114  46.866  49.642  1.00  0.00     0.063 A 
HETATM    9  C   UNL     1      25.145  48.662  48.801  1.00  0.00     0.156 A 
HETATM   10  N   UNL     1      23.242  47.777  49.116  1.00  0.00    -0.277 N 
HETATM   11  C   UNL     1      23.903  45.622  50.240  1.00  0.00     0.034 A 
HETATM   12  H   UNL     1      22.231  47.706  49.074  1.00  0.00     0.189 HD
HETATM   13  N   UNL     1      23.823  48.869  48.593  1.00  0.00    -0.168 NA
HETATM   14  C   UNL     1      25.038  44.923  50.666  1.00  0.00     0.032 A 
BRANCH   9  15
HETATM   15  C   UNL     1      26.147  49.637  48.347  1.00  0.00     0.270 C 
HETATM   16  N   UNL     1      27.308  49.622  49.072  1.00  0.00    -0.365 N 
HETATM   17  H   UNL     1      27.387  48.974  49.848  1.00  0.00     0.159 HD
HETATM   18  H   UNL     1      28.046  50.268  48.846  1.00  0.00     0.159 HD
HETATM   19  O   UNL     1      25.992  50.418  47.415  1.00  0.00    -0.266 OA
ENDBRANCH   9  15
ENDBRANCH   2   5
BRANCH   1  20
HETATM   20  C   UNL     1      28.729  43.136  52.388  1.00  0.00     0.107 C 
HETATM   21  C   UNL     1      28.739  41.605  52.385  1.00  0.00     0.025 C 
BRANCH  20  22
HETATM   22  C   UNL     1      29.164  43.758  53.710  1.00  0.00    -0.044 A 
HETATM   23  C   UNL     1      30.179  43.203  54.511  1.00  0.00     0.020 A 
HETATM   24  C   UNL     1      30.538  43.777  55.743  1.00  0.00    -0.025 A 
HETATM   25  C   UNL     1      29.878  44.944  56.183  1.00  0.00    -0.026 A 
HETATM   26  C   UNL     1      31.541  43.211  56.548  1.00  0.00     0.012 A 
HETATM   27  C   UNL     1      28.869  45.500  55.384  1.00  0.00     0.013 A 
HETATM   28  C   UNL     1      30.245  45.521  57.410  1.00  0.00     0.012 A 
HETATM   29  C   UNL     1      28.510  44.910  54.169  1.00  0.00     0.009 A 
HETATM   30  C   UNL     1      31.244  44.948  58.197  1.00  0.00     0.001 A 
HETATM   31  C   UNL     1      31.890  43.792  57.768  1.00  0.00     0.001 A 
ENDBRANCH  20  22
ENDBRANCH   1  20
TORSDOF 4
ENDMDL
MODEL 5
REMARK VINA RESULT:      -9.8      2.060      3.320
REMARK  4 active torsions:
REMARK  status: ('A' for Active; 'I' for Inactive)
REMARK    1  A    between atoms: C_2  and  C_3 
REMARK    2  A    between atoms: C_2  and  C_19 
REMARK       I    between atoms: C_3  and  N_4 
REMARK    3  A    between atoms: N_4  and  C_5 
REMARK    4  A    between atoms: C_12  and  C_13 
REMARK       I    between atoms: C_13  and  N_14 
ROOT
HETATM    1  C   UNL     1      27.546  43.813  51.400  1.00  0.00     0.230 C 
HETATM    2  N   UNL     1      26.191  43.663  51.638  1.00  0.00    -0.327 N 
HETATM    3  O   UNL     1      28.036  44.486  50.496  1.00  0.00    -0.272 OA
HETATM    4  H   UNL     1      25.929  43.295  52.543  1.00  0.00     0.169 HD
ENDROOT
BRANCH   2   5
HETATM    5  C   UNL     1      25.124  44.077  50.815  1.00  0.00     0.035 A 
HETATM    6  C   UNL     1      24.802  45.421  50.583  1.00  0.00     0.046 A 
HETATM    7  C   UNL     1      23.756  45.742  49.690  1.00  0.00     0.030 A 
HETATM    8  C   UNL     1      23.057  44.709  49.077  1.00  0.00     0.063 A 
HETATM    9  C   UNL     1      23.168  46.939  49.179  1.00  0.00     0.156 A 
HETATM   10  N   UNL     1      22.121  45.320  48.291  1.00  0.00    -0.277 N 
HETATM   11  C   UNL     1      23.346  43.360  49.291  1.00  0.00     0.034 A 
HETATM   12  H   UNL     1      21.429  44.873  47.699  1.00  0.00     0.189 HD
HETATM   13  N   UNL     1      22.159  46.662  48.319  1.00  0.00    -0.168 NA
HETATM   14  C   UNL     1      24.400  43.068  50.164  1.00  0.00     0.032 A 
BRANCH   9  15
HETATM   15  C   UNL     1      23.554  48.326  49.476  1.00  0.00     0.270 C 
HETATM   16  N   UNL     1      22.494  49.176  49.639  1.00  0.00    -0.365 N 
HETATM   17  H   UNL     1      21.555  48.808  49.535  1.00  0.00     0.159 HD
HETATM   18  H   UNL     1      22.661  50.151  49.828  1.00  0.00     0.159 HD
HETATM   19  O   UNL     1      24.708  48.727  49.567  1.00  0.00    -0.266 OA
ENDBRANCH   9  15
ENDBRANCH   2   5
BRANCH   1  20
HETATM   20  C   UNL     1      28.463  42.965  52.298  1.00  0.00     0.107 C 
HETATM   21  C   UNL     1      27.789  41.610  52.527  1.00  0.00     0.025 C 
BRANCH  20  22
HETATM   22  C   UNL     1      28.914  43.659  53.578  1.00  0.00    -0.044 A 
HETATM   23  C   UNL     1      29.911  43.127  54.418  1.00  0.00     0.020 A 
HETATM   24  C   UNL     1      30.285  43.768  55.611  1.00  0.00    -0.025 A 
HETATM   25  C   UNL     1      29.661  44.982  55.971  1.00  0.00    -0.026 A 
HETATM   26  C   UNL     1      31.269  43.226  56.454  1.00  0.00     0.012 A 
HETATM   27  C   UNL     1      28.670  45.515  55.134  1.00  0.00     0.013 A 
HETATM   28  C   UNL     1      30.043  45.626  57.159  1.00  0.00     0.012 A 
HETATM   29  C   UNL     1      28.295  44.857  53.959  1.00  0.00     0.009 A 
HETATM   30  C   UNL     1      31.023  45.075  57.986  1.00  0.00     0.001 A 
HETATM   31  C   UNL     1      31.634  43.875  57.635  1.00  0.00     0.001 A 
ENDBRANCH  20  22
ENDBRANCH   1  20
TORSDOF 4
ENDMDL
MODEL 6
REMARK VINA RESULT:      -9.7      3.328      4.127
REMARK  4 active torsions:
REMARK  status: ('A' for Active; 'I' for Inactive)
REMARK    1  A    between atoms: C_2  and  C_3 
REMARK    2  A    between atoms: C_2  and  C_19 
REMARK       I    between atoms: C_3  and  N_4 
REMARK    3  A    between atoms: N_4  and  C_5 
REMARK    4  A    between atoms: C_12  and  C_13 
REMARK       I    between atoms: C_13  and  N_14 
ROOT
HETATM    1  C   UNL     1      25.512  44.837  53.426  1.00  0.00     0.230 C 
HETATM    2  N   UNL     1      25.743  44.752  52.065  1.00  0.00    -0.327 N 
HETATM    3  O   UNL     1      24.653  44.205  54.039  1.00  0.00    -0.272 OA
HETATM    4  H   UNL     1      26.623  45.125  51.732  1.00  0.00     0.169 HD
ENDROOT
BRANCH   2   5
HETATM    5  C   UNL     1      24.953  44.097  51.098  1.00  0.00     0.035 A 
HETATM    6  C   UNL     1      23.829  44.677  50.496  1.00  0.00     0.046 A 
HETATM    7  C   UNL     1      23.137  43.970  49.488  1.00  0.00     0.030 A 
HETATM    8  C   UNL     1      23.581  42.702  49.132  1.00  0.00     0.063 A 
HETATM    9  C   UNL     1      22.014  44.218  48.641  1.00  0.00     0.156 A 
HETATM   10  N   UNL     1      22.724  42.277  48.157  1.00  0.00    -0.277 N 
HETATM   11  C   UNL     1      24.692  42.091  49.717  1.00  0.00     0.034 A 
HETATM   12  H   UNL     1      22.744  41.390  47.666  1.00  0.00     0.189 HD
HETATM   13  N   UNL     1      21.770  43.163  47.827  1.00  0.00    -0.168 NA
HETATM   14  C   UNL     1      25.373  42.821  50.699  1.00  0.00     0.032 A 
BRANCH   9  15
HETATM   15  C   UNL     1      21.188  45.432  48.579  1.00  0.00     0.270 C 
HETATM   16  N   UNL     1      20.106  45.413  49.418  1.00  0.00    -0.365 N 
HETATM   17  H   UNL     1      19.950  44.592  49.990  1.00  0.00     0.159 HD
HETATM   18  H   UNL     1      19.472  46.195  49.431  1.00  0.00     0.159 HD
HETATM   19  O   UNL     1      21.407  46.391  47.848  1.00  0.00    -0.266 OA
ENDBRANCH   9  15
ENDBRANCH   2   5
BRANCH   1  20
HETATM   20  C   UNL     1      26.348  45.894  54.166  1.00  0.00     0.107 C 
HETATM   21  C   UNL     1      26.578  47.073  53.215  1.00  0.00     0.025 C 
BRANCH  20  22
HETATM   22  C   UNL     1      27.621  45.359  54.811  1.00  0.00    -0.044 A 
HETATM   23  C   UNL     1      28.108  45.840  56.040  1.00  0.00     0.020 A 
HETATM   24  C   UNL     1      29.303  45.354  56.598  1.00  0.00    -0.025 A 
HETATM   25  C   UNL     1      30.027  44.350  55.920  1.00  0.00    -0.026 A 
HETATM   26  C   UNL     1      29.794  45.848  57.818  1.00  0.00     0.012 A 
HETATM   27  C   UNL     1      29.541  43.867  54.696  1.00  0.00     0.013 A 
HETATM   28  C   UNL     1      31.216  43.858  56.483  1.00  0.00     0.012 A 
HETATM   29  C   UNL     1      28.360  44.372  54.144  1.00  0.00     0.009 A 
HETATM   30  C   UNL     1      31.690  44.359  57.696  1.00  0.00     0.001 A 
HETATM   31  C   UNL     1      30.981  45.354  58.362  1.00  0.00     0.001 A 
ENDBRANCH  20  22
ENDBRANCH   1  20
TORSDOF 4
ENDMDL
MODEL 7
REMARK VINA RESULT:      -9.5      3.736      6.109
REMARK  4 active torsions:
REMARK  status: ('A' for Active; 'I' for Inactive)
REMARK    1  A    between atoms: C_2  and  C_3 
REMARK    2  A    between atoms: C_2  and  C_19 
REMARK       I    between atoms: C_3  and  N_4 
REMARK    3  A    between atoms: N_4  and  C_5 
REMARK    4  A    between atoms: C_12  and  C_13 
REMARK       I    between atoms: C_13  and  N_14 
ROOT
HETATM    1  C   UNL     1      25.354  44.750  52.103  1.00  0.00     0.230 C 
HETATM    2  N   UNL     1      25.886  44.577  50.837  1.00  0.00    -0.327 N 
HETATM    3  O   UNL     1      24.518  44.015  52.626  1.00  0.00    -0.272 OA
HETATM    4  H   UNL     1      26.730  45.094  50.628  1.00  0.00     0.169 HD
ENDROOT
BRANCH   2   5
HETATM    5  C   UNL     1      25.461  43.672  49.843  1.00  0.00     0.035 A 
HETATM    6  C   UNL     1      25.972  42.374  49.710  1.00  0.00     0.046 A 
HETATM    7  C   UNL     1      25.438  41.514  48.724  1.00  0.00     0.030 A 
HETATM    8  C   UNL     1      24.428  41.988  47.896  1.00  0.00     0.063 A 
HETATM    9  C   UNL     1      25.652  40.164  48.309  1.00  0.00     0.156 A 
HETATM   10  N   UNL     1      24.128  40.951  47.059  1.00  0.00    -0.277 N 
HETATM   11  C   UNL     1      23.901  43.277  47.997  1.00  0.00     0.034 A 
HETATM   12  H   UNL     1      23.437  40.941  46.317  1.00  0.00     0.189 HD
HETATM   13  N   UNL     1      24.839  39.833  47.279  1.00  0.00    -0.168 NA
HETATM   14  C   UNL     1      24.433  44.104  48.994  1.00  0.00     0.032 A 
BRANCH   9  15
HETATM   15  C   UNL     1      26.593  39.189  48.878  1.00  0.00     0.270 C 
HETATM   16  N   UNL     1      26.283  38.793  50.151  1.00  0.00    -0.365 N 
HETATM   17  H   UNL     1      25.467  39.193  50.598  1.00  0.00     0.159 HD
HETATM   18  H   UNL     1      26.881  38.140  50.630  1.00  0.00     0.159 HD
HETATM   19  O   UNL     1      27.584  38.754  48.302  1.00  0.00    -0.266 OA
ENDBRANCH   9  15
ENDBRANCH   2   5
BRANCH   1  20
HETATM   20  C   UNL     1      25.796  46.032  52.827  1.00  0.00     0.107 C 
HETATM   21  C   UNL     1      25.967  47.138  51.781  1.00  0.00     0.025 C 
BRANCH  20  22
HETATM   22  C   UNL     1      26.996  45.859  53.750  1.00  0.00    -0.044 A 
HETATM   23  C   UNL     1      27.785  44.694  53.757  1.00  0.00     0.020 A 
HETATM   24  C   UNL     1      28.867  44.545  54.642  1.00  0.00    -0.025 A 
HETATM   25  C   UNL     1      29.181  45.591  55.535  1.00  0.00    -0.026 A 
HETATM   26  C   UNL     1      29.642  43.373  54.657  1.00  0.00     0.012 A 
HETATM   27  C   UNL     1      28.398  46.754  55.527  1.00  0.00     0.013 A 
HETATM   28  C   UNL     1      30.268  45.444  56.412  1.00  0.00     0.012 A 
HETATM   29  C   UNL     1      27.315  46.882  54.653  1.00  0.00     0.009 A 
HETATM   30  C   UNL     1      31.030  44.275  56.414  1.00  0.00     0.001 A 
HETATM   31  C   UNL     1      30.716  43.239  55.539  1.00  0.00     0.001 A 
ENDBRANCH  20  22
ENDBRANCH   1  20
TORSDOF 4
ENDMDL
MODEL 8
REMARK VINA RESULT:      -9.4      1.815      2.282
REMARK  4 active torsions:
REMARK  status: ('A' for Active; 'I' for Inactive)
REMARK    1  A    between atoms: C_2  and  C_3 
REMARK    2  A    between atoms: C_2  and  C_19 
REMARK       I    between atoms: C_3  and  N_4 
REMARK    3  A    between atoms: N_4  and  C_5 
REMARK    4  A    between atoms: C_12  and  C_13 
REMARK       I    between atoms: C_13  and  N_14 
ROOT
HETATM    1  C   UNL     1      25.811  43.468  50.884  1.00  0.00     0.230 C 
HETATM    2  N   UNL     1      25.926  44.432  49.898  1.00  0.00    -0.327 N 
HETATM    3  O   UNL     1      24.877  43.374  51.678  1.00  0.00    -0.272 OA
HETATM    4  H   UNL     1      26.600  44.252  49.166  1.00  0.00     0.169 HD
ENDROOT
BRANCH   2   5
HETATM    5  C   UNL     1      25.127  45.581  49.724  1.00  0.00     0.035 A 
HETATM    6  C   UNL     1      23.822  45.547  49.215  1.00  0.00     0.046 A 
HETATM    7  C   UNL     1      23.073  46.742  49.138  1.00  0.00     0.030 A 
HETATM    8  C   UNL     1      23.662  47.930  49.553  1.00  0.00     0.063 A 
HETATM    9  C   UNL     1      21.754  47.107  48.730  1.00  0.00     0.156 A 
HETATM   10  N   UNL     1      22.714  48.893  49.356  1.00  0.00    -0.277 N 
HETATM   11  C   UNL     1      24.962  48.002  50.058  1.00  0.00     0.034 A 
HETATM   12  H   UNL     1      22.798  49.886  49.546  1.00  0.00     0.189 HD
HETATM   13  N   UNL     1      21.549  48.438  48.868  1.00  0.00    -0.168 NA
HETATM   14  C   UNL     1      25.676  46.801  50.143  1.00  0.00     0.032 A 
BRANCH   9  15
HETATM   15  C   UNL     1      20.692  46.221  48.232  1.00  0.00     0.270 C 
HETATM   16  N   UNL     1      20.074  45.489  49.210  1.00  0.00    -0.365 N 
HETATM   17  H   UNL     1      20.388  45.595  50.168  1.00  0.00     0.159 HD
HETATM   18  H   UNL     1      19.345  44.841  48.962  1.00  0.00     0.159 HD
HETATM   19  O   UNL     1      20.365  46.111  47.056  1.00  0.00    -0.266 OA
ENDBRANCH   9  15
ENDBRANCH   2   5
BRANCH   1  20
HETATM   20  C   UNL     1      27.021  42.530  51.022  1.00  0.00     0.107 C 
HETATM   21  C   UNL     1      26.510  41.086  51.031  1.00  0.00     0.025 C 
BRANCH  20  22
HETATM   22  C   UNL     1      27.955  42.865  52.179  1.00  0.00    -0.044 A 
HETATM   23  C   UNL     1      27.762  43.983  53.010  1.00  0.00     0.020 A 
HETATM   24  C   UNL     1      28.657  44.290  54.050  1.00  0.00    -0.025 A 
HETATM   25  C   UNL     1      29.769  43.451  54.277  1.00  0.00    -0.026 A 
HETATM   26  C   UNL     1      28.469  45.417  54.867  1.00  0.00     0.012 A 
HETATM   27  C   UNL     1      29.961  42.334  53.451  1.00  0.00     0.013 A 
HETATM   28  C   UNL     1      30.657  43.754  55.322  1.00  0.00     0.012 A 
HETATM   29  C   UNL     1      29.073  42.051  52.411  1.00  0.00     0.009 A 
HETATM   30  C   UNL     1      30.456  44.876  56.126  1.00  0.00     0.001 A 
HETATM   31  C   UNL     1      29.364  45.708  55.898  1.00  0.00     0.001 A 
ENDBRANCH  20  22
ENDBRANCH   1  20
TORSDOF 4
ENDMDL
MODEL 9
REMARK VINA RESULT:      -8.8      4.527     11.196
REMARK  4 active torsions:
REMARK  status: ('A' for Active; 'I' for Inactive)
REMARK    1  A    between atoms: C_2  and  C_3 
REMARK    2  A    between atoms: C_2  and  C_19 
REMARK       I    between atoms: C_3  and  N_4 
REMARK    3  A    between atoms: N_4  and  C_5 
REMARK    4  A    between atoms: C_12  and  C_13 
REMARK       I    between atoms: C_13  and  N_14 
ROOT
HETATM    1  C   UNL     1      20.524  50.161  49.901  1.00  0.00     0.230 C 
HETATM    2  N   UNL     1      21.288  49.415  49.021  1.00  0.00    -0.327 N 
HETATM    3  O   UNL     1      20.933  51.111  50.565  1.00  0.00    -0.272 OA
HETATM    4  H   UNL     1      20.784  48.834  48.364  1.00  0.00     0.169 HD
ENDROOT
BRANCH   2   5
HETATM    5  C   UNL     1      22.687  49.459  48.849  1.00  0.00     0.035 A 
HETATM    6  C   UNL     1      23.571  48.563  49.465  1.00  0.00     0.046 A 
HETATM    7  C   UNL     1      24.953  48.642  49.181  1.00  0.00     0.030 A 
HETATM    8  C   UNL     1      25.402  49.624  48.307  1.00  0.00     0.063 A 
HETATM    9  C   UNL     1      26.126  47.922  49.561  1.00  0.00     0.156 A 
HETATM   10  N   UNL     1      26.756  49.456  48.237  1.00  0.00    -0.277 N 
HETATM   11  C   UNL     1      24.550  50.536  47.681  1.00  0.00     0.034 A 
HETATM   12  H   UNL     1      27.416  50.002  47.694  1.00  0.00     0.189 HD
HETATM   13  N   UNL     1      27.230  48.438  48.973  1.00  0.00    -0.168 NA
HETATM   14  C   UNL     1      23.184  50.425  47.964  1.00  0.00     0.032 A 
BRANCH   9  15
HETATM   15  C   UNL     1      26.213  46.754  50.450  1.00  0.00     0.270 C 
HETATM   16  N   UNL     1      26.045  47.050  51.776  1.00  0.00    -0.365 N 
HETATM   17  H   UNL     1      25.891  48.015  52.042  1.00  0.00     0.159 HD
HETATM   18  H   UNL     1      26.106  46.315  52.462  1.00  0.00     0.159 HD
HETATM   19  O   UNL     1      26.427  45.606  50.078  1.00  0.00    -0.266 OA
ENDBRANCH   9  15
ENDBRANCH   2   5
BRANCH   1  20
HETATM   20  C   UNL     1      19.086  49.655  50.106  1.00  0.00     0.107 C 
HETATM   21  C   UNL     1      19.037  48.178  49.705  1.00  0.00     0.025 C 
BRANCH  20  22
HETATM   22  C   UNL     1      18.011  50.513  49.448  1.00  0.00    -0.044 A 
HETATM   23  C   UNL     1      17.475  51.659  50.064  1.00  0.00     0.020 A 
HETATM   24  C   UNL     1      16.460  52.415  49.452  1.00  0.00    -0.025 A 
HETATM   25  C   UNL     1      15.976  52.027  48.184  1.00  0.00    -0.026 A 
HETATM   26  C   UNL     1      15.916  53.549  50.076  1.00  0.00     0.012 A 
HETATM   27  C   UNL     1      16.512  50.886  47.568  1.00  0.00     0.013 A 
HETATM   28  C   UNL     1      14.968  52.788  47.570  1.00  0.00     0.012 A 
HETATM   29  C   UNL     1      17.509  50.135  48.196  1.00  0.00     0.009 A 
HETATM   30  C   UNL     1      14.438  53.913  48.203  1.00  0.00     0.001 A 
HETATM   31  C   UNL     1      14.911  54.293  49.456  1.00  0.00     0.001 A 
ENDBRANCH  20  22
ENDBRANCH   1  20
TORSDOF 4
ENDMDL
MODEL 10
REMARK VINA RESULT:      -8.8      3.529      4.469
REMARK  4 active torsions:
REMARK  status: ('A' for Active; 'I' for Inactive)
REMARK    1  A    between atoms: C_2  and  C_3 
REMARK    2  A    between atoms: C_2  and  C_19 
REMARK       I    between atoms: C_3  and  N_4 
REMARK    3  A    between atoms: N_4  and  C_5 
REMARK    4  A    between atoms: C_12  and  C_13 
REMARK       I    between atoms: C_13  and  N_14 
ROOT
HETATM    1  C   UNL     1      24.733  45.135  51.489  1.00  0.00     0.230 C 
HETATM    2  N   UNL     1      24.638  45.316  50.121  1.00  0.00    -0.327 N 
HETATM    3  O   UNL     1      24.231  44.205  52.117  1.00  0.00    -0.272 OA
HETATM    4  H   UNL     1      25.291  45.967  49.704  1.00  0.00     0.169 HD
ENDROOT
BRANCH   2   5
HETATM    5  C   UNL     1      23.820  44.608  49.216  1.00  0.00     0.035 A 
HETATM    6  C   UNL     1      22.515  44.996  48.886  1.00  0.00     0.046 A 
HETATM    7  C   UNL     1      21.794  44.263  47.918  1.00  0.00     0.030 A 
HETATM    8  C   UNL     1      22.396  43.158  47.329  1.00  0.00     0.063 A 
HETATM    9  C   UNL     1      20.507  44.352  47.305  1.00  0.00     0.156 A 
HETATM   10  N   UNL     1      21.469  42.661  46.457  1.00  0.00    -0.277 N 
HETATM   11  C   UNL     1      23.692  42.740  47.638  1.00  0.00     0.034 A 
HETATM   12  H   UNL     1      21.564  41.851  45.854  1.00  0.00     0.189 HD
HETATM   13  N   UNL     1      20.320  43.356  46.408  1.00  0.00    -0.168 NA
HETATM   14  C   UNL     1      24.392  43.495  48.586  1.00  0.00     0.032 A 
BRANCH   9  15
HETATM   15  C   UNL     1      19.469  45.366  47.542  1.00  0.00     0.270 C 
HETATM   16  N   UNL     1      18.772  45.188  48.706  1.00  0.00    -0.365 N 
HETATM   17  H   UNL     1      19.002  44.395  49.294  1.00  0.00     0.159 HD
HETATM   18  H   UNL     1      18.028  45.824  48.944  1.00  0.00     0.159 HD
HETATM   19  O   UNL     1      19.212  46.295  46.784  1.00  0.00    -0.266 OA
ENDBRANCH   9  15
ENDBRANCH   2   5
BRANCH   1  20
HETATM   20  C   UNL     1      25.440  46.270  52.249  1.00  0.00     0.107 C 
HETATM   21  C   UNL     1      25.775  47.380  51.248  1.00  0.00     0.025 C 
BRANCH  20  22
HETATM   22  C   UNL     1      26.622  45.823  53.101  1.00  0.00    -0.044 A 
HETATM   23  C   UNL     1      27.399  44.693  52.787  1.00  0.00     0.020 A 
HETATM   24  C   UNL     1      28.463  44.282  53.608  1.00  0.00    -0.025 A 
HETATM   25  C   UNL     1      28.772  45.026  54.766  1.00  0.00    -0.026 A 
HETATM   26  C   UNL     1      29.226  43.143  53.300  1.00  0.00     0.012 A 
HETATM   27  C   UNL     1      28.002  46.155  55.079  1.00  0.00     0.013 A 
HETATM   28  C   UNL     1      29.842  44.619  55.580  1.00  0.00     0.012 A 
HETATM   29  C   UNL     1      26.935  46.543  54.263  1.00  0.00     0.009 A 
HETATM   30  C   UNL     1      30.591  43.486  55.260  1.00  0.00     0.001 A 
HETATM   31  C   UNL     1      30.282  42.747  54.122  1.00  0.00     0.001 A 
ENDBRANCH  20  22
ENDBRANCH   1  20
TORSDOF 4
ENDMDL
