MODEL 1
REMARK VINA RESULT:      -9.0      0.000      0.000
REMARK  6 active torsions:
REMARK  status: ('A' for Active; 'I' for Inactive)
REMARK    1  A    between atoms: C_6  and  C_7 
REMARK    2  A    between atoms: N_8  and  N_9 
REMARK       I    between atoms: N_9  and  C_10 
REMARK    3  A    between atoms: C_10  and  C_11 
REMARK    4  A    between atoms: C_14  and  O_15 
REMARK    5  A    between atoms: O_15  and  C_16 
REMARK    6  A    between atoms: C_16  and  C_17 
ROOT
HETATM    1  C   UNL     1      26.447  46.748  51.489  1.00  0.00     0.217 C 
HETATM    2  N   UNL     1      26.455  45.287  51.356  1.00  0.00    -0.247 N 
HETATM    3  C   UNL     1      27.232  44.568  52.273  1.00  0.00     0.272 C 
HETATM    4  O   UNL     1      27.549  43.388  52.172  1.00  0.00    -0.266 OA
HETATM    5  C   UNL     1      27.632  45.305  53.497  1.00  0.00     0.054 A 
HETATM    6  C   UNL     1      26.983  46.518  53.766  1.00  0.00     0.026 A 
HETATM    7  N   UNL     1      26.023  47.048  52.863  1.00  0.00    -0.265 NA
HETATM    8  C   UNL     1      28.531  44.753  54.413  1.00  0.00     0.019 A 
HETATM    9  C   UNL     1      28.772  45.411  55.619  1.00  0.00     0.001 A 
HETATM   10  C   UNL     1      28.095  46.597  55.913  1.00  0.00     0.002 A 
HETATM   11  C   UNL     1      27.190  47.140  54.998  1.00  0.00     0.024 A 
HETATM   12  H   UNL     1      25.147  46.553  53.029  1.00  0.00     0.130 HD
ENDROOT
BRANCH   2  13
HETATM   13  N   UNL     1      25.199  44.674  50.908  1.00  0.00    -0.163 NA
HETATM   14  C   UNL     1      25.236  43.969  49.712  1.00  0.00     0.249 C 
HETATM   15  O   UNL     1      24.641  44.374  48.717  1.00  0.00    -0.272 OA
HETATM   16  H   UNL     1      24.484  45.391  50.794  1.00  0.00     0.156 HD
BRANCH  14  17
HETATM   17  C   UNL     1      25.887  42.647  49.687  1.00  0.00     0.028 A 
HETATM   18  C   UNL     1      25.408  41.613  50.497  1.00  0.00     0.019 A 
HETATM   19  C   UNL     1      26.021  40.359  50.444  1.00  0.00     0.038 A 
HETATM   20  C   UNL     1      27.112  40.135  49.599  1.00  0.00     0.069 A 
HETATM   21  C   UNL     1      27.565  41.165  48.769  1.00  0.00     0.038 A 
HETATM   22  C   UNL     1      26.944  42.418  48.802  1.00  0.00     0.019 A 
BRANCH  20  23
HETATM   23  O   UNL     1      27.630  38.869  49.658  1.00  0.00    -0.348 OA
BRANCH  23  24
HETATM   24  C   UNL     1      28.768  38.608  48.838  1.00  0.00     0.202 C 
BRANCH  24  25
HETATM   25  C   UNL     1      29.895  38.213  49.746  1.00  0.00    -0.011 C 
HETATM   26  C   UNL     1      29.773  37.407  50.810  1.00  0.00     0.009 C 
ENDBRANCH  24  25
ENDBRANCH  23  24
ENDBRANCH  20  23
ENDBRANCH  14  17
ENDBRANCH   2  13
BRANCH   1  27
HETATM   27  C   UNL     1      25.650  47.538  50.449  1.00  0.00    -0.014 A 
HETATM   28  C   UNL     1      26.288  48.401  49.524  1.00  0.00    -0.052 A 
HETATM   29  C   UNL     1      25.510  49.128  48.599  1.00  0.00     0.014 A 
HETATM   30  C   UNL     1      27.784  48.568  49.460  1.00  0.00     0.049 C 
HETATM   31  C   UNL     1      24.115  49.049  48.591  1.00  0.00    -0.061 A 
HETATM   32  C   UNL     1      23.307  49.895  47.652  1.00  0.00     0.048 C 
HETATM   33  C   UNL     1      23.484  48.231  49.524  1.00  0.00     0.007 A 
HETATM   34  C   UNL     1      24.239  47.484  50.431  1.00  0.00     0.011 A 
ENDBRANCH   1  27
TORSDOF 6
ENDMDL
MODEL 2
REMARK VINA RESULT:      -8.9      1.977      7.551
REMARK  6 active torsions:
REMARK  status: ('A' for Active; 'I' for Inactive)
REMARK    1  A    between atoms: C_6  and  C_7 
REMARK    2  A    between atoms: N_8  and  N_9 
REMARK       I    between atoms: N_9  and  C_10 
REMARK    3  A    between atoms: C_10  and  C_11 
REMARK    4  A    between atoms: C_14  and  O_15 
REMARK    5  A    between atoms: O_15  and  C_16 
REMARK    6  A    between atoms: C_16  and  C_17 
ROOT
HETATM    1  C   UNL     1      26.885  43.984  52.672  1.00  0.00     0.217 C 
HETATM    2  N   UNL     1      26.564  45.252  52.009  1.00  0.00    -0.247 N 
HETATM    3  C   UNL     1      26.495  46.395  52.816  1.00  0.00     0.272 C 
HETATM    4  O   UNL     1      26.014  47.473  52.489  1.00  0.00    -0.266 OA
HETATM    5  C   UNL     1      27.133  46.280  54.151  1.00  0.00     0.054 A 
HETATM    6  C   UNL     1      27.974  45.182  54.377  1.00  0.00     0.026 A 
HETATM    7  N   UNL     1      28.156  44.185  53.381  1.00  0.00    -0.265 NA
HETATM    8  C   UNL     1      27.001  47.292  55.105  1.00  0.00     0.019 A 
HETATM    9  C   UNL     1      27.730  47.215  56.292  1.00  0.00     0.001 A 
HETATM   10  C   UNL     1      28.604  46.146  56.504  1.00  0.00     0.002 A 
HETATM   11  C   UNL     1      28.740  45.142  55.543  1.00  0.00     0.024 A 
HETATM   12  H   UNL     1      28.830  44.550  52.708  1.00  0.00     0.130 HD
ENDROOT
BRANCH   2  13
HETATM   13  N   UNL     1      27.087  45.418  50.647  1.00  0.00    -0.163 NA
HETATM   14  C   UNL     1      26.154  45.581  49.632  1.00  0.00     0.249 C 
HETATM   15  O   UNL     1      25.994  44.719  48.771  1.00  0.00    -0.272 OA
HETATM   16  H   UNL     1      27.649  44.607  50.391  1.00  0.00     0.156 HD
BRANCH  14  17
HETATM   17  C   UNL     1      25.451  46.871  49.514  1.00  0.00     0.028 A 
HETATM   18  C   UNL     1      26.162  48.034  49.204  1.00  0.00     0.019 A 
HETATM   19  C   UNL     1      25.477  49.243  49.074  1.00  0.00     0.038 A 
HETATM   20  C   UNL     1      24.093  49.302  49.261  1.00  0.00     0.069 A 
HETATM   21  C   UNL     1      23.384  48.129  49.540  1.00  0.00     0.038 A 
HETATM   22  C   UNL     1      24.060  46.910  49.653  1.00  0.00     0.019 A 
BRANCH  20  23
HETATM   23  O   UNL     1      23.549  50.551  49.123  1.00  0.00    -0.348 OA
BRANCH  23  24
HETATM   24  C   UNL     1      22.465  50.676  48.205  1.00  0.00     0.202 C 
BRANCH  24  25
HETATM   25  C   UNL     1      21.265  51.127  48.985  1.00  0.00    -0.011 C 
HETATM   26  C   UNL     1      20.154  51.648  48.447  1.00  0.00     0.009 C 
ENDBRANCH  24  25
ENDBRANCH  23  24
ENDBRANCH  20  23
ENDBRANCH  14  17
ENDBRANCH   2  13
BRANCH   1  27
HETATM   27  C   UNL     1      26.898  42.726  51.802  1.00  0.00    -0.014 A 
HETATM   28  C   UNL     1      25.720  42.245  51.178  1.00  0.00    -0.052 A 
HETATM   29  C   UNL     1      25.774  41.066  50.405  1.00  0.00     0.014 A 
HETATM   30  C   UNL     1      24.394  42.951  51.280  1.00  0.00     0.049 C 
HETATM   31  C   UNL     1      26.956  40.334  50.263  1.00  0.00    -0.061 A 
HETATM   32  C   UNL     1      26.968  39.041  49.503  1.00  0.00     0.048 C 
HETATM   33  C   UNL     1      28.105  40.785  50.907  1.00  0.00     0.007 A 
HETATM   34  C   UNL     1      28.077  41.963  51.656  1.00  0.00     0.011 A 
ENDBRANCH   1  27
TORSDOF 6
ENDMDL
MODEL 3
REMARK VINA RESULT:      -8.7      1.654      2.371
REMARK  6 active torsions:
REMARK  status: ('A' for Active; 'I' for Inactive)
REMARK    1  A    between atoms: C_6  and  C_7 
REMARK    2  A    between atoms: N_8  and  N_9 
REMARK       I    between atoms: N_9  and  C_10 
REMARK    3  A    between atoms: C_10  and  C_11 
REMARK    4  A    between atoms: C_14  and  O_15 
REMARK    5  A    between atoms: O_15  and  C_16 
REMARK    6  A    between atoms: C_16  and  C_17 
ROOT
HETATM    1  C   UNL     1      27.595  45.076  52.571  1.00  0.00     0.217 C 
HETATM    2  N   UNL     1      27.619  43.617  52.421  1.00  0.00    -0.247 N 
HETATM    3  C   UNL     1      28.623  42.922  53.107  1.00  0.00     0.272 C 
HETATM    4  O   UNL     1      28.944  41.755  52.915  1.00  0.00    -0.266 OA
HETATM    5  C   UNL     1      29.290  43.668  54.203  1.00  0.00     0.054 A 
HETATM    6  C   UNL     1      28.689  44.856  54.640  1.00  0.00     0.026 A 
HETATM    7  N   UNL     1      27.517  45.355  54.011  1.00  0.00    -0.265 NA
HETATM    8  C   UNL     1      30.407  43.145  54.858  1.00  0.00     0.019 A 
HETATM    9  C   UNL     1      30.919  43.806  55.974  1.00  0.00     0.001 A 
HETATM   10  C   UNL     1      30.297  44.966  56.443  1.00  0.00     0.002 A 
HETATM   11  C   UNL     1      29.175  45.480  55.789  1.00  0.00     0.024 A 
HETATM   12  H   UNL     1      26.726  44.829  54.384  1.00  0.00     0.130 HD
ENDROOT
BRANCH   2  13
HETATM   13  N   UNL     1      26.312  42.961  52.292  1.00  0.00    -0.163 NA
HETATM   14  C   UNL     1      25.932  42.563  51.017  1.00  0.00     0.249 C 
HETATM   15  O   UNL     1      24.995  43.104  50.435  1.00  0.00    -0.272 OA
HETATM   16  H   UNL     1      25.577  43.583  52.628  1.00  0.00     0.156 HD
BRANCH  14  17
HETATM   17  C   UNL     1      26.580  41.382  50.419  1.00  0.00     0.028 A 
HETATM   18  C   UNL     1      27.695  41.536  49.590  1.00  0.00     0.019 A 
HETATM   19  C   UNL     1      28.311  40.405  49.050  1.00  0.00     0.038 A 
HETATM   20  C   UNL     1      27.817  39.126  49.324  1.00  0.00     0.069 A 
HETATM   21  C   UNL     1      26.721  38.978  50.179  1.00  0.00     0.038 A 
HETATM   22  C   UNL     1      26.110  40.105  50.739  1.00  0.00     0.019 A 
BRANCH  20  23
HETATM   23  O   UNL     1      28.501  38.107  48.718  1.00  0.00    -0.348 OA
BRANCH  23  24
HETATM   24  C   UNL     1      29.889  37.999  49.028  1.00  0.00     0.202 C 
BRANCH  24  25
HETATM   25  C   UNL     1      30.009  37.908  50.521  1.00  0.00    -0.011 C 
HETATM   26  C   UNL     1      29.788  36.798  51.239  1.00  0.00     0.009 C 
ENDBRANCH  24  25
ENDBRANCH  23  24
ENDBRANCH  20  23
ENDBRANCH  14  17
ENDBRANCH   2  13
BRANCH   1  27
HETATM   27  C   UNL     1      26.537  45.841  51.772  1.00  0.00    -0.014 A 
HETATM   28  C   UNL     1      26.610  45.951  50.362  1.00  0.00    -0.052 A 
HETATM   29  C   UNL     1      25.626  46.687  49.669  1.00  0.00     0.014 A 
HETATM   30  C   UNL     1      27.690  45.291  49.544  1.00  0.00     0.049 C 
HETATM   31  C   UNL     1      24.593  47.346  50.342  1.00  0.00    -0.061 A 
HETATM   32  C   UNL     1      23.607  48.189  49.589  1.00  0.00     0.048 C 
HETATM   33  C   UNL     1      24.543  47.271  51.730  1.00  0.00     0.007 A 
HETATM   34  C   UNL     1      25.493  46.525  52.431  1.00  0.00     0.011 A 
ENDBRANCH   1  27
TORSDOF 6
ENDMDL
MODEL 4
REMARK VINA RESULT:      -8.5      6.141     10.119
REMARK  6 active torsions:
REMARK  status: ('A' for Active; 'I' for Inactive)
REMARK    1  A    between atoms: C_6  and  C_7 
REMARK    2  A    between atoms: N_8  and  N_9 
REMARK       I    between atoms: N_9  and  C_10 
REMARK    3  A    between atoms: C_10  and  C_11 
REMARK    4  A    between atoms: C_14  and  O_15 
REMARK    5  A    between atoms: O_15  and  C_16 
REMARK    6  A    between atoms: C_16  and  C_17 
ROOT
HETATM    1  C   UNL     1      21.240  50.186  48.323  1.00  0.00     0.217 C 
HETATM    2  N   UNL     1      20.346  50.571  49.420  1.00  0.00    -0.247 N 
HETATM    3  C   UNL     1      19.214  51.326  49.086  1.00  0.00     0.272 C 
HETATM    4  O   UNL     1      18.500  51.931  49.877  1.00  0.00    -0.266 OA
HETATM    5  C   UNL     1      18.832  51.315  47.652  1.00  0.00     0.054 A 
HETATM    6  C   UNL     1      19.435  50.355  46.826  1.00  0.00     0.026 A 
HETATM    7  N   UNL     1      20.420  49.469  47.337  1.00  0.00    -0.265 NA
HETATM    8  C   UNL     1      17.820  52.146  47.167  1.00  0.00     0.019 A 
HETATM    9  C   UNL     1      17.392  52.007  45.847  1.00  0.00     0.001 A 
HETATM   10  C   UNL     1      17.956  51.022  45.032  1.00  0.00     0.002 A 
HETATM   11  C   UNL     1      18.962  50.187  45.525  1.00  0.00     0.024 A 
HETATM   12  H   UNL     1      19.929  48.723  47.831  1.00  0.00     0.130 HD
ENDROOT
BRANCH   2  13
HETATM   13  N   UNL     1      20.210  49.598  50.512  1.00  0.00    -0.163 NA
HETATM   14  C   UNL     1      18.968  48.996  50.664  1.00  0.00     0.249 C 
HETATM   15  O   UNL     1      18.267  49.224  51.645  1.00  0.00    -0.272 OA
HETATM   16  H   UNL     1      20.421  50.046  51.403  1.00  0.00     0.156 HD
BRANCH  14  17
HETATM   17  C   UNL     1      18.558  47.962  49.696  1.00  0.00     0.028 A 
HETATM   18  C   UNL     1      19.432  46.923  49.364  1.00  0.00     0.019 A 
HETATM   19  C   UNL     1      19.020  45.939  48.464  1.00  0.00     0.038 A 
HETATM   20  C   UNL     1      17.747  45.991  47.886  1.00  0.00     0.069 A 
HETATM   21  C   UNL     1      16.867  47.016  48.247  1.00  0.00     0.038 A 
HETATM   22  C   UNL     1      17.266  47.994  49.163  1.00  0.00     0.019 A 
BRANCH  20  23
HETATM   23  O   UNL     1      17.477  44.977  47.007  1.00  0.00    -0.348 OA
BRANCH  23  24
HETATM   24  C   UNL     1      18.459  44.724  46.004  1.00  0.00     0.202 C 
BRANCH  24  25
HETATM   25  C   UNL     1      18.293  45.770  44.940  1.00  0.00    -0.011 C 
HETATM   26  C   UNL     1      19.245  46.633  44.562  1.00  0.00     0.009 C 
ENDBRANCH  24  25
ENDBRANCH  23  24
ENDBRANCH  20  23
ENDBRANCH  14  17
ENDBRANCH   2  13
BRANCH   1  27
HETATM   27  C   UNL     1      22.509  49.416  48.695  1.00  0.00    -0.014 A 
HETATM   28  C   UNL     1      23.788  50.020  48.628  1.00  0.00    -0.052 A 
HETATM   29  C   UNL     1      24.933  49.263  48.957  1.00  0.00     0.014 A 
HETATM   30  C   UNL     1      23.994  51.460  48.239  1.00  0.00     0.049 C 
HETATM   31  C   UNL     1      24.844  47.915  49.316  1.00  0.00    -0.061 A 
HETATM   32  C   UNL     1      26.082  47.112  49.582  1.00  0.00     0.048 C 
HETATM   33  C   UNL     1      23.591  47.311  49.345  1.00  0.00     0.007 A 
HETATM   34  C   UNL     1      22.444  48.051  49.047  1.00  0.00     0.011 A 
ENDBRANCH   1  27
TORSDOF 6
ENDMDL
MODEL 5
REMARK VINA RESULT:      -8.4      2.350      7.151
REMARK  6 active torsions:
REMARK  status: ('A' for Active; 'I' for Inactive)
REMARK    1  A    between atoms: C_6  and  C_7 
REMARK    2  A    between atoms: N_8  and  N_9 
REMARK       I    between atoms: N_9  and  C_10 
REMARK    3  A    between atoms: C_10  and  C_11 
REMARK    4  A    between atoms: C_14  and  O_15 
REMARK    5  A    between atoms: O_15  and  C_16 
REMARK    6  A    between atoms: C_16  and  C_17 
ROOT
HETATM    1  C   UNL     1      26.106  43.291  49.367  1.00  0.00     0.217 C 
HETATM    2  N   UNL     1      26.449  43.580  50.764  1.00  0.00    -0.247 N 
HETATM    3  C   UNL     1      26.210  44.882  51.223  1.00  0.00     0.272 C 
HETATM    4  O   UNL     1      26.646  45.366  52.261  1.00  0.00    -0.266 OA
HETATM    5  C   UNL     1      25.288  45.699  50.395  1.00  0.00     0.054 A 
HETATM    6  C   UNL     1      24.531  45.035  49.419  1.00  0.00     0.026 A 
HETATM    7  N   UNL     1      24.690  43.642  49.196  1.00  0.00    -0.265 NA
HETATM    8  C   UNL     1      25.090  47.056  50.658  1.00  0.00     0.019 A 
HETATM    9  C   UNL     1      24.111  47.755  49.952  1.00  0.00     0.001 A 
HETATM   10  C   UNL     1      23.322  47.090  49.011  1.00  0.00     0.002 A 
HETATM   11  C   UNL     1      23.518  45.730  48.758  1.00  0.00     0.024 A 
HETATM   12  H   UNL     1      24.163  43.156  49.922  1.00  0.00     0.130 HD
ENDROOT
BRANCH   2  13
HETATM   13  N   UNL     1      26.250  42.482  51.717  1.00  0.00    -0.163 NA
HETATM   14  C   UNL     1      27.386  41.806  52.143  1.00  0.00     0.249 C 
HETATM   15  O   UNL     1      27.586  40.637  51.827  1.00  0.00    -0.272 OA
HETATM   16  H   UNL     1      25.635  41.778  51.311  1.00  0.00     0.156 HD
BRANCH  14  17
HETATM   17  C   UNL     1      28.289  42.470  53.101  1.00  0.00     0.028 A 
HETATM   18  C   UNL     1      29.671  42.452  52.893  1.00  0.00     0.019 A 
HETATM   19  C   UNL     1      30.510  43.105  53.798  1.00  0.00     0.038 A 
HETATM   20  C   UNL     1      29.982  43.764  54.912  1.00  0.00     0.069 A 
HETATM   21  C   UNL     1      28.596  43.804  55.096  1.00  0.00     0.038 A 
HETATM   22  C   UNL     1      27.747  43.169  54.183  1.00  0.00     0.019 A 
BRANCH  20  23
HETATM   23  O   UNL     1      30.914  44.346  55.728  1.00  0.00    -0.348 OA
BRANCH  23  24
HETATM   24  C   UNL     1      31.294  43.608  56.888  1.00  0.00     0.202 C 
BRANCH  24  25
HETATM   25  C   UNL     1      31.182  44.534  58.064  1.00  0.00    -0.011 C 
HETATM   26  C   UNL     1      30.320  45.556  58.153  1.00  0.00     0.009 C 
ENDBRANCH  24  25
ENDBRANCH  23  24
ENDBRANCH  20  23
ENDBRANCH  14  17
ENDBRANCH   2  13
BRANCH   1  27
HETATM   27  C   UNL     1      26.425  41.888  48.848  1.00  0.00    -0.014 A 
HETATM   28  C   UNL     1      25.400  40.960  48.543  1.00  0.00    -0.052 A 
HETATM   29  C   UNL     1      25.742  39.668  48.090  1.00  0.00     0.014 A 
HETATM   30  C   UNL     1      23.935  41.292  48.657  1.00  0.00     0.049 C 
HETATM   31  C   UNL     1      27.074  39.262  47.966  1.00  0.00    -0.061 A 
HETATM   32  C   UNL     1      27.410  37.858  47.561  1.00  0.00     0.048 C 
HETATM   33  C   UNL     1      28.082  40.161  48.302  1.00  0.00     0.007 A 
HETATM   34  C   UNL     1      27.763  41.452  48.727  1.00  0.00     0.011 A 
ENDBRANCH   1  27
TORSDOF 6
ENDMDL
MODEL 6
REMARK VINA RESULT:      -8.4      3.773      6.724
REMARK  6 active torsions:
REMARK  status: ('A' for Active; 'I' for Inactive)
REMARK    1  A    between atoms: C_6  and  C_7 
REMARK    2  A    between atoms: N_8  and  N_9 
REMARK       I    between atoms: N_9  and  C_10 
REMARK    3  A    between atoms: C_10  and  C_11 
REMARK    4  A    between atoms: C_14  and  O_15 
REMARK    5  A    between atoms: O_15  and  C_16 
REMARK    6  A    between atoms: C_16  and  C_17 
ROOT
HETATM    1  C   UNL     1      21.745  46.356  47.298  1.00  0.00     0.217 C 
HETATM    2  N   UNL     1      22.589  46.123  48.475  1.00  0.00    -0.247 N 
HETATM    3  C   UNL     1      23.215  47.241  49.042  1.00  0.00     0.272 C 
HETATM    4  O   UNL     1      24.127  47.211  49.859  1.00  0.00    -0.266 OA
HETATM    5  C   UNL     1      22.655  48.559  48.653  1.00  0.00     0.054 A 
HETATM    6  C   UNL     1      21.412  48.572  48.006  1.00  0.00     0.026 A 
HETATM    7  N   UNL     1      20.745  47.361  47.684  1.00  0.00    -0.265 NA
HETATM    8  C   UNL     1      23.284  49.750  49.026  1.00  0.00     0.019 A 
HETATM    9  C   UNL     1      22.655  50.967  48.766  1.00  0.00     0.001 A 
HETATM   10  C   UNL     1      21.395  50.986  48.163  1.00  0.00     0.002 A 
HETATM   11  C   UNL     1      20.766  49.792  47.801  1.00  0.00     0.024 A 
HETATM   12  H   UNL     1      20.289  47.030  48.534  1.00  0.00     0.130 HD
ENDROOT
BRANCH   2  13
HETATM   13  N   UNL     1      22.143  45.064  49.389  1.00  0.00    -0.163 NA
HETATM   14  C   UNL     1      22.871  43.881  49.380  1.00  0.00     0.249 C 
HETATM   15  O   UNL     1      22.381  42.836  48.963  1.00  0.00    -0.272 OA
HETATM   16  H   UNL     1      21.180  44.807  49.178  1.00  0.00     0.156 HD
BRANCH  14  17
HETATM   17  C   UNL     1      24.202  43.862  50.013  1.00  0.00     0.028 A 
HETATM   18  C   UNL     1      25.355  43.817  49.224  1.00  0.00     0.019 A 
HETATM   19  C   UNL     1      26.609  43.823  49.839  1.00  0.00     0.038 A 
HETATM   20  C   UNL     1      26.719  43.863  51.232  1.00  0.00     0.069 A 
HETATM   21  C   UNL     1      25.561  43.940  52.014  1.00  0.00     0.038 A 
HETATM   22  C   UNL     1      24.302  43.954  51.404  1.00  0.00     0.019 A 
BRANCH  20  23
HETATM   23  O   UNL     1      28.003  43.846  51.706  1.00  0.00    -0.348 OA
BRANCH  23  24
HETATM   24  C   UNL     1      28.178  44.163  53.085  1.00  0.00     0.202 C 
BRANCH  24  25
HETATM   25  C   UNL     1      29.046  43.096  53.685  1.00  0.00    -0.011 C 
HETATM   26  C   UNL     1      30.262  42.757  53.235  1.00  0.00     0.009 C 
ENDBRANCH  24  25
ENDBRANCH  23  24
ENDBRANCH  20  23
ENDBRANCH  14  17
ENDBRANCH   2  13
BRANCH   1  27
HETATM   27  C   UNL     1      21.112  45.127  46.641  1.00  0.00    -0.014 A 
HETATM   28  C   UNL     1      21.869  44.251  45.826  1.00  0.00    -0.052 A 
HETATM   29  C   UNL     1      21.238  43.144  45.220  1.00  0.00     0.014 A 
HETATM   30  C   UNL     1      23.346  44.427  45.585  1.00  0.00     0.049 C 
HETATM   31  C   UNL     1      19.870  42.905  45.373  1.00  0.00    -0.061 A 
HETATM   32  C   UNL     1      19.207  41.768  44.653  1.00  0.00     0.048 C 
HETATM   33  C   UNL     1      19.117  43.787  46.142  1.00  0.00     0.007 A 
HETATM   34  C   UNL     1      19.730  44.874  46.771  1.00  0.00     0.011 A 
ENDBRANCH   1  27
TORSDOF 6
ENDMDL
MODEL 7
REMARK VINA RESULT:      -8.3      3.011      7.270
REMARK  6 active torsions:
REMARK  status: ('A' for Active; 'I' for Inactive)
REMARK    1  A    between atoms: C_6  and  C_7 
REMARK    2  A    between atoms: N_8  and  N_9 
REMARK       I    between atoms: N_9  and  C_10 
REMARK    3  A    between atoms: C_10  and  C_11 
REMARK    4  A    between atoms: C_14  and  O_15 
REMARK    5  A    between atoms: O_15  and  C_16 
REMARK    6  A    between atoms: C_16  and  C_17 
ROOT
HETATM    1  C   UNL     1      27.734  41.719  50.987  1.00  0.00     0.217 C 
HETATM    2  N   UNL     1      26.551  41.476  50.154  1.00  0.00    -0.247 N 
HETATM    3  C   UNL     1      26.690  40.565  49.099  1.00  0.00     0.272 C 
HETATM    4  O   UNL     1      25.903  40.419  48.171  1.00  0.00    -0.266 OA
HETATM    5  C   UNL     1      27.866  39.663  49.177  1.00  0.00     0.054 A 
HETATM    6  C   UNL     1      28.555  39.597  50.397  1.00  0.00     0.026 A 
HETATM    7  N   UNL     1      28.172  40.412  51.495  1.00  0.00    -0.265 NA
HETATM    8  C   UNL     1      28.201  38.818  48.117  1.00  0.00     0.019 A 
HETATM    9  C   UNL     1      29.225  37.885  48.281  1.00  0.00     0.001 A 
HETATM   10  C   UNL     1      29.884  37.783  49.508  1.00  0.00     0.002 A 
HETATM   11  C   UNL     1      29.539  38.623  50.569  1.00  0.00     0.024 A 
HETATM   12  H   UNL     1      27.367  39.968  51.936  1.00  0.00     0.130 HD
ENDROOT
BRANCH   2  13
HETATM   13  N   UNL     1      25.256  41.514  50.846  1.00  0.00    -0.163 NA
HETATM   14  C   UNL     1      24.481  42.651  50.662  1.00  0.00     0.249 C 
HETATM   15  O   UNL     1      24.268  43.432  51.586  1.00  0.00    -0.272 OA
HETATM   16  H   UNL     1      25.398  41.425  51.851  1.00  0.00     0.156 HD
BRANCH  14  17
HETATM   17  C   UNL     1      23.793  42.841  49.372  1.00  0.00     0.028 A 
HETATM   18  C   UNL     1      23.041  41.801  48.817  1.00  0.00     0.019 A 
HETATM   19  C   UNL     1      22.377  42.004  47.606  1.00  0.00     0.038 A 
HETATM   20  C   UNL     1      22.466  43.231  46.942  1.00  0.00     0.069 A 
HETATM   21  C   UNL     1      23.194  44.277  47.519  1.00  0.00     0.038 A 
HETATM   22  C   UNL     1      23.846  44.087  48.742  1.00  0.00     0.019 A 
BRANCH  20  23
HETATM   23  O   UNL     1      21.783  43.291  45.757  1.00  0.00    -0.348 OA
BRANCH  23  24
HETATM   24  C   UNL     1      20.933  44.421  45.568  1.00  0.00     0.202 C 
BRANCH  24  25
HETATM   25  C   UNL     1      19.620  44.109  46.224  1.00  0.00    -0.011 C 
HETATM   26  C   UNL     1      19.087  44.806  47.237  1.00  0.00     0.009 C 
ENDBRANCH  24  25
ENDBRANCH  23  24
ENDBRANCH  20  23
ENDBRANCH  14  17
ENDBRANCH   2  13
BRANCH   1  27
HETATM   27  C   UNL     1      27.600  42.761  52.099  1.00  0.00    -0.014 A 
HETATM   28  C   UNL     1      27.494  44.144  51.811  1.00  0.00    -0.052 A 
HETATM   29  C   UNL     1      27.397  45.071  52.870  1.00  0.00     0.014 A 
HETATM   30  C   UNL     1      27.454  44.685  50.405  1.00  0.00     0.049 C 
HETATM   31  C   UNL     1      27.439  44.665  54.206  1.00  0.00    -0.061 A 
HETATM   32  C   UNL     1      27.417  45.677  55.313  1.00  0.00     0.048 C 
HETATM   33  C   UNL     1      27.582  43.310  54.491  1.00  0.00     0.007 A 
HETATM   34  C   UNL     1      27.653  42.376  53.456  1.00  0.00     0.011 A 
ENDBRANCH   1  27
TORSDOF 6
ENDMDL
MODEL 8
REMARK VINA RESULT:      -8.3     17.973     20.819
REMARK  6 active torsions:
REMARK  status: ('A' for Active; 'I' for Inactive)
REMARK    1  A    between atoms: C_6  and  C_7 
REMARK    2  A    between atoms: N_8  and  N_9 
REMARK       I    between atoms: N_9  and  C_10 
REMARK    3  A    between atoms: C_10  and  C_11 
REMARK    4  A    between atoms: C_14  and  O_15 
REMARK    5  A    between atoms: O_15  and  C_16 
REMARK    6  A    between atoms: C_16  and  C_17 
ROOT
HETATM    1  C   UNL     1      38.077  46.500  65.482  1.00  0.00     0.217 C 
HETATM    2  N   UNL     1      38.150  45.598  66.637  1.00  0.00    -0.247 N 
HETATM    3  C   UNL     1      38.043  44.225  66.381  1.00  0.00     0.272 C 
HETATM    4  O   UNL     1      37.843  43.354  67.220  1.00  0.00    -0.266 OA
HETATM    5  C   UNL     1      38.267  43.812  64.973  1.00  0.00     0.054 A 
HETATM    6  C   UNL     1      38.833  44.753  64.102  1.00  0.00     0.026 A 
HETATM    7  N   UNL     1      39.122  46.072  64.541  1.00  0.00    -0.265 NA
HETATM    8  C   UNL     1      38.039  42.497  64.560  1.00  0.00     0.019 A 
HETATM    9  C   UNL     1      38.395  42.113  63.267  1.00  0.00     0.001 A 
HETATM   10  C   UNL     1      39.001  43.034  62.409  1.00  0.00     0.002 A 
HETATM   11  C   UNL     1      39.236  44.345  62.830  1.00  0.00     0.024 A 
HETATM   12  H   UNL     1      40.002  46.034  65.056  1.00  0.00     0.130 HD
ENDROOT
BRANCH   2  13
HETATM   13  N   UNL     1      39.044  46.014  67.724  1.00  0.00    -0.163 NA
HETATM   14  C   UNL     1      40.246  45.328  67.845  1.00  0.00     0.249 C 
HETATM   15  O   UNL     1      40.468  44.601  68.810  1.00  0.00    -0.272 OA
HETATM   16  H   UNL     1      38.569  45.917  68.620  1.00  0.00     0.156 HD
BRANCH  14  17
HETATM   17  C   UNL     1      41.317  45.594  66.868  1.00  0.00     0.028 A 
HETATM   18  C   UNL     1      41.807  46.891  66.698  1.00  0.00     0.019 A 
HETATM   19  C   UNL     1      42.838  47.122  65.784  1.00  0.00     0.038 A 
HETATM   20  C   UNL     1      43.373  46.071  65.034  1.00  0.00     0.069 A 
HETATM   21  C   UNL     1      42.899  44.770  65.233  1.00  0.00     0.038 A 
HETATM   22  C   UNL     1      41.880  44.528  66.160  1.00  0.00     0.019 A 
BRANCH  20  23
HETATM   23  O   UNL     1      44.364  46.436  64.163  1.00  0.00    -0.348 OA
BRANCH  23  24
HETATM   24  C   UNL     1      45.706  46.237  64.605  1.00  0.00     0.202 C 
BRANCH  24  25
HETATM   25  C   UNL     1      46.307  47.592  64.839  1.00  0.00    -0.011 C 
HETATM   26  C   UNL     1      46.346  48.216  66.025  1.00  0.00     0.009 C 
ENDBRANCH  24  25
ENDBRANCH  23  24
ENDBRANCH  20  23
ENDBRANCH  14  17
ENDBRANCH   2  13
BRANCH   1  27
HETATM   27  C   UNL     1      38.130  48.002  65.767  1.00  0.00    -0.014 A 
HETATM   28  C   UNL     1      37.096  48.658  66.479  1.00  0.00    -0.052 A 
HETATM   29  C   UNL     1      37.175  50.050  66.697  1.00  0.00     0.014 A 
HETATM   30  C   UNL     1      35.905  47.931  67.045  1.00  0.00     0.049 C 
HETATM   31  C   UNL     1      38.235  50.812  66.197  1.00  0.00    -0.061 A 
HETATM   32  C   UNL     1      38.254  52.301  66.373  1.00  0.00     0.048 C 
HETATM   33  C   UNL     1      39.232  50.175  65.465  1.00  0.00     0.007 A 
HETATM   34  C   UNL     1      39.184  48.794  65.261  1.00  0.00     0.011 A 
ENDBRANCH   1  27
TORSDOF 6
ENDMDL
MODEL 9
REMARK VINA RESULT:      -8.2      9.435     13.782
REMARK  6 active torsions:
REMARK  status: ('A' for Active; 'I' for Inactive)
REMARK    1  A    between atoms: C_6  and  C_7 
REMARK    2  A    between atoms: N_8  and  N_9 
REMARK       I    between atoms: N_9  and  C_10 
REMARK    3  A    between atoms: C_10  and  C_11 
REMARK    4  A    between atoms: C_14  and  O_15 
REMARK    5  A    between atoms: O_15  and  C_16 
REMARK    6  A    between atoms: C_16  and  C_17 
ROOT
HETATM    1  C   UNL     1      18.443  50.801  45.405  1.00  0.00     0.217 C 
HETATM    2  N   UNL     1      17.765  49.555  45.780  1.00  0.00    -0.247 N 
HETATM    3  C   UNL     1      18.324  48.816  46.831  1.00  0.00     0.272 C 
HETATM    4  O   UNL     1      18.046  47.658  47.119  1.00  0.00    -0.266 OA
HETATM    5  C   UNL     1      19.279  49.550  47.698  1.00  0.00     0.054 A 
HETATM    6  C   UNL     1      19.324  50.947  47.579  1.00  0.00     0.026 A 
HETATM    7  N   UNL     1      18.525  51.623  46.619  1.00  0.00    -0.265 NA
HETATM    8  C   UNL     1      20.019  48.889  48.681  1.00  0.00     0.019 A 
HETATM    9  C   UNL     1      20.798  49.632  49.569  1.00  0.00     0.001 A 
HETATM   10  C   UNL     1      20.811  51.026  49.485  1.00  0.00     0.002 A 
HETATM   11  C   UNL     1      20.063  51.683  48.506  1.00  0.00     0.024 A 
HETATM   12  H   UNL     1      17.584  51.695  47.006  1.00  0.00     0.130 HD
ENDROOT
BRANCH   2  13
HETATM   13  N   UNL     1      16.302  49.555  45.659  1.00  0.00    -0.163 NA
HETATM   14  C   UNL     1      15.575  49.568  46.842  1.00  0.00     0.249 C 
HETATM   15  O   UNL     1      14.901  48.600  47.184  1.00  0.00    -0.272 OA
HETATM   16  H   UNL     1      15.996  48.730  45.145  1.00  0.00     0.156 HD
BRANCH  14  17
HETATM   17  C   UNL     1      15.508  50.817  47.621  1.00  0.00     0.028 A 
HETATM   18  C   UNL     1      15.994  50.856  48.931  1.00  0.00     0.019 A 
HETATM   19  C   UNL     1      15.944  52.053  49.648  1.00  0.00     0.038 A 
HETATM   20  C   UNL     1      15.404  53.207  49.070  1.00  0.00     0.069 A 
HETATM   21  C   UNL     1      14.948  53.168  47.748  1.00  0.00     0.038 A 
HETATM   22  C   UNL     1      15.013  51.977  47.018  1.00  0.00     0.019 A 
BRANCH  20  23
HETATM   23  O   UNL     1      15.398  54.306  49.886  1.00  0.00    -0.348 OA
BRANCH  23  24
HETATM   24  C   UNL     1      14.455  54.300  50.956  1.00  0.00     0.202 C 
BRANCH  24  25
HETATM   25  C   UNL     1      13.186  54.914  50.439  1.00  0.00    -0.011 C 
HETATM   26  C   UNL     1      12.076  54.229  50.132  1.00  0.00     0.009 C 
ENDBRANCH  24  25
ENDBRANCH  23  24
ENDBRANCH  20  23
ENDBRANCH  14  17
ENDBRANCH   2  13
BRANCH   1  27
HETATM   27  C   UNL     1      17.870  51.574  44.216  1.00  0.00    -0.014 A 
HETATM   28  C   UNL     1      18.055  51.130  42.884  1.00  0.00    -0.052 A 
HETATM   29  C   UNL     1      17.530  51.889  41.816  1.00  0.00     0.014 A 
HETATM   30  C   UNL     1      18.777  49.853  42.540  1.00  0.00     0.049 C 
HETATM   31  C   UNL     1      16.857  53.094  42.035  1.00  0.00    -0.061 A 
HETATM   32  C   UNL     1      16.379  53.923  40.880  1.00  0.00     0.048 C 
HETATM   33  C   UNL     1      16.708  53.551  43.341  1.00  0.00     0.007 A 
HETATM   34  C   UNL     1      17.199  52.801  44.411  1.00  0.00     0.011 A 
ENDBRANCH   1  27
TORSDOF 6
ENDMDL
MODEL 10
REMARK VINA RESULT:      -8.2      1.621      5.181
REMARK  6 active torsions:
REMARK  status: ('A' for Active; 'I' for Inactive)
REMARK    1  A    between atoms: C_6  and  C_7 
REMARK    2  A    between atoms: N_8  and  N_9 
REMARK       I    between atoms: N_9  and  C_10 
REMARK    3  A    between atoms: C_10  and  C_11 
REMARK    4  A    between atoms: C_14  and  O_15 
REMARK    5  A    between atoms: O_15  and  C_16 
REMARK    6  A    between atoms: C_16  and  C_17 
ROOT
HETATM    1  C   UNL     1      25.163  46.155  51.595  1.00  0.00     0.217 C 
HETATM    2  N   UNL     1      25.476  45.145  50.578  1.00  0.00    -0.247 N 
HETATM    3  C   UNL     1      24.630  45.079  49.463  1.00  0.00     0.272 C 
HETATM    4  O   UNL     1      24.590  44.164  48.649  1.00  0.00    -0.266 OA
HETATM    5  C   UNL     1      23.770  46.267  49.235  1.00  0.00     0.054 A 
HETATM    6  C   UNL     1      24.069  47.433  49.953  1.00  0.00     0.026 A 
HETATM    7  N   UNL     1      25.120  47.452  50.907  1.00  0.00    -0.265 NA
HETATM    8  C   UNL     1      22.777  46.263  48.253  1.00  0.00     0.019 A 
HETATM    9  C   UNL     1      22.086  47.442  47.972  1.00  0.00     0.001 A 
HETATM   10  C   UNL     1      22.410  48.618  48.651  1.00  0.00     0.002 A 
HETATM   11  C   UNL     1      23.411  48.619  49.626  1.00  0.00     0.024 A 
HETATM   12  H   UNL     1      25.995  47.556  50.393  1.00  0.00     0.130 HD
ENDROOT
BRANCH   2  13
HETATM   13  N   UNL     1      26.902  44.871  50.360  1.00  0.00    -0.163 NA
HETATM   14  C   UNL     1      27.402  43.691  50.895  1.00  0.00     0.249 C 
HETATM   15  O   UNL     1      28.209  43.706  51.821  1.00  0.00    -0.272 OA
HETATM   16  H   UNL     1      27.464  45.624  50.753  1.00  0.00     0.156 HD
BRANCH  14  17
HETATM   17  C   UNL     1      27.060  42.414  50.244  1.00  0.00     0.028 A 
HETATM   18  C   UNL     1      26.524  41.364  50.994  1.00  0.00     0.019 A 
HETATM   19  C   UNL     1      26.184  40.168  50.357  1.00  0.00     0.038 A 
HETATM   20  C   UNL     1      26.385  40.011  48.983  1.00  0.00     0.069 A 
HETATM   21  C   UNL     1      26.893  41.078  48.233  1.00  0.00     0.038 A 
HETATM   22  C   UNL     1      27.217  42.285  48.861  1.00  0.00     0.019 A 
BRANCH  20  23
HETATM   23  O   UNL     1      26.027  38.786  48.488  1.00  0.00    -0.348 OA
BRANCH  23  24
HETATM   24  C   UNL     1      26.698  38.355  47.306  1.00  0.00     0.202 C 
BRANCH  24  25
HETATM   25  C   UNL     1      27.803  37.431  47.728  1.00  0.00    -0.011 C 
HETATM   26  C   UNL     1      29.089  37.785  47.856  1.00  0.00     0.009 C 
ENDBRANCH  24  25
ENDBRANCH  23  24
ENDBRANCH  20  23
ENDBRANCH  14  17
ENDBRANCH   2  13
BRANCH   1  27
HETATM   27  C   UNL     1      26.048  46.185  52.842  1.00  0.00    -0.014 A 
HETATM   28  C   UNL     1      26.001  45.152  53.810  1.00  0.00    -0.052 A 
HETATM   29  C   UNL     1      26.818  45.234  54.957  1.00  0.00     0.014 A 
HETATM   30  C   UNL     1      25.124  43.936  53.666  1.00  0.00     0.049 C 
HETATM   31  C   UNL     1      27.654  46.331  55.185  1.00  0.00    -0.061 A 
HETATM   32  C   UNL     1      28.452  46.433  56.451  1.00  0.00     0.048 C 
HETATM   33  C   UNL     1      27.673  47.364  54.254  1.00  0.00     0.007 A 
HETATM   34  C   UNL     1      26.890  47.288  53.100  1.00  0.00     0.011 A 
ENDBRANCH   1  27
TORSDOF 6
ENDMDL
