MODEL 1
REMARK VINA RESULT:      -8.5      0.000      0.000
REMARK  7 active torsions:
REMARK  status: ('A' for Active; 'I' for Inactive)
REMARK       I    between atoms: C_2  and  N_3 
REMARK    1  A    between atoms: N_3  and  C_4 
REMARK    2  A    between atoms: C_7  and  N_8 
REMARK       I    between atoms: N_8  and  C_9 
REMARK    3  A    between atoms: C_9  and  C_10 
REMARK    4  A    between atoms: C_11  and  C_12 
REMARK    5  A    between atoms: C_13  and  O_14 
REMARK    6  A    between atoms: N_20  and  C_21 
REMARK    7  A    between atoms: C_24  and  O_25 
ROOT
HETATM    1  C   UNL     1      20.980  50.847  48.535  1.00  0.00     0.106 C 
HETATM    2  C   UNL     1      20.136  49.744  47.877  1.00  0.00     0.142 C 
HETATM    3  N   UNL     1      19.571  48.778  48.860  1.00  0.00    -0.308 N 
HETATM    4  C   UNL     1      19.074  49.229  50.094  1.00  0.00     0.225 C 
HETATM    5  O   UNL     1      18.243  48.631  50.777  1.00  0.00    -0.273 OA
HETATM    6  C   UNL     1      19.703  50.482  50.678  1.00  0.00     0.104 C 
HETATM    7  C   UNL     1      20.233  51.497  49.690  1.00  0.00     0.026 C 
ENDROOT
BRANCH   1   8
HETATM    8  C   UNL     1      22.378  50.389  48.970  1.00  0.00     0.228 C 
HETATM    9  N   UNL     1      22.766  49.148  48.500  1.00  0.00    -0.327 N 
HETATM   10  H   UNL     1      22.255  48.764  47.714  1.00  0.00     0.169 HD
HETATM   11  O   UNL     1      23.013  51.077  49.767  1.00  0.00    -0.273 OA
BRANCH   9  12
HETATM   12  C   UNL     1      23.790  48.321  49.007  1.00  0.00     0.034 A 
HETATM   13  C   UNL     1      25.118  48.716  49.148  1.00  0.00     0.032 A 
HETATM   14  C   UNL     1      26.056  47.870  49.760  1.00  0.00     0.032 A 
HETATM   15  C   UNL     1      25.680  46.618  50.241  1.00  0.00     0.034 A 
HETATM   16  C   UNL     1      24.354  46.208  50.070  1.00  0.00     0.032 A 
HETATM   17  C   UNL     1      23.417  47.051  49.460  1.00  0.00     0.032 A 
BRANCH  15  18
HETATM   18  N   UNL     1      26.549  45.736  50.917  1.00  0.00    -0.328 N 
HETATM   19  C   UNL     1      27.080  44.551  50.442  1.00  0.00     0.218 C 
HETATM   20  C   UNL     1      28.037  43.904  51.414  1.00  0.00     0.117 C 
HETATM   21  O   UNL     1      26.867  44.032  49.352  1.00  0.00    -0.274 OA
HETATM   22  H   UNL     1      26.838  46.030  51.842  1.00  0.00     0.169 HD
ENDBRANCH  15  18
ENDBRANCH   9  12
ENDBRANCH   1   8
BRANCH   2  23
HETATM   23  C   UNL     1      19.073  50.364  46.953  1.00  0.00    -0.001 A 
HETATM   24  C   UNL     1      18.755  49.733  45.728  1.00  0.00     0.076 A 
HETATM   25  C   UNL     1      17.840  50.326  44.851  1.00  0.00     0.037 A 
HETATM   26  C   UNL     1      17.227  51.535  45.177  1.00  0.00     0.003 A 
HETATM   27  C   UNL     1      17.517  52.157  46.384  1.00  0.00     0.001 A 
HETATM   28  C   UNL     1      18.430  51.577  47.266  1.00  0.00     0.012 A 
BRANCH  24  29
HETATM   29  O   UNL     1      19.399  48.547  45.484  1.00  0.00    -0.355 OA
HETATM   30  C   UNL     1      18.747  47.610  44.635  1.00  0.00     0.210 C 
ENDBRANCH  24  29
ENDBRANCH   2  23
BRANCH   3  31
HETATM   31  C   UNL     1      19.374  47.403  48.435  1.00  0.00     0.038 A 
HETATM   32  C   UNL     1      20.464  46.563  48.165  1.00  0.00     0.032 A 
HETATM   33  C   UNL     1      20.284  45.258  47.687  1.00  0.00     0.039 A 
HETATM   34  C   UNL     1      19.009  44.751  47.453  1.00  0.00     0.068 A 
HETATM   35  C   UNL     1      17.913  45.562  47.719  1.00  0.00     0.039 A 
HETATM   36  C   UNL     1      18.095  46.870  48.199  1.00  0.00     0.032 A 
BRANCH  34  37
HETATM   37  O   UNL     1      18.972  43.473  46.974  1.00  0.00    -0.356 OA
HETATM   38  C   UNL     1      19.738  43.200  45.808  1.00  0.00     0.210 C 
ENDBRANCH  34  37
ENDBRANCH   3  31
TORSDOF 7
ENDMDL
MODEL 2
REMARK VINA RESULT:      -8.1      4.338      8.876
REMARK  7 active torsions:
REMARK  status: ('A' for Active; 'I' for Inactive)
REMARK       I    between atoms: C_2  and  N_3 
REMARK    1  A    between atoms: N_3  and  C_4 
REMARK    2  A    between atoms: C_7  and  N_8 
REMARK       I    between atoms: N_8  and  C_9 
REMARK    3  A    between atoms: C_9  and  C_10 
REMARK    4  A    between atoms: C_11  and  C_12 
REMARK    5  A    between atoms: C_13  and  O_14 
REMARK    6  A    between atoms: N_20  and  C_21 
REMARK    7  A    between atoms: C_24  and  O_25 
ROOT
HETATM    1  C   UNL     1      16.410  50.732  47.756  1.00  0.00     0.106 C 
HETATM    2  C   UNL     1      17.881  50.485  47.385  1.00  0.00     0.142 C 
HETATM    3  N   UNL     1      18.530  49.449  48.237  1.00  0.00    -0.308 N 
HETATM    4  C   UNL     1      17.824  48.293  48.611  1.00  0.00     0.225 C 
HETATM    5  O   UNL     1      18.346  47.226  48.934  1.00  0.00    -0.273 OA
HETATM    6  C   UNL     1      16.316  48.414  48.743  1.00  0.00     0.104 C 
HETATM    7  C   UNL     1      15.637  49.424  47.845  1.00  0.00     0.026 C 
ENDROOT
BRANCH   1   8
HETATM    8  C   UNL     1      16.218  51.575  49.024  1.00  0.00     0.228 C 
HETATM    9  N   UNL     1      15.120  52.415  49.014  1.00  0.00    -0.327 N 
HETATM   10  H   UNL     1      14.393  52.229  48.334  1.00  0.00     0.169 HD
HETATM   11  O   UNL     1      17.075  51.534  49.904  1.00  0.00    -0.273 OA
BRANCH   9  12
HETATM   12  C   UNL     1      14.895  53.540  49.835  1.00  0.00     0.034 A 
HETATM   13  C   UNL     1      14.186  53.505  51.034  1.00  0.00     0.032 A 
HETATM   14  C   UNL     1      14.096  54.646  51.846  1.00  0.00     0.032 A 
HETATM   15  C   UNL     1      14.714  55.837  51.473  1.00  0.00     0.034 A 
HETATM   16  C   UNL     1      15.398  55.881  50.254  1.00  0.00     0.032 A 
HETATM   17  C   UNL     1      15.489  54.744  49.443  1.00  0.00     0.032 A 
BRANCH  15  18
HETATM   18  N   UNL     1      14.717  57.008  52.261  1.00  0.00    -0.328 N 
HETATM   19  C   UNL     1      15.378  57.213  53.458  1.00  0.00     0.218 C 
HETATM   20  C   UNL     1      15.220  58.620  53.983  1.00  0.00     0.117 C 
HETATM   21  O   UNL     1      16.059  56.401  54.073  1.00  0.00    -0.274 OA
HETATM   22  H   UNL     1      14.204  57.793  51.880  1.00  0.00     0.169 HD
ENDBRANCH  15  18
ENDBRANCH   9  12
ENDBRANCH   1   8
BRANCH   2  23
HETATM   23  C   UNL     1      18.013  50.204  45.878  1.00  0.00    -0.001 A 
HETATM   24  C   UNL     1      17.834  51.256  44.951  1.00  0.00     0.076 A 
HETATM   25  C   UNL     1      17.884  50.996  43.577  1.00  0.00     0.037 A 
HETATM   26  C   UNL     1      18.119  49.704  43.108  1.00  0.00     0.003 A 
HETATM   27  C   UNL     1      18.314  48.664  44.009  1.00  0.00     0.001 A 
HETATM   28  C   UNL     1      18.263  48.911  45.381  1.00  0.00     0.012 A 
BRANCH  24  29
HETATM   29  O   UNL     1      17.609  52.496  45.492  1.00  0.00    -0.355 OA
HETATM   30  C   UNL     1      16.483  53.225  45.017  1.00  0.00     0.210 C 
ENDBRANCH  24  29
ENDBRANCH   2  23
BRANCH   3  31
HETATM   31  C   UNL     1      19.952  49.573  48.504  1.00  0.00     0.038 A 
HETATM   32  C   UNL     1      20.451  50.603  49.315  1.00  0.00     0.032 A 
HETATM   33  C   UNL     1      21.828  50.773  49.521  1.00  0.00     0.039 A 
HETATM   34  C   UNL     1      22.751  49.925  48.916  1.00  0.00     0.068 A 
HETATM   35  C   UNL     1      22.281  48.894  48.113  1.00  0.00     0.039 A 
HETATM   36  C   UNL     1      20.901  48.724  47.909  1.00  0.00     0.032 A 
BRANCH  34  37
HETATM   37  O   UNL     1      24.060  50.207  49.186  1.00  0.00    -0.356 OA
HETATM   38  C   UNL     1      24.992  50.005  48.131  1.00  0.00     0.210 C 
ENDBRANCH  34  37
ENDBRANCH   3  31
TORSDOF 7
ENDMDL
MODEL 3
REMARK VINA RESULT:      -7.8      3.007      4.161
REMARK  7 active torsions:
REMARK  status: ('A' for Active; 'I' for Inactive)
REMARK       I    between atoms: C_2  and  N_3 
REMARK    1  A    between atoms: N_3  and  C_4 
REMARK    2  A    between atoms: C_7  and  N_8 
REMARK       I    between atoms: N_8  and  C_9 
REMARK    3  A    between atoms: C_9  and  C_10 
REMARK    4  A    between atoms: C_11  and  C_12 
REMARK    5  A    between atoms: C_13  and  O_14 
REMARK    6  A    between atoms: N_20  and  C_21 
REMARK    7  A    between atoms: C_24  and  O_25 
ROOT
HETATM    1  C   UNL     1      17.461  52.061  47.807  1.00  0.00     0.106 C 
HETATM    2  C   UNL     1      17.245  51.250  46.520  1.00  0.00     0.142 C 
HETATM    3  N   UNL     1      16.867  49.832  46.781  1.00  0.00    -0.308 N 
HETATM    4  C   UNL     1      15.978  49.515  47.823  1.00  0.00     0.225 C 
HETATM    5  O   UNL     1      15.293  48.494  47.873  1.00  0.00    -0.273 OA
HETATM    6  C   UNL     1      15.962  50.441  49.026  1.00  0.00     0.104 C 
HETATM    7  C   UNL     1      16.291  51.894  48.766  1.00  0.00     0.026 C 
ENDROOT
BRANCH   1   8
HETATM    8  C   UNL     1      18.795  51.777  48.509  1.00  0.00     0.228 C 
HETATM    9  N   UNL     1      19.813  51.337  47.685  1.00  0.00    -0.327 N 
HETATM   10  H   UNL     1      19.710  51.490  46.689  1.00  0.00     0.169 HD
HETATM   11  O   UNL     1      18.856  51.855  49.734  1.00  0.00    -0.273 OA
BRANCH   9  12
HETATM   12  C   UNL     1      20.992  50.661  48.065  1.00  0.00     0.034 A 
HETATM   13  C   UNL     1      21.275  49.336  47.738  1.00  0.00     0.032 A 
HETATM   14  C   UNL     1      22.517  48.768  48.062  1.00  0.00     0.032 A 
HETATM   15  C   UNL     1      23.494  49.515  48.716  1.00  0.00     0.034 A 
HETATM   16  C   UNL     1      23.198  50.835  49.073  1.00  0.00     0.032 A 
HETATM   17  C   UNL     1      21.960  51.403  48.750  1.00  0.00     0.032 A 
BRANCH  15  18
HETATM   18  N   UNL     1      24.784  49.035  49.024  1.00  0.00    -0.328 N 
HETATM   19  C   UNL     1      25.975  49.367  48.405  1.00  0.00     0.218 C 
HETATM   20  C   UNL     1      27.175  48.718  49.051  1.00  0.00     0.117 C 
HETATM   21  O   UNL     1      26.124  50.120  47.450  1.00  0.00    -0.274 OA
HETATM   22  H   UNL     1      24.838  48.402  49.812  1.00  0.00     0.169 HD
ENDBRANCH  15  18
ENDBRANCH   9  12
ENDBRANCH   1   8
BRANCH   2  23
HETATM   23  C   UNL     1      16.263  51.979  45.586  1.00  0.00    -0.001 A 
HETATM   24  C   UNL     1      16.637  52.251  44.250  1.00  0.00     0.076 A 
HETATM   25  C   UNL     1      15.778  52.974  43.414  1.00  0.00     0.037 A 
HETATM   26  C   UNL     1      14.545  53.424  43.885  1.00  0.00     0.003 A 
HETATM   27  C   UNL     1      14.158  53.148  45.190  1.00  0.00     0.001 A 
HETATM   28  C   UNL     1      15.007  52.431  46.033  1.00  0.00     0.012 A 
BRANCH  24  29
HETATM   29  O   UNL     1      17.864  51.772  43.866  1.00  0.00    -0.355 OA
HETATM   30  C   UNL     1      18.020  51.390  42.504  1.00  0.00     0.210 C 
ENDBRANCH  24  29
ENDBRANCH   2  23
BRANCH   3  31
HETATM   31  C   UNL     1      17.283  48.823  45.823  1.00  0.00     0.038 A 
HETATM   32  C   UNL     1      18.480  48.112  45.992  1.00  0.00     0.032 A 
HETATM   33  C   UNL     1      18.925  47.188  45.036  1.00  0.00     0.039 A 
HETATM   34  C   UNL     1      18.193  46.949  43.877  1.00  0.00     0.068 A 
HETATM   35  C   UNL     1      17.000  47.637  43.690  1.00  0.00     0.039 A 
HETATM   36  C   UNL     1      16.556  48.563  44.650  1.00  0.00     0.032 A 
BRANCH  34  37
HETATM   37  O   UNL     1      18.742  46.037  43.022  1.00  0.00    -0.356 OA
HETATM   38  C   UNL     1      20.162  45.980  42.967  1.00  0.00     0.210 C 
ENDBRANCH  34  37
ENDBRANCH   3  31
TORSDOF 7
ENDMDL
MODEL 4
REMARK VINA RESULT:      -7.8      4.742      9.462
REMARK  7 active torsions:
REMARK  status: ('A' for Active; 'I' for Inactive)
REMARK       I    between atoms: C_2  and  N_3 
REMARK    1  A    between atoms: N_3  and  C_4 
REMARK    2  A    between atoms: C_7  and  N_8 
REMARK       I    between atoms: N_8  and  C_9 
REMARK    3  A    between atoms: C_9  and  C_10 
REMARK    4  A    between atoms: C_11  and  C_12 
REMARK    5  A    between atoms: C_13  and  O_14 
REMARK    6  A    between atoms: N_20  and  C_21 
REMARK    7  A    between atoms: C_24  and  O_25 
ROOT
HETATM    1  C   UNL     1      15.246  52.115  44.873  1.00  0.00     0.106 C 
HETATM    2  C   UNL     1      16.751  51.927  45.121  1.00  0.00     0.142 C 
HETATM    3  N   UNL     1      17.045  50.921  46.181  1.00  0.00    -0.308 N 
HETATM    4  C   UNL     1      16.291  49.739  46.268  1.00  0.00     0.225 C 
HETATM    5  O   UNL     1      16.679  48.696  46.793  1.00  0.00    -0.273 OA
HETATM    6  C   UNL     1      14.851  49.800  45.789  1.00  0.00     0.104 C 
HETATM    7  C   UNL     1      14.548  50.778  44.676  1.00  0.00     0.026 C 
ENDROOT
BRANCH   1   8
HETATM    8  C   UNL     1      14.537  52.955  45.944  1.00  0.00     0.228 C 
HETATM    9  N   UNL     1      15.262  53.173  47.099  1.00  0.00    -0.327 N 
HETATM   10  H   UNL     1      16.263  53.018  47.062  1.00  0.00     0.169 HD
HETATM   11  O   UNL     1      13.368  53.290  45.764  1.00  0.00    -0.273 OA
BRANCH   9  12
HETATM   12  C   UNL     1      14.768  53.567  48.361  1.00  0.00     0.034 A 
HETATM   13  C   UNL     1      14.896  52.810  49.523  1.00  0.00     0.032 A 
HETATM   14  C   UNL     1      14.471  53.319  50.760  1.00  0.00     0.032 A 
HETATM   15  C   UNL     1      13.913  54.592  50.853  1.00  0.00     0.034 A 
HETATM   16  C   UNL     1      13.755  55.340  49.682  1.00  0.00     0.032 A 
HETATM   17  C   UNL     1      14.179  54.833  48.447  1.00  0.00     0.032 A 
BRANCH  15  18
HETATM   18  N   UNL     1      13.516  55.196  52.065  1.00  0.00    -0.328 N 
HETATM   19  C   UNL     1      14.237  56.090  52.835  1.00  0.00     0.218 C 
HETATM   20  C   UNL     1      13.464  56.593  54.031  1.00  0.00     0.117 C 
HETATM   21  O   UNL     1      15.372  56.499  52.621  1.00  0.00    -0.274 OA
HETATM   22  H   UNL     1      12.581  54.970  52.380  1.00  0.00     0.169 HD
ENDBRANCH  15  18
ENDBRANCH   9  12
ENDBRANCH   1   8
BRANCH   2  23
HETATM   23  C   UNL     1      17.480  51.644  43.795  1.00  0.00    -0.001 A 
HETATM   24  C   UNL     1      17.559  52.655  42.810  1.00  0.00     0.076 A 
HETATM   25  C   UNL     1      18.160  52.385  41.575  1.00  0.00     0.037 A 
HETATM   26  C   UNL     1      18.693  51.124  41.307  1.00  0.00     0.003 A 
HETATM   27  C   UNL     1      18.637  50.128  42.273  1.00  0.00     0.001 A 
HETATM   28  C   UNL     1      18.038  50.384  43.507  1.00  0.00     0.012 A 
BRANCH  24  29
HETATM   29  O   UNL     1      17.013  53.865  43.153  1.00  0.00    -0.355 OA
HETATM   30  C   UNL     1      16.013  54.400  42.292  1.00  0.00     0.210 C 
ENDBRANCH  24  29
ENDBRANCH   2  23
BRANCH   3  31
HETATM   31  C   UNL     1      18.240  51.104  46.987  1.00  0.00     0.038 A 
HETATM   32  C   UNL     1      19.406  50.367  46.733  1.00  0.00     0.032 A 
HETATM   33  C   UNL     1      20.540  50.485  47.549  1.00  0.00     0.039 A 
HETATM   34  C   UNL     1      20.544  51.336  48.650  1.00  0.00     0.068 A 
HETATM   35  C   UNL     1      19.402  52.082  48.918  1.00  0.00     0.039 A 
HETATM   36  C   UNL     1      18.267  51.962  48.098  1.00  0.00     0.032 A 
BRANCH  34  37
HETATM   37  O   UNL     1      21.704  51.348  49.370  1.00  0.00    -0.356 OA
HETATM   38  C   UNL     1      22.894  50.990  48.679  1.00  0.00     0.210 C 
ENDBRANCH  34  37
ENDBRANCH   3  31
TORSDOF 7
ENDMDL
MODEL 5
REMARK VINA RESULT:      -7.7      4.000      8.946
REMARK  7 active torsions:
REMARK  status: ('A' for Active; 'I' for Inactive)
REMARK       I    between atoms: C_2  and  N_3 
REMARK    1  A    between atoms: N_3  and  C_4 
REMARK    2  A    between atoms: C_7  and  N_8 
REMARK       I    between atoms: N_8  and  C_9 
REMARK    3  A    between atoms: C_9  and  C_10 
REMARK    4  A    between atoms: C_11  and  C_12 
REMARK    5  A    between atoms: C_13  and  O_14 
REMARK    6  A    between atoms: N_20  and  C_21 
REMARK    7  A    between atoms: C_24  and  O_25 
ROOT
HETATM    1  C   UNL     1      17.150  50.153  47.321  1.00  0.00     0.106 C 
HETATM    2  C   UNL     1      18.601  49.837  46.926  1.00  0.00     0.142 C 
HETATM    3  N   UNL     1      19.402  49.275  48.051  1.00  0.00    -0.308 N 
HETATM    4  C   UNL     1      18.828  48.350  48.938  1.00  0.00     0.225 C 
HETATM    5  O   UNL     1      19.461  47.536  49.610  1.00  0.00    -0.273 OA
HETATM    6  C   UNL     1      17.331  48.451  49.172  1.00  0.00     0.104 C 
HETATM    7  C   UNL     1      16.499  48.969  48.020  1.00  0.00     0.026 C 
ENDROOT
BRANCH   1   8
HETATM    8  C   UNL     1      16.992  51.437  48.146  1.00  0.00     0.228 C 
HETATM    9  N   UNL     1      15.756  51.611  48.737  1.00  0.00    -0.327 N 
HETATM   10  H   UNL     1      15.157  50.798  48.822  1.00  0.00     0.169 HD
HETATM   11  O   UNL     1      17.906  52.259  48.153  1.00  0.00    -0.273 OA
BRANCH   9  12
HETATM   12  C   UNL     1      15.199  52.813  49.223  1.00  0.00     0.034 A 
HETATM   13  C   UNL     1      15.253  53.218  50.556  1.00  0.00     0.032 A 
HETATM   14  C   UNL     1      14.770  54.478  50.941  1.00  0.00     0.032 A 
HETATM   15  C   UNL     1      14.226  55.351  50.002  1.00  0.00     0.034 A 
HETATM   16  C   UNL     1      14.142  54.932  48.670  1.00  0.00     0.032 A 
HETATM   17  C   UNL     1      14.625  53.675  48.284  1.00  0.00     0.032 A 
BRANCH  15  18
HETATM   18  N   UNL     1      13.772  56.653  50.300  1.00  0.00    -0.328 N 
HETATM   19  C   UNL     1      14.541  57.778  50.536  1.00  0.00     0.218 C 
HETATM   20  C   UNL     1      13.714  59.023  50.746  1.00  0.00     0.117 C 
HETATM   21  O   UNL     1      15.765  57.842  50.561  1.00  0.00    -0.274 OA
HETATM   22  H   UNL     1      12.768  56.776  50.305  1.00  0.00     0.169 HD
ENDBRANCH  15  18
ENDBRANCH   9  12
ENDBRANCH   1   8
BRANCH   2  23
HETATM   23  C   UNL     1      18.633  48.961  45.660  1.00  0.00    -0.001 A 
HETATM   24  C   UNL     1      18.263  49.518  44.414  1.00  0.00     0.076 A 
HETATM   25  C   UNL     1      18.223  48.712  43.271  1.00  0.00     0.037 A 
HETATM   26  C   UNL     1      18.554  47.359  43.345  1.00  0.00     0.003 A 
HETATM   27  C   UNL     1      18.935  46.804  44.560  1.00  0.00     0.001 A 
HETATM   28  C   UNL     1      18.976  47.597  45.708  1.00  0.00     0.012 A 
BRANCH  24  29
HETATM   29  O   UNL     1      17.954  50.854  44.426  1.00  0.00    -0.355 OA
HETATM   30  C   UNL     1      17.924  51.530  43.175  1.00  0.00     0.210 C 
ENDBRANCH  24  29
ENDBRANCH   2  23
BRANCH   3  31
HETATM   31  C   UNL     1      20.826  49.559  48.087  1.00  0.00     0.038 A 
HETATM   32  C   UNL     1      21.773  48.530  47.977  1.00  0.00     0.032 A 
HETATM   33  C   UNL     1      23.148  48.785  48.081  1.00  0.00     0.039 A 
HETATM   34  C   UNL     1      23.621  50.074  48.309  1.00  0.00     0.068 A 
HETATM   35  C   UNL     1      22.702  51.110  48.415  1.00  0.00     0.039 A 
HETATM   36  C   UNL     1      21.324  50.853  48.309  1.00  0.00     0.032 A 
BRANCH  34  37
HETATM   37  O   UNL     1      24.979  50.185  48.405  1.00  0.00    -0.356 OA
HETATM   38  C   UNL     1      25.680  49.064  48.927  1.00  0.00     0.210 C 
ENDBRANCH  34  37
ENDBRANCH   3  31
TORSDOF 7
ENDMDL
MODEL 6
REMARK VINA RESULT:      -7.7     14.692     19.377
REMARK  7 active torsions:
REMARK  status: ('A' for Active; 'I' for Inactive)
REMARK       I    between atoms: C_2  and  N_3 
REMARK    1  A    between atoms: N_3  and  C_4 
REMARK    2  A    between atoms: C_7  and  N_8 
REMARK       I    between atoms: N_8  and  C_9 
REMARK    3  A    between atoms: C_9  and  C_10 
REMARK    4  A    between atoms: C_11  and  C_12 
REMARK    5  A    between atoms: C_13  and  O_14 
REMARK    6  A    between atoms: N_20  and  C_21 
REMARK    7  A    between atoms: C_24  and  O_25 
ROOT
HETATM    1  C   UNL     1      38.820  53.869  43.857  1.00  0.00     0.106 C 
HETATM    2  C   UNL     1      39.512  52.699  44.575  1.00  0.00     0.142 C 
HETATM    3  N   UNL     1      40.085  51.694  43.634  1.00  0.00    -0.308 N 
HETATM    4  C   UNL     1      40.725  52.111  42.455  1.00  0.00     0.225 C 
HETATM    5  O   UNL     1      41.564  51.452  41.842  1.00  0.00    -0.273 OA
HETATM    6  C   UNL     1      40.252  53.413  41.832  1.00  0.00     0.104 C 
HETATM    7  C   UNL     1      39.718  54.462  42.782  1.00  0.00     0.026 C 
ENDROOT
BRANCH   1   8
HETATM    8  C   UNL     1      37.435  53.525  43.293  1.00  0.00     0.228 C 
HETATM    9  N   UNL     1      36.877  52.355  43.770  1.00  0.00    -0.327 N 
HETATM   10  H   UNL     1      37.262  51.964  44.622  1.00  0.00     0.169 HD
HETATM   11  O   UNL     1      36.960  54.230  42.405  1.00  0.00    -0.273 OA
BRANCH   9  12
HETATM   12  C   UNL     1      35.832  51.605  43.190  1.00  0.00     0.034 A 
HETATM   13  C   UNL     1      34.489  51.738  43.536  1.00  0.00     0.032 A 
HETATM   14  C   UNL     1      33.497  51.031  42.838  1.00  0.00     0.032 A 
HETATM   15  C   UNL     1      33.833  50.184  41.784  1.00  0.00     0.034 A 
HETATM   16  C   UNL     1      35.184  50.026  41.459  1.00  0.00     0.032 A 
HETATM   17  C   UNL     1      36.175  50.730  42.154  1.00  0.00     0.032 A 
BRANCH  15  18
HETATM   18  N   UNL     1      32.891  49.485  40.999  1.00  0.00    -0.328 N 
HETATM   19  C   UNL     1      32.634  48.127  41.006  1.00  0.00     0.218 C 
HETATM   20  C   UNL     1      31.501  47.738  40.087  1.00  0.00     0.117 C 
HETATM   21  O   UNL     1      33.201  47.272  41.678  1.00  0.00    -0.274 OA
HETATM   22  H   UNL     1      32.321  50.057  40.389  1.00  0.00     0.169 HD
ENDBRANCH  15  18
ENDBRANCH   9  12
ENDBRANCH   1   8
BRANCH   2  23
HETATM   23  C   UNL     1      40.534  53.226  45.598  1.00  0.00    -0.001 A 
HETATM   24  C   UNL     1      40.141  53.426  46.941  1.00  0.00     0.076 A 
HETATM   25  C   UNL     1      41.044  53.970  47.862  1.00  0.00     0.037 A 
HETATM   26  C   UNL     1      42.337  54.312  47.468  1.00  0.00     0.003 A 
HETATM   27  C   UNL     1      42.741  54.105  46.156  1.00  0.00     0.001 A 
HETATM   28  C   UNL     1      41.849  53.566  45.228  1.00  0.00     0.012 A 
BRANCH  24  29
HETATM   29  O   UNL     1      38.854  53.063  47.246  1.00  0.00    -0.355 OA
HETATM   30  C   UNL     1      38.158  53.858  48.199  1.00  0.00     0.210 C 
ENDBRANCH  24  29
ENDBRANCH   2  23
BRANCH   3  31
HETATM   31  C   UNL     1      40.133  50.306  44.058  1.00  0.00     0.038 A 
HETATM   32  C   UNL     1      38.995  49.489  43.998  1.00  0.00     0.032 A 
HETATM   33  C   UNL     1      39.014  48.169  44.471  1.00  0.00     0.039 A 
HETATM   34  C   UNL     1      40.168  47.625  45.028  1.00  0.00     0.068 A 
HETATM   35  C   UNL     1      41.310  48.414  45.093  1.00  0.00     0.039 A 
HETATM   36  C   UNL     1      41.289  49.737  44.618  1.00  0.00     0.032 A 
BRANCH  34  37
HETATM   37  O   UNL     1      40.050  46.337  45.463  1.00  0.00    -0.356 OA
HETATM   38  C   UNL     1      41.191  45.760  46.084  1.00  0.00     0.210 C 
ENDBRANCH  34  37
ENDBRANCH   3  31
TORSDOF 7
ENDMDL
MODEL 7
REMARK VINA RESULT:      -7.6      3.354      5.499
REMARK  7 active torsions:
REMARK  status: ('A' for Active; 'I' for Inactive)
REMARK       I    between atoms: C_2  and  N_3 
REMARK    1  A    between atoms: N_3  and  C_4 
REMARK    2  A    between atoms: C_7  and  N_8 
REMARK       I    between atoms: N_8  and  C_9 
REMARK    3  A    between atoms: C_9  and  C_10 
REMARK    4  A    between atoms: C_11  and  C_12 
REMARK    5  A    between atoms: C_13  and  O_14 
REMARK    6  A    between atoms: N_20  and  C_21 
REMARK    7  A    between atoms: C_24  and  O_25 
ROOT
HETATM    1  C   UNL     1      17.442  51.462  47.423  1.00  0.00     0.106 C 
HETATM    2  C   UNL     1      16.544  51.497  46.176  1.00  0.00     0.142 C 
HETATM    3  N   UNL     1      15.883  50.191  45.897  1.00  0.00    -0.308 N 
HETATM    4  C   UNL     1      15.381  49.410  46.951  1.00  0.00     0.225 C 
HETATM    5  O   UNL     1      14.490  48.568  46.837  1.00  0.00    -0.273 OA
HETATM    6  C   UNL     1      16.078  49.529  48.295  1.00  0.00     0.104 C 
HETATM    7  C   UNL     1      16.707  50.867  48.615  1.00  0.00     0.026 C 
ENDROOT
BRANCH   1   8
HETATM    8  C   UNL     1      18.791  50.764  47.202  1.00  0.00     0.228 C 
HETATM    9  N   UNL     1      19.524  50.519  48.348  1.00  0.00    -0.327 N 
HETATM   10  H   UNL     1      19.035  50.554  49.234  1.00  0.00     0.169 HD
HETATM   11  O   UNL     1      19.178  50.560  46.053  1.00  0.00    -0.273 OA
BRANCH   9  12
HETATM   12  C   UNL     1      20.906  50.248  48.440  1.00  0.00     0.034 A 
HETATM   13  C   UNL     1      21.885  51.224  48.613  1.00  0.00     0.032 A 
HETATM   14  C   UNL     1      23.228  50.864  48.803  1.00  0.00     0.032 A 
HETATM   15  C   UNL     1      23.612  49.525  48.823  1.00  0.00     0.034 A 
HETATM   16  C   UNL     1      22.634  48.547  48.617  1.00  0.00     0.032 A 
HETATM   17  C   UNL     1      21.293  48.904  48.428  1.00  0.00     0.032 A 
BRANCH  15  18
HETATM   18  N   UNL     1      24.930  49.082  49.064  1.00  0.00    -0.328 N 
HETATM   19  C   UNL     1      26.075  49.439  48.377  1.00  0.00     0.218 C 
HETATM   20  C   UNL     1      27.327  48.829  48.963  1.00  0.00     0.117 C 
HETATM   21  O   UNL     1      26.151  50.185  47.408  1.00  0.00    -0.274 OA
HETATM   22  H   UNL     1      25.044  48.460  49.854  1.00  0.00     0.169 HD
ENDBRANCH  15  18
ENDBRANCH   9  12
ENDBRANCH   1   8
BRANCH   2  23
HETATM   23  C   UNL     1      15.555  52.674  46.263  1.00  0.00    -0.001 A 
HETATM   24  C   UNL     1      15.350  53.500  45.135  1.00  0.00     0.076 A 
HETATM   25  C   UNL     1      14.506  54.613  45.225  1.00  0.00     0.037 A 
HETATM   26  C   UNL     1      13.852  54.911  46.421  1.00  0.00     0.003 A 
HETATM   27  C   UNL     1      14.032  54.097  47.531  1.00  0.00     0.001 A 
HETATM   28  C   UNL     1      14.874  52.987  47.454  1.00  0.00     0.012 A 
BRANCH  24  29
HETATM   29  O   UNL     1      16.027  53.138  43.998  1.00  0.00    -0.355 OA
HETATM   30  C   UNL     1      15.371  53.339  42.752  1.00  0.00     0.210 C 
ENDBRANCH  24  29
ENDBRANCH   2  23
BRANCH   3  31
HETATM   31  C   UNL     1      15.604  49.846  44.514  1.00  0.00     0.038 A 
HETATM   32  C   UNL     1      16.626  49.427  43.650  1.00  0.00     0.032 A 
HETATM   33  C   UNL     1      16.379  49.160  42.296  1.00  0.00     0.039 A 
HETATM   34  C   UNL     1      15.104  49.311  41.758  1.00  0.00     0.068 A 
HETATM   35  C   UNL     1      14.073  49.718  42.596  1.00  0.00     0.039 A 
HETATM   36  C   UNL     1      14.323  49.985  43.954  1.00  0.00     0.032 A 
BRANCH  34  37
HETATM   37  O   UNL     1      15.000  49.033  40.426  1.00  0.00    -0.356 OA
HETATM   38  C   UNL     1      16.139  48.460  39.797  1.00  0.00     0.210 C 
ENDBRANCH  34  37
ENDBRANCH   3  31
TORSDOF 7
ENDMDL
MODEL 8
REMARK VINA RESULT:      -7.5      2.372      4.594
REMARK  7 active torsions:
REMARK  status: ('A' for Active; 'I' for Inactive)
REMARK       I    between atoms: C_2  and  N_3 
REMARK    1  A    between atoms: N_3  and  C_4 
REMARK    2  A    between atoms: C_7  and  N_8 
REMARK       I    between atoms: N_8  and  C_9 
REMARK    3  A    between atoms: C_9  and  C_10 
REMARK    4  A    between atoms: C_11  and  C_12 
REMARK    5  A    between atoms: C_13  and  O_14 
REMARK    6  A    between atoms: N_20  and  C_21 
REMARK    7  A    between atoms: C_24  and  O_25 
ROOT
HETATM    1  C   UNL     1      19.957  48.021  48.537  1.00  0.00     0.106 C 
HETATM    2  C   UNL     1      19.399  49.020  47.512  1.00  0.00     0.142 C 
HETATM    3  N   UNL     1      18.495  48.384  46.511  1.00  0.00    -0.308 N 
HETATM    4  C   UNL     1      17.584  47.390  46.908  1.00  0.00     0.225 C 
HETATM    5  O   UNL     1      16.551  47.105  46.304  1.00  0.00    -0.273 OA
HETATM    6  C   UNL     1      17.974  46.528  48.096  1.00  0.00     0.104 C 
HETATM    7  C   UNL     1      18.847  47.178  49.146  1.00  0.00     0.026 C 
ENDROOT
BRANCH   1   8
HETATM    8  C   UNL     1      21.088  47.136  47.996  1.00  0.00     0.228 C 
HETATM    9  N   UNL     1      21.475  46.099  48.823  1.00  0.00    -0.327 N 
HETATM   10  H   UNL     1      20.838  45.827  49.563  1.00  0.00     0.169 HD
HETATM   11  O   UNL     1      21.638  47.447  46.941  1.00  0.00    -0.273 OA
BRANCH   9  12
HETATM   12  C   UNL     1      22.684  45.374  48.781  1.00  0.00     0.034 A 
HETATM   13  C   UNL     1      23.892  45.836  49.299  1.00  0.00     0.032 A 
HETATM   14  C   UNL     1      25.028  45.011  49.313  1.00  0.00     0.032 A 
HETATM   15  C   UNL     1      24.972  43.713  48.812  1.00  0.00     0.034 A 
HETATM   16  C   UNL     1      23.768  43.260  48.263  1.00  0.00     0.032 A 
HETATM   17  C   UNL     1      22.634  44.082  48.248  1.00  0.00     0.032 A 
BRANCH  15  18
HETATM   18  N   UNL     1      26.051  42.804  48.843  1.00  0.00    -0.328 N 
HETATM   19  C   UNL     1      26.500  42.069  49.925  1.00  0.00     0.218 C 
HETATM   20  C   UNL     1      27.633  41.136  49.572  1.00  0.00     0.117 C 
HETATM   21  O   UNL     1      26.059  42.095  51.068  1.00  0.00    -0.274 OA
HETATM   22  H   UNL     1      26.522  42.655  47.960  1.00  0.00     0.169 HD
ENDBRANCH  15  18
ENDBRANCH   9  12
ENDBRANCH   1   8
BRANCH   2  23
HETATM   23  C   UNL     1      18.761  50.223  48.229  1.00  0.00    -0.001 A 
HETATM   24  C   UNL     1      19.574  51.305  48.639  1.00  0.00     0.076 A 
HETATM   25  C   UNL     1      19.014  52.371  49.353  1.00  0.00     0.037 A 
HETATM   26  C   UNL     1      17.654  52.382  49.659  1.00  0.00     0.003 A 
HETATM   27  C   UNL     1      16.841  51.334  49.247  1.00  0.00     0.001 A 
HETATM   28  C   UNL     1      17.388  50.264  48.537  1.00  0.00     0.012 A 
BRANCH  24  29
HETATM   29  O   UNL     1      20.899  51.218  48.298  1.00  0.00    -0.355 OA
HETATM   30  C   UNL     1      21.831  50.974  49.345  1.00  0.00     0.210 C 
ENDBRANCH  24  29
ENDBRANCH   2  23
BRANCH   3  31
HETATM   31  C   UNL     1      18.446  48.949  45.174  1.00  0.00     0.038 A 
HETATM   32  C   UNL     1      18.619  48.143  44.039  1.00  0.00     0.032 A 
HETATM   33  C   UNL     1      18.644  48.690  42.749  1.00  0.00     0.039 A 
HETATM   34  C   UNL     1      18.507  50.060  42.549  1.00  0.00     0.068 A 
HETATM   35  C   UNL     1      18.329  50.879  43.658  1.00  0.00     0.039 A 
HETATM   36  C   UNL     1      18.303  50.329  44.951  1.00  0.00     0.032 A 
BRANCH  34  37
HETATM   37  O   UNL     1      18.564  50.465  41.247  1.00  0.00    -0.356 OA
HETATM   38  C   UNL     1      19.329  51.631  40.968  1.00  0.00     0.210 C 
ENDBRANCH  34  37
ENDBRANCH   3  31
TORSDOF 7
ENDMDL
MODEL 9
REMARK VINA RESULT:      -7.3      8.188     11.331
REMARK  7 active torsions:
REMARK  status: ('A' for Active; 'I' for Inactive)
REMARK       I    between atoms: C_2  and  N_3 
REMARK    1  A    between atoms: N_3  and  C_4 
REMARK    2  A    between atoms: C_7  and  N_8 
REMARK       I    between atoms: N_8  and  C_9 
REMARK    3  A    between atoms: C_9  and  C_10 
REMARK    4  A    between atoms: C_11  and  C_12 
REMARK    5  A    between atoms: C_13  and  O_14 
REMARK    6  A    between atoms: N_20  and  C_21 
REMARK    7  A    between atoms: C_24  and  O_25 
ROOT
HETATM    1  C   UNL     1      26.486  39.421  49.047  1.00  0.00     0.106 C 
HETATM    2  C   UNL     1      26.433  39.494  47.512  1.00  0.00     0.142 C 
HETATM    3  N   UNL     1      27.640  38.912  46.859  1.00  0.00    -0.308 N 
HETATM    4  C   UNL     1      28.224  37.738  47.364  1.00  0.00     0.225 C 
HETATM    5  O   UNL     1      28.922  36.964  46.709  1.00  0.00    -0.273 OA
HETATM    6  C   UNL     1      28.083  37.479  48.854  1.00  0.00     0.104 C 
HETATM    7  C   UNL     1      26.836  38.017  49.519  1.00  0.00     0.026 C 
ENDROOT
BRANCH   1   8
HETATM    8  C   UNL     1      27.406  40.466  49.691  1.00  0.00     0.228 C 
HETATM    9  N   UNL     1      27.376  40.508  51.072  1.00  0.00    -0.327 N 
HETATM   10  H   UNL     1      26.989  39.707  51.557  1.00  0.00     0.169 HD
HETATM   11  O   UNL     1      28.019  41.249  48.969  1.00  0.00    -0.273 OA
BRANCH   9  12
HETATM   12  C   UNL     1      27.801  41.563  51.907  1.00  0.00     0.034 A 
HETATM   13  C   UNL     1      27.611  42.913  51.620  1.00  0.00     0.032 A 
HETATM   14  C   UNL     1      27.968  43.900  52.553  1.00  0.00     0.032 A 
HETATM   15  C   UNL     1      28.519  43.552  53.784  1.00  0.00     0.034 A 
HETATM   16  C   UNL     1      28.740  42.198  54.058  1.00  0.00     0.032 A 
HETATM   17  C   UNL     1      28.384  41.212  53.129  1.00  0.00     0.032 A 
BRANCH  15  18
HETATM   18  N   UNL     1      28.850  44.480  54.794  1.00  0.00    -0.328 N 
HETATM   19  C   UNL     1      30.022  44.543  55.525  1.00  0.00     0.218 C 
HETATM   20  C   UNL     1      30.062  45.719  56.471  1.00  0.00     0.117 C 
HETATM   21  O   UNL     1      30.980  43.782  55.450  1.00  0.00    -0.274 OA
HETATM   22  H   UNL     1      28.159  45.197  54.973  1.00  0.00     0.169 HD
ENDBRANCH  15  18
ENDBRANCH   9  12
ENDBRANCH   1   8
BRANCH   2  23
HETATM   23  C   UNL     1      25.113  38.896  46.993  1.00  0.00    -0.001 A 
HETATM   24  C   UNL     1      23.954  39.703  46.936  1.00  0.00     0.076 A 
HETATM   25  C   UNL     1      22.734  39.150  46.530  1.00  0.00     0.037 A 
HETATM   26  C   UNL     1      22.651  37.805  46.171  1.00  0.00     0.003 A 
HETATM   27  C   UNL     1      23.786  37.006  46.206  1.00  0.00     0.001 A 
HETATM   28  C   UNL     1      25.007  37.545  46.611  1.00  0.00     0.012 A 
BRANCH  24  29
HETATM   29  O   UNL     1      24.121  41.014  47.304  1.00  0.00    -0.355 OA
HETATM   30  C   UNL     1      23.344  41.491  48.395  1.00  0.00     0.210 C 
ENDBRANCH  24  29
ENDBRANCH   2  23
BRANCH   3  31
HETATM   31  C   UNL     1      28.073  39.474  45.592  1.00  0.00     0.038 A 
HETATM   32  C   UNL     1      28.491  40.810  45.496  1.00  0.00     0.032 A 
HETATM   33  C   UNL     1      28.843  41.381  44.265  1.00  0.00     0.039 A 
HETATM   34  C   UNL     1      28.780  40.641  43.089  1.00  0.00     0.068 A 
HETATM   35  C   UNL     1      28.375  39.314  43.159  1.00  0.00     0.039 A 
HETATM   36  C   UNL     1      28.023  38.742  44.394  1.00  0.00     0.032 A 
BRANCH  34  37
HETATM   37  O   UNL     1      29.135  41.318  41.958  1.00  0.00    -0.356 OA
HETATM   38  C   UNL     1      28.415  41.010  40.771  1.00  0.00     0.210 C 
ENDBRANCH  34  37
ENDBRANCH   3  31
TORSDOF 7
ENDMDL
MODEL 10
REMARK VINA RESULT:      -7.3      3.266      7.393
REMARK  7 active torsions:
REMARK  status: ('A' for Active; 'I' for Inactive)
REMARK       I    between atoms: C_2  and  N_3 
REMARK    1  A    between atoms: N_3  and  C_4 
REMARK    2  A    between atoms: C_7  and  N_8 
REMARK       I    between atoms: N_8  and  C_9 
REMARK    3  A    between atoms: C_9  and  C_10 
REMARK    4  A    between atoms: C_11  and  C_12 
REMARK    5  A    between atoms: C_13  and  O_14 
REMARK    6  A    between atoms: N_20  and  C_21 
REMARK    7  A    between atoms: C_24  and  O_25 
ROOT
HETATM    1  C   UNL     1      18.807  47.258  48.215  1.00  0.00     0.106 C 
HETATM    2  C   UNL     1      19.191  48.236  47.094  1.00  0.00     0.142 C 
HETATM    3  N   UNL     1      18.011  48.779  46.363  1.00  0.00    -0.308 N 
HETATM    4  C   UNL     1      16.842  49.126  47.060  1.00  0.00     0.225 C 
HETATM    5  O   UNL     1      16.002  49.933  46.663  1.00  0.00    -0.273 OA
HETATM    6  C   UNL     1      16.540  48.357  48.334  1.00  0.00     0.104 C 
HETATM    7  C   UNL     1      17.731  47.847  49.115  1.00  0.00     0.026 C 
ENDROOT
BRANCH   1   8
HETATM    8  C   UNL     1      18.406  45.863  47.716  1.00  0.00     0.228 C 
HETATM    9  N   UNL     1      19.018  45.456  46.546  1.00  0.00    -0.327 N 
HETATM   10  H   UNL     1      19.855  45.950  46.258  1.00  0.00     0.169 HD
HETATM   11  O   UNL     1      17.520  45.249  48.306  1.00  0.00    -0.273 OA
BRANCH   9  12
HETATM   12  C   UNL     1      18.599  44.433  45.670  1.00  0.00     0.034 A 
HETATM   13  C   UNL     1      17.341  44.383  45.071  1.00  0.00     0.032 A 
HETATM   14  C   UNL     1      17.037  43.389  44.127  1.00  0.00     0.032 A 
HETATM   15  C   UNL     1      17.985  42.433  43.768  1.00  0.00     0.034 A 
HETATM   16  C   UNL     1      19.235  42.464  44.394  1.00  0.00     0.032 A 
HETATM   17  C   UNL     1      19.540  43.455  45.335  1.00  0.00     0.032 A 
BRANCH  15  18
HETATM   18  N   UNL     1      17.775  41.439  42.789  1.00  0.00    -0.328 N 
HETATM   19  C   UNL     1      17.626  40.079  42.990  1.00  0.00     0.218 C 
HETATM   20  C   UNL     1      17.339  39.324  41.714  1.00  0.00     0.117 C 
HETATM   21  O   UNL     1      17.681  39.481  44.058  1.00  0.00    -0.274 OA
HETATM   22  H   UNL     1      17.691  41.774  41.837  1.00  0.00     0.169 HD
ENDBRANCH  15  18
ENDBRANCH   9  12
ENDBRANCH   1   8
BRANCH   2  23
HETATM   23  C   UNL     1      20.126  49.332  47.638  1.00  0.00    -0.001 A 
HETATM   24  C   UNL     1      21.511  49.076  47.757  1.00  0.00     0.076 A 
HETATM   25  C   UNL     1      22.357  50.041  48.314  1.00  0.00     0.037 A 
HETATM   26  C   UNL     1      21.848  51.265  48.749  1.00  0.00     0.003 A 
HETATM   27  C   UNL     1      20.491  51.536  48.621  1.00  0.00     0.001 A 
HETATM   28  C   UNL     1      19.637  50.580  48.070  1.00  0.00     0.012 A 
BRANCH  24  29
HETATM   29  O   UNL     1      21.932  47.851  47.306  1.00  0.00    -0.355 OA
HETATM   30  C   UNL     1      22.526  46.972  48.254  1.00  0.00     0.210 C 
ENDBRANCH  24  29
ENDBRANCH   2  23
BRANCH   3  31
HETATM   31  C   UNL     1      18.169  49.114  44.959  1.00  0.00     0.038 A 
HETATM   32  C   UNL     1      18.141  48.121  43.968  1.00  0.00     0.032 A 
HETATM   33  C   UNL     1      18.363  48.426  42.618  1.00  0.00     0.039 A 
HETATM   34  C   UNL     1      18.629  49.730  42.213  1.00  0.00     0.068 A 
HETATM   35  C   UNL     1      18.655  50.732  43.176  1.00  0.00     0.039 A 
HETATM   36  C   UNL     1      18.432  50.425  44.529  1.00  0.00     0.032 A 
BRANCH  34  37
HETATM   37  O   UNL     1      18.841  49.890  40.874  1.00  0.00    -0.356 OA
HETATM   38  C   UNL     1      19.125  51.208  40.421  1.00  0.00     0.210 C 
ENDBRANCH  34  37
ENDBRANCH   3  31
TORSDOF 7
ENDMDL
