MODEL 1
REMARK VINA RESULT:      -8.7      0.000      0.000
REMARK  3 active torsions:
REMARK  status: ('A' for Active; 'I' for Inactive)
REMARK    1  A    between atoms: C_3  and  N_4 
REMARK    2  A    between atoms: C_3  and  C_17 
REMARK       I    between atoms: N_4  and  C_5 
REMARK    3  A    between atoms: C_5  and  C_6 
ROOT
HETATM    1  N   UNL     1      25.836  46.549  51.653  1.00  0.00    -0.306 N 
HETATM    2  C   UNL     1      25.725  45.601  52.656  1.00  0.00     0.275 C 
HETATM    3  O   UNL     1      24.791  44.817  52.780  1.00  0.00    -0.266 OA
HETATM    4  H   UNL     1      26.680  47.108  51.708  1.00  0.00     0.170 HD
ENDROOT
BRANCH   2   5
HETATM    5  C   UNL     1      26.876  45.618  53.610  1.00  0.00     0.125 A 
HETATM    6  N   UNL     1      27.671  44.509  53.584  1.00  0.00    -0.243 NA
HETATM    7  C   UNL     1      28.713  44.479  54.433  1.00  0.00     0.068 A 
HETATM    8  C   UNL     1      28.997  45.538  55.326  1.00  0.00    -0.007 A 
HETATM    9  C   UNL     1      29.550  43.371  54.444  1.00  0.00     0.032 A 
HETATM   10  C   UNL     1      28.154  46.658  55.317  1.00  0.00     0.016 A 
HETATM   11  C   UNL     1      30.098  45.456  56.194  1.00  0.00     0.014 A 
HETATM   12  C   UNL     1      27.073  46.704  54.445  1.00  0.00     0.038 A 
HETATM   13  C   UNL     1      30.920  44.330  56.184  1.00  0.00     0.001 A 
HETATM   14  C   UNL     1      30.646  43.287  55.308  1.00  0.00     0.002 A 
ENDBRANCH   2   5
BRANCH   1  15
HETATM   15  C   UNL     1      24.970  46.751  50.610  1.00  0.00     0.133 C 
HETATM   16  N   UNL     1      23.977  45.969  50.363  1.00  0.00    -0.283 NA
HETATM   17  H   UNL     1      23.972  45.219  51.072  1.00  0.00     0.188 HD
BRANCH  15  18
HETATM   18  C   UNL     1      25.204  47.906  49.747  1.00  0.00     0.016 A 
HETATM   19  C   UNL     1      26.480  48.352  49.439  1.00  0.00     0.065 A 
HETATM   20  S   UNL     1      26.495  49.722  48.419  1.00  0.00    -0.113 SA
HETATM   21  C   UNL     1      24.791  49.752  48.351  1.00  0.00     0.050 A 
HETATM   22  C   UNL     1      24.226  48.739  49.096  1.00  0.00     0.023 A 
ENDBRANCH  15  18
ENDBRANCH   1  15
TORSDOF 3
ENDMDL
MODEL 2
REMARK VINA RESULT:      -8.6      0.923      1.976
REMARK  3 active torsions:
REMARK  status: ('A' for Active; 'I' for Inactive)
REMARK    1  A    between atoms: C_3  and  N_4 
REMARK    2  A    between atoms: C_3  and  C_17 
REMARK       I    between atoms: N_4  and  C_5 
REMARK    3  A    between atoms: C_5  and  C_6 
ROOT
HETATM    1  N   UNL     1      26.105  45.854  51.379  1.00  0.00    -0.306 N 
HETATM    2  C   UNL     1      25.846  44.983  52.423  1.00  0.00     0.275 C 
HETATM    3  O   UNL     1      24.728  44.628  52.779  1.00  0.00    -0.266 OA
HETATM    4  H   UNL     1      27.092  46.030  51.227  1.00  0.00     0.170 HD
ENDROOT
BRANCH   2   5
HETATM    5  C   UNL     1      27.084  44.498  53.105  1.00  0.00     0.125 A 
HETATM    6  N   UNL     1      27.575  45.322  54.077  1.00  0.00    -0.243 NA
HETATM    7  C   UNL     1      28.693  44.928  54.711  1.00  0.00     0.068 A 
HETATM    8  C   UNL     1      29.354  43.716  54.404  1.00  0.00    -0.007 A 
HETATM    9  C   UNL     1      29.231  45.733  55.707  1.00  0.00     0.032 A 
HETATM   10  C   UNL     1      28.814  42.901  53.399  1.00  0.00     0.016 A 
HETATM   11  C   UNL     1      30.521  43.352  55.095  1.00  0.00     0.014 A 
HETATM   12  C   UNL     1      27.659  43.295  52.735  1.00  0.00     0.038 A 
HETATM   13  C   UNL     1      31.039  44.180  56.089  1.00  0.00     0.001 A 
HETATM   14  C   UNL     1      30.393  45.372  56.396  1.00  0.00     0.002 A 
ENDBRANCH   2   5
BRANCH   1  15
HETATM   15  C   UNL     1      25.189  46.431  50.539  1.00  0.00     0.133 C 
HETATM   16  N   UNL     1      24.000  45.967  50.375  1.00  0.00    -0.283 NA
HETATM   17  H   UNL     1      23.893  45.133  50.976  1.00  0.00     0.188 HD
BRANCH  15  18
HETATM   18  C   UNL     1      25.601  47.621  49.799  1.00  0.00     0.016 A 
HETATM   19  C   UNL     1      24.686  48.475  49.202  1.00  0.00     0.065 A 
HETATM   20  S   UNL     1      25.411  49.792  48.390  1.00  0.00    -0.113 SA
HETATM   21  C   UNL     1      26.973  49.263  48.825  1.00  0.00     0.050 A 
HETATM   22  C   UNL     1      26.939  48.104  49.570  1.00  0.00     0.023 A 
ENDBRANCH  15  18
ENDBRANCH   1  15
TORSDOF 3
ENDMDL
MODEL 3
REMARK VINA RESULT:      -8.3      3.828      4.871
REMARK  3 active torsions:
REMARK  status: ('A' for Active; 'I' for Inactive)
REMARK    1  A    between atoms: C_3  and  N_4 
REMARK    2  A    between atoms: C_3  and  C_17 
REMARK       I    between atoms: N_4  and  C_5 
REMARK    3  A    between atoms: C_5  and  C_6 
ROOT
HETATM    1  N   UNL     1      28.097  43.668  51.691  1.00  0.00    -0.306 N 
HETATM    2  C   UNL     1      27.811  44.451  52.796  1.00  0.00     0.275 C 
HETATM    3  O   UNL     1      26.871  45.234  52.877  1.00  0.00    -0.266 OA
HETATM    4  H   UNL     1      28.913  43.078  51.807  1.00  0.00     0.170 HD
ENDROOT
BRANCH   2   5
HETATM    5  C   UNL     1      28.778  44.258  53.919  1.00  0.00     0.125 A 
HETATM    6  N   UNL     1      28.674  45.160  54.940  1.00  0.00    -0.243 NA
HETATM    7  C   UNL     1      29.532  45.028  55.966  1.00  0.00     0.068 A 
HETATM    8  C   UNL     1      30.511  44.009  56.014  1.00  0.00    -0.007 A 
HETATM    9  C   UNL     1      29.466  45.922  57.027  1.00  0.00     0.032 A 
HETATM   10  C   UNL     1      30.581  43.105  54.944  1.00  0.00     0.016 A 
HETATM   11  C   UNL     1      31.384  43.917  57.110  1.00  0.00     0.014 A 
HETATM   12  C   UNL     1      29.701  43.228  53.876  1.00  0.00     0.038 A 
HETATM   13  C   UNL     1      31.295  44.828  58.160  1.00  0.00     0.001 A 
HETATM   14  C   UNL     1      30.334  45.832  58.119  1.00  0.00     0.002 A 
ENDBRANCH   2   5
BRANCH   1  15
HETATM   15  C   UNL     1      27.376  43.587  50.529  1.00  0.00     0.133 C 
HETATM   16  N   UNL     1      27.118  44.611  49.792  1.00  0.00    -0.283 NA
HETATM   17  H   UNL     1      27.547  45.442  50.231  1.00  0.00     0.188 HD
BRANCH  15  18
HETATM   18  C   UNL     1      26.881  42.273  50.127  1.00  0.00     0.016 A 
HETATM   19  C   UNL     1      26.510  41.990  48.821  1.00  0.00     0.065 A 
HETATM   20  S   UNL     1      25.957  40.388  48.602  1.00  0.00    -0.113 SA
HETATM   21  C   UNL     1      26.210  40.023  50.249  1.00  0.00     0.050 A 
HETATM   22  C   UNL     1      26.701  41.104  50.949  1.00  0.00     0.023 A 
ENDBRANCH  15  18
ENDBRANCH   1  15
TORSDOF 3
ENDMDL
MODEL 4
REMARK VINA RESULT:      -8.3      2.331      3.290
REMARK  3 active torsions:
REMARK  status: ('A' for Active; 'I' for Inactive)
REMARK    1  A    between atoms: C_3  and  N_4 
REMARK    2  A    between atoms: C_3  and  C_17 
REMARK       I    between atoms: N_4  and  C_5 
REMARK    3  A    between atoms: C_5  and  C_6 
ROOT
HETATM    1  N   UNL     1      27.458  44.053  51.086  1.00  0.00    -0.306 N 
HETATM    2  C   UNL     1      27.828  42.954  51.841  1.00  0.00     0.275 C 
HETATM    3  O   UNL     1      27.525  41.794  51.587  1.00  0.00    -0.266 OA
HETATM    4  H   UNL     1      27.804  44.935  51.448  1.00  0.00     0.170 HD
ENDROOT
BRANCH   2   5
HETATM    5  C   UNL     1      28.653  43.312  53.035  1.00  0.00     0.125 A 
HETATM    6  N   UNL     1      28.141  44.303  53.822  1.00  0.00    -0.243 NA
HETATM    7  C   UNL     1      28.856  44.662  54.902  1.00  0.00     0.068 A 
HETATM    8  C   UNL     1      30.090  44.056  55.234  1.00  0.00    -0.007 A 
HETATM    9  C   UNL     1      28.377  45.668  55.732  1.00  0.00     0.032 A 
HETATM   10  C   UNL     1      30.577  43.041  54.398  1.00  0.00     0.016 A 
HETATM   11  C   UNL     1      30.798  44.470  56.374  1.00  0.00     0.014 A 
HETATM   12  C   UNL     1      29.849  42.659  53.278  1.00  0.00     0.038 A 
HETATM   13  C   UNL     1      30.293  45.482  57.188  1.00  0.00     0.001 A 
HETATM   14  C   UNL     1      29.081  46.082  56.867  1.00  0.00     0.002 A 
ENDBRANCH   2   5
BRANCH   1  15
HETATM   15  C   UNL     1      26.743  44.048  49.917  1.00  0.00     0.133 C 
HETATM   16  N   UNL     1      26.940  43.188  48.980  1.00  0.00    -0.283 NA
HETATM   17  H   UNL     1      27.692  42.548  49.281  1.00  0.00     0.188 HD
BRANCH  15  18
HETATM   18  C   UNL     1      25.720  45.076  49.743  1.00  0.00     0.016 A 
HETATM   19  C   UNL     1      24.494  44.807  49.153  1.00  0.00     0.065 A 
HETATM   20  S   UNL     1      23.470  46.171  49.056  1.00  0.00    -0.113 SA
HETATM   21  C   UNL     1      24.635  47.161  49.813  1.00  0.00     0.050 A 
HETATM   22  C   UNL     1      25.781  46.462  50.127  1.00  0.00     0.023 A 
ENDBRANCH  15  18
ENDBRANCH   1  15
TORSDOF 3
ENDMDL
MODEL 5
REMARK VINA RESULT:      -8.1      2.328      2.718
REMARK  3 active torsions:
REMARK  status: ('A' for Active; 'I' for Inactive)
REMARK    1  A    between atoms: C_3  and  N_4 
REMARK    2  A    between atoms: C_3  and  C_17 
REMARK       I    between atoms: N_4  and  C_5 
REMARK    3  A    between atoms: C_5  and  C_6 
ROOT
HETATM    1  N   UNL     1      25.815  46.500  51.860  1.00  0.00    -0.306 N 
HETATM    2  C   UNL     1      25.971  47.051  53.120  1.00  0.00     0.275 C 
HETATM    3  O   UNL     1      25.269  47.939  53.590  1.00  0.00    -0.266 OA
HETATM    4  H   UNL     1      26.487  45.772  51.644  1.00  0.00     0.170 HD
ENDROOT
BRANCH   2   5
HETATM    5  C   UNL     1      27.108  46.454  53.886  1.00  0.00     0.125 A 
HETATM    6  N   UNL     1      27.495  45.209  53.479  1.00  0.00    -0.243 NA
HETATM    7  C   UNL     1      28.509  44.632  54.147  1.00  0.00     0.068 A 
HETATM    8  C   UNL     1      29.165  45.264  55.228  1.00  0.00    -0.007 A 
HETATM    9  C   UNL     1      28.938  43.366  53.770  1.00  0.00     0.032 A 
HETATM   10  C   UNL     1      28.734  46.542  55.611  1.00  0.00     0.016 A 
HETATM   11  C   UNL     1      30.218  44.615  55.893  1.00  0.00     0.014 A 
HETATM   12  C   UNL     1      27.687  47.152  54.931  1.00  0.00     0.038 A 
HETATM   13  C   UNL     1      30.627  43.344  55.494  1.00  0.00     0.001 A 
HETATM   14  C   UNL     1      29.986  42.718  54.431  1.00  0.00     0.002 A 
ENDBRANCH   2   5
BRANCH   1  15
HETATM   15  C   UNL     1      24.843  46.803  50.942  1.00  0.00     0.133 C 
HETATM   16  N   UNL     1      24.487  48.010  50.672  1.00  0.00    -0.283 NA
HETATM   17  H   UNL     1      25.056  48.651  51.248  1.00  0.00     0.188 HD
BRANCH  15  18
HETATM   18  C   UNL     1      24.189  45.692  50.255  1.00  0.00     0.016 A 
HETATM   19  C   UNL     1      24.219  44.397  50.748  1.00  0.00     0.065 A 
HETATM   20  S   UNL     1      23.388  43.274  49.765  1.00  0.00    -0.113 SA
HETATM   21  C   UNL     1      22.953  44.493  48.654  1.00  0.00     0.050 A 
HETATM   22  C   UNL     1      23.437  45.729  49.027  1.00  0.00     0.023 A 
ENDBRANCH  15  18
ENDBRANCH   1  15
TORSDOF 3
ENDMDL
MODEL 6
REMARK VINA RESULT:      -8.0      4.151      4.949
REMARK  3 active torsions:
REMARK  status: ('A' for Active; 'I' for Inactive)
REMARK    1  A    between atoms: C_3  and  N_4 
REMARK    2  A    between atoms: C_3  and  C_17 
REMARK       I    between atoms: N_4  and  C_5 
REMARK    3  A    between atoms: C_5  and  C_6 
ROOT
HETATM    1  N   UNL     1      26.640  41.503  51.516  1.00  0.00    -0.306 N 
HETATM    2  C   UNL     1      27.913  41.427  52.054  1.00  0.00     0.275 C 
HETATM    3  O   UNL     1      28.721  40.535  51.822  1.00  0.00    -0.266 OA
HETATM    4  H   UNL     1      26.114  42.314  51.820  1.00  0.00     0.170 HD
ENDROOT
BRANCH   2   5
HETATM    5  C   UNL     1      28.230  42.559  52.977  1.00  0.00     0.125 A 
HETATM    6  N   UNL     1      29.301  42.360  53.799  1.00  0.00    -0.243 NA
HETATM    7  C   UNL     1      29.615  43.351  54.651  1.00  0.00     0.068 A 
HETATM    8  C   UNL     1      28.884  44.559  54.716  1.00  0.00    -0.007 A 
HETATM    9  C   UNL     1      30.696  43.194  55.509  1.00  0.00     0.032 A 
HETATM   10  C   UNL     1      27.791  44.721  53.852  1.00  0.00     0.016 A 
HETATM   11  C   UNL     1      29.253  45.562  55.626  1.00  0.00     0.014 A 
HETATM   12  C   UNL     1      27.455  43.706  52.965  1.00  0.00     0.038 A 
HETATM   13  C   UNL     1      30.342  45.376  56.476  1.00  0.00     0.001 A 
HETATM   14  C   UNL     1      31.065  44.191  56.417  1.00  0.00     0.002 A 
ENDBRANCH   2   5
BRANCH   1  15
HETATM   15  C   UNL     1      26.076  40.644  50.609  1.00  0.00     0.133 C 
HETATM   16  N   UNL     1      26.204  39.365  50.682  1.00  0.00    -0.283 NA
HETATM   17  H   UNL     1      26.775  39.144  51.514  1.00  0.00     0.188 HD
BRANCH  15  18
HETATM   18  C   UNL     1      25.303  41.225  49.514  1.00  0.00     0.016 A 
HETATM   19  C   UNL     1      24.678  42.458  49.623  1.00  0.00     0.065 A 
HETATM   20  S   UNL     1      23.831  42.919  48.213  1.00  0.00    -0.113 SA
HETATM   21  C   UNL     1      24.287  41.485  47.409  1.00  0.00     0.050 A 
HETATM   22  C   UNL     1      25.066  40.672  48.205  1.00  0.00     0.023 A 
ENDBRANCH  15  18
ENDBRANCH   1  15
TORSDOF 3
ENDMDL
MODEL 7
REMARK VINA RESULT:      -7.9      4.915      6.494
REMARK  3 active torsions:
REMARK  status: ('A' for Active; 'I' for Inactive)
REMARK    1  A    between atoms: C_3  and  N_4 
REMARK    2  A    between atoms: C_3  and  C_17 
REMARK       I    between atoms: N_4  and  C_5 
REMARK    3  A    between atoms: C_5  and  C_6 
ROOT
HETATM    1  N   UNL     1      27.804  40.886  51.712  1.00  0.00    -0.306 N 
HETATM    2  C   UNL     1      27.452  42.184  52.038  1.00  0.00     0.275 C 
HETATM    3  O   UNL     1      26.512  42.800  51.548  1.00  0.00    -0.266 OA
HETATM    4  H   UNL     1      28.608  40.538  52.222  1.00  0.00     0.170 HD
ENDROOT
BRANCH   2   5
HETATM    5  C   UNL     1      28.346  42.794  53.068  1.00  0.00     0.125 A 
HETATM    6  N   UNL     1      27.803  43.830  53.772  1.00  0.00    -0.243 NA
HETATM    7  C   UNL     1      28.577  44.414  54.704  1.00  0.00     0.068 A 
HETATM    8  C   UNL     1      29.902  43.993  54.964  1.00  0.00    -0.007 A 
HETATM    9  C   UNL     1      28.069  45.472  55.445  1.00  0.00     0.032 A 
HETATM   10  C   UNL     1      30.418  42.925  54.217  1.00  0.00     0.016 A 
HETATM   11  C   UNL     1      30.669  44.639  55.947  1.00  0.00     0.014 A 
HETATM   12  C   UNL     1      29.630  42.312  53.251  1.00  0.00     0.038 A 
HETATM   13  C   UNL     1      30.132  45.699  56.675  1.00  0.00     0.001 A 
HETATM   14  C   UNL     1      28.831  46.117  56.424  1.00  0.00     0.002 A 
ENDBRANCH   2   5
BRANCH   1  15
HETATM   15  C   UNL     1      27.156  40.050  50.840  1.00  0.00     0.133 C 
HETATM   16  N   UNL     1      25.875  39.942  50.794  1.00  0.00    -0.283 NA
HETATM   17  H   UNL     1      25.471  40.580  51.499  1.00  0.00     0.188 HD
BRANCH  15  18
HETATM   18  C   UNL     1      27.975  39.248  49.934  1.00  0.00     0.016 A 
HETATM   19  C   UNL     1      27.560  38.927  48.650  1.00  0.00     0.065 A 
HETATM   20  S   UNL     1      28.687  37.977  47.787  1.00  0.00    -0.113 SA
HETATM   21  C   UNL     1      29.771  37.976  49.105  1.00  0.00     0.050 A 
HETATM   22  C   UNL     1      29.277  38.684  50.180  1.00  0.00     0.023 A 
ENDBRANCH  15  18
ENDBRANCH   1  15
TORSDOF 3
ENDMDL
MODEL 8
REMARK VINA RESULT:      -7.9      4.073      4.816
REMARK  3 active torsions:
REMARK  status: ('A' for Active; 'I' for Inactive)
REMARK    1  A    between atoms: C_3  and  N_4 
REMARK    2  A    between atoms: C_3  and  C_17 
REMARK       I    between atoms: N_4  and  C_5 
REMARK    3  A    between atoms: C_5  and  C_6 
ROOT
HETATM    1  N   UNL     1      27.296  43.376  50.828  1.00  0.00    -0.306 N 
HETATM    2  C   UNL     1      26.532  43.826  51.890  1.00  0.00     0.275 C 
HETATM    3  O   UNL     1      25.306  43.844  51.915  1.00  0.00    -0.266 OA
HETATM    4  H   UNL     1      28.296  43.434  50.988  1.00  0.00     0.170 HD
ENDROOT
BRANCH   2   5
HETATM    5  C   UNL     1      27.353  44.311  53.042  1.00  0.00     0.125 A 
HETATM    6  N   UNL     1      28.383  43.494  53.409  1.00  0.00    -0.243 NA
HETATM    7  C   UNL     1      29.141  43.889  54.446  1.00  0.00     0.068 A 
HETATM    8  C   UNL     1      28.905  45.095  55.146  1.00  0.00    -0.007 A 
HETATM    9  C   UNL     1      30.200  43.090  54.858  1.00  0.00     0.032 A 
HETATM   10  C   UNL     1      27.837  45.904  54.733  1.00  0.00     0.016 A 
HETATM   11  C   UNL     1      29.727  45.460  56.224  1.00  0.00     0.014 A 
HETATM   12  C   UNL     1      27.044  45.509  53.663  1.00  0.00     0.038 A 
HETATM   13  C   UNL     1      30.782  44.637  56.615  1.00  0.00     0.001 A 
HETATM   14  C   UNL     1      31.019  43.451  55.931  1.00  0.00     0.002 A 
ENDBRANCH   2   5
BRANCH   1  15
HETATM   15  C   UNL     1      26.840  42.833  49.655  1.00  0.00     0.133 C 
HETATM   16  N   UNL     1      25.920  43.381  48.942  1.00  0.00    -0.283 NA
HETATM   17  H   UNL     1      25.628  44.255  49.407  1.00  0.00     0.188 HD
BRANCH  15  18
HETATM   18  C   UNL     1      27.433  41.573  49.215  1.00  0.00     0.016 A 
HETATM   19  C   UNL     1      28.001  40.672  50.103  1.00  0.00     0.065 A 
HETATM   20  S   UNL     1      28.633  39.276  49.348  1.00  0.00    -0.113 SA
HETATM   21  C   UNL     1      28.153  39.832  47.808  1.00  0.00     0.050 A 
HETATM   22  C   UNL     1      27.529  41.059  47.873  1.00  0.00     0.023 A 
ENDBRANCH  15  18
ENDBRANCH   1  15
TORSDOF 3
ENDMDL
MODEL 9
REMARK VINA RESULT:      -7.8      1.897      2.983
REMARK  3 active torsions:
REMARK  status: ('A' for Active; 'I' for Inactive)
REMARK    1  A    between atoms: C_3  and  N_4 
REMARK    2  A    between atoms: C_3  and  C_17 
REMARK       I    between atoms: N_4  and  C_5 
REMARK    3  A    between atoms: C_5  and  C_6 
ROOT
HETATM    1  N   UNL     1      26.777  44.154  52.706  1.00  0.00    -0.306 N 
HETATM    2  C   UNL     1      27.121  44.989  53.755  1.00  0.00     0.275 C 
HETATM    3  O   UNL     1      26.517  46.009  54.067  1.00  0.00    -0.266 OA
HETATM    4  H   UNL     1      27.392  43.354  52.599  1.00  0.00     0.170 HD
ENDROOT
BRANCH   2   5
HETATM    5  C   UNL     1      28.335  44.531  54.497  1.00  0.00     0.125 A 
HETATM    6  N   UNL     1      28.617  45.225  55.639  1.00  0.00    -0.243 NA
HETATM    7  C   UNL     1      29.706  44.851  56.332  1.00  0.00     0.068 A 
HETATM    8  C   UNL     1      30.542  43.788  55.921  1.00  0.00    -0.007 A 
HETATM    9  C   UNL     1      30.035  45.528  57.500  1.00  0.00     0.032 A 
HETATM   10  C   UNL     1      30.213  43.102  54.743  1.00  0.00     0.016 A 
HETATM   11  C   UNL     1      31.669  43.438  56.683  1.00  0.00     0.014 A 
HETATM   12  C   UNL     1      29.091  43.477  54.015  1.00  0.00     0.038 A 
HETATM   13  C   UNL     1      31.975  44.137  57.849  1.00  0.00     0.001 A 
HETATM   14  C   UNL     1      31.157  45.182  58.259  1.00  0.00     0.002 A 
ENDBRANCH   2   5
BRANCH   1  15
HETATM   15  C   UNL     1      25.697  44.279  51.872  1.00  0.00     0.133 C 
HETATM   16  N   UNL     1      24.747  43.412  51.821  1.00  0.00    -0.283 NA
HETATM   17  H   UNL     1      24.956  42.663  52.500  1.00  0.00     0.188 HD
BRANCH  15  18
HETATM   18  C   UNL     1      25.643  45.452  51.003  1.00  0.00     0.016 A 
HETATM   19  C   UNL     1      24.499  46.226  50.875  1.00  0.00     0.065 A 
HETATM   20  S   UNL     1      24.681  47.538  49.797  1.00  0.00    -0.113 SA
HETATM   21  C   UNL     1      26.303  47.117  49.479  1.00  0.00     0.050 A 
HETATM   22  C   UNL     1      26.693  45.995  50.179  1.00  0.00     0.023 A 
ENDBRANCH  15  18
ENDBRANCH   1  15
TORSDOF 3
ENDMDL
MODEL 10
REMARK VINA RESULT:      -7.5      2.840      3.308
REMARK  3 active torsions:
REMARK  status: ('A' for Active; 'I' for Inactive)
REMARK    1  A    between atoms: C_3  and  N_4 
REMARK    2  A    between atoms: C_3  and  C_17 
REMARK       I    between atoms: N_4  and  C_5 
REMARK    3  A    between atoms: C_5  and  C_6 
ROOT
HETATM    1  N   UNL     1      26.204  43.082  51.838  1.00  0.00    -0.306 N 
HETATM    2  C   UNL     1      25.773  43.884  52.881  1.00  0.00     0.275 C 
HETATM    3  O   UNL     1      24.605  44.185  53.100  1.00  0.00    -0.266 OA
HETATM    4  H   UNL     1      27.207  42.939  51.818  1.00  0.00     0.170 HD
ENDROOT
BRANCH   2   5
HETATM    5  C   UNL     1      26.890  44.372  53.747  1.00  0.00     0.125 A 
HETATM    6  N   UNL     1      27.900  43.477  53.956  1.00  0.00    -0.243 NA
HETATM    7  C   UNL     1      28.920  43.873  54.737  1.00  0.00     0.068 A 
HETATM    8  C   UNL     1      28.972  45.156  55.329  1.00  0.00    -0.007 A 
HETATM    9  C   UNL     1      29.970  42.997  54.980  1.00  0.00     0.032 A 
HETATM   10  C   UNL     1      27.913  46.043  55.086  1.00  0.00     0.016 A 
HETATM   11  C   UNL     1      30.061  45.519  56.138  1.00  0.00     0.014 A 
HETATM   12  C   UNL     1      26.851  45.648  54.281  1.00  0.00     0.038 A 
HETATM   13  C   UNL     1      31.100  44.618  56.365  1.00  0.00     0.001 A 
HETATM   14  C   UNL     1      31.055  43.356  55.785  1.00  0.00     0.002 A 
ENDBRANCH   2   5
BRANCH   1  15
HETATM   15  C   UNL     1      25.422  42.452  50.906  1.00  0.00     0.133 C 
HETATM   16  N   UNL     1      25.439  41.178  50.724  1.00  0.00    -0.283 NA
HETATM   17  H   UNL     1      26.114  40.765  51.388  1.00  0.00     0.188 HD
BRANCH  15  18
HETATM   18  C   UNL     1      24.541  43.280  50.087  1.00  0.00     0.016 A 
HETATM   19  C   UNL     1      23.169  43.085  50.046  1.00  0.00     0.065 A 
HETATM   20  S   UNL     1      22.355  44.174  49.011  1.00  0.00    -0.113 SA
HETATM   21  C   UNL     1      23.817  44.948  48.596  1.00  0.00     0.050 A 
HETATM   22  C   UNL     1      24.901  44.382  49.232  1.00  0.00     0.023 A 
ENDBRANCH  15  18
ENDBRANCH   1  15
TORSDOF 3
ENDMDL
