MODEL 1
REMARK VINA RESULT:      -9.0      0.000      0.000
REMARK  3 active torsions:
REMARK  status: ('A' for Active; 'I' for Inactive)
REMARK    1  A    between atoms: C_2  and  N_3 
REMARK    2  A    between atoms: C_2  and  C_10 
REMARK    3  A    between atoms: C_13  and  C_14 
ROOT
HETATM    1  C   UNL     1      26.929  44.905  52.885  1.00  0.00    -0.028 A 
HETATM    2  C   UNL     1      26.949  44.646  51.505  1.00  0.00     0.010 A 
HETATM    3  C   UNL     1      26.443  45.575  50.588  1.00  0.00     0.013 A 
HETATM    4  C   UNL     1      25.903  46.797  51.012  1.00  0.00    -0.024 A 
HETATM    5  C   UNL     1      25.898  47.059  52.391  1.00  0.00     0.013 A 
HETATM    6  C   UNL     1      26.398  46.131  53.313  1.00  0.00     0.010 A 
ENDROOT
BRANCH   4   7
HETATM    7  C   UNL     1      25.358  47.767  50.047  1.00  0.00    -0.006 A 
HETATM    8  C   UNL     1      26.200  48.626  49.323  1.00  0.00     0.131 A 
HETATM    9  N   UNL     1      25.829  49.560  48.417  1.00  0.00    -0.239 NA
HETATM   10  C   UNL     1      24.497  49.644  48.222  1.00  0.00     0.177 A 
HETATM   11  C   UNL     1      23.580  48.841  48.889  1.00  0.00     0.082 A 
HETATM   12  N   UNL     1      23.872  50.506  47.367  1.00  0.00    -0.222 NA
HETATM   13  N   UNL     1      22.365  49.246  48.402  1.00  0.00    -0.348 N 
HETATM   14  C   UNL     1      23.976  47.878  49.819  1.00  0.00     0.047 A 
HETATM   15  H   UNL     1      21.460  48.879  48.661  1.00  0.00     0.167 HD
HETATM   16  C   UNL     1      22.591  50.245  47.496  1.00  0.00     0.210 A 
ENDBRANCH   4   7
BRANCH   1  17
HETATM   17  C   UNL     1      27.459  43.861  53.852  1.00  0.00     0.217 C 
HETATM   18  C   UNL     1      27.586  42.449  53.263  1.00  0.00     0.045 C 
BRANCH  17  19
HETATM   19  N   UNL     1      28.783  44.236  54.534  1.00  0.00    -0.063 N 
HETATM   20  H   UNL     1      29.316  44.747  53.820  1.00  0.00     0.280 HD
HETATM   21  C   UNL     1      28.649  45.165  55.722  1.00  0.00     0.235 C 
HETATM   22  C   UNL     1      30.034  45.637  56.146  1.00  0.00     0.028 C 
HETATM   23  C   UNL     1      30.957  44.466  56.462  1.00  0.00     0.003 C 
HETATM   24  C   UNL     1      31.010  43.476  55.304  1.00  0.00     0.028 C 
HETATM   25  C   UNL     1      29.617  43.023  54.886  1.00  0.00     0.235 C 
ENDBRANCH  17  19
ENDBRANCH   1  17
TORSDOF 3
ENDMDL
MODEL 2
REMARK VINA RESULT:      -8.6      5.968     11.960
REMARK  3 active torsions:
REMARK  status: ('A' for Active; 'I' for Inactive)
REMARK    1  A    between atoms: C_2  and  N_3 
REMARK    2  A    between atoms: C_2  and  C_10 
REMARK    3  A    between atoms: C_13  and  C_14 
ROOT
HETATM    1  C   UNL     1      18.074  51.678  47.321  1.00  0.00    -0.028 A 
HETATM    2  C   UNL     1      18.568  50.495  46.749  1.00  0.00     0.010 A 
HETATM    3  C   UNL     1      19.837  50.006  47.083  1.00  0.00     0.013 A 
HETATM    4  C   UNL     1      20.657  50.676  48.001  1.00  0.00    -0.024 A 
HETATM    5  C   UNL     1      20.155  51.851  48.581  1.00  0.00     0.013 A 
HETATM    6  C   UNL     1      18.888  52.347  48.248  1.00  0.00     0.010 A 
ENDROOT
BRANCH   4   7
HETATM    7  C   UNL     1      21.998  50.168  48.340  1.00  0.00    -0.006 A 
HETATM    8  C   UNL     1      22.180  49.213  49.352  1.00  0.00     0.131 A 
HETATM    9  N   UNL     1      23.351  48.672  49.763  1.00  0.00    -0.239 NA
HETATM   10  C   UNL     1      24.434  49.132  49.104  1.00  0.00     0.177 A 
HETATM   11  C   UNL     1      24.361  50.077  48.088  1.00  0.00     0.082 A 
HETATM   12  N   UNL     1      25.725  48.749  49.333  1.00  0.00    -0.222 NA
HETATM   13  N   UNL     1      25.663  50.253  47.701  1.00  0.00    -0.348 N 
HETATM   14  C   UNL     1      23.146  50.625  47.671  1.00  0.00     0.047 A 
HETATM   15  H   UNL     1      25.997  50.872  46.976  1.00  0.00     0.167 HD
HETATM   16  C   UNL     1      26.443  49.439  48.476  1.00  0.00     0.210 A 
ENDBRANCH   4   7
BRANCH   1  17
HETATM   17  C   UNL     1      16.706  52.194  46.912  1.00  0.00     0.217 C 
HETATM   18  C   UNL     1      15.808  51.155  46.228  1.00  0.00     0.045 C 
BRANCH  17  19
HETATM   19  N   UNL     1      15.915  52.869  48.041  1.00  0.00    -0.063 N 
HETATM   20  H   UNL     1      16.559  53.560  48.444  1.00  0.00     0.280 HD
HETATM   21  C   UNL     1      14.686  53.632  47.593  1.00  0.00     0.235 C 
HETATM   22  C   UNL     1      14.141  54.437  48.768  1.00  0.00     0.028 C 
HETATM   23  C   UNL     1      13.832  53.547  49.965  1.00  0.00     0.003 C 
HETATM   24  C   UNL     1      15.039  52.700  50.352  1.00  0.00     0.028 C 
HETATM   25  C   UNL     1      15.577  51.912  49.165  1.00  0.00     0.235 C 
ENDBRANCH  17  19
ENDBRANCH   1  17
TORSDOF 3
ENDMDL
MODEL 3
REMARK VINA RESULT:      -8.3      1.332      2.116
REMARK  3 active torsions:
REMARK  status: ('A' for Active; 'I' for Inactive)
REMARK    1  A    between atoms: C_2  and  N_3 
REMARK    2  A    between atoms: C_2  and  C_10 
REMARK    3  A    between atoms: C_13  and  C_14 
ROOT
HETATM    1  C   UNL     1      27.158  43.676  52.731  1.00  0.00    -0.028 A 
HETATM    2  C   UNL     1      27.607  44.108  51.473  1.00  0.00     0.010 A 
HETATM    3  C   UNL     1      26.804  44.913  50.656  1.00  0.00     0.013 A 
HETATM    4  C   UNL     1      25.527  45.320  51.065  1.00  0.00    -0.024 A 
HETATM    5  C   UNL     1      25.086  44.899  52.329  1.00  0.00     0.013 A 
HETATM    6  C   UNL     1      25.884  44.090  53.148  1.00  0.00     0.010 A 
ENDROOT
BRANCH   4   7
HETATM    7  C   UNL     1      24.678  46.156  50.198  1.00  0.00    -0.006 A 
HETATM    8  C   UNL     1      23.651  45.593  49.424  1.00  0.00     0.131 A 
HETATM    9  N   UNL     1      22.809  46.243  48.587  1.00  0.00    -0.239 NA
HETATM   10  C   UNL     1      23.018  47.574  48.517  1.00  0.00     0.177 A 
HETATM   11  C   UNL     1      24.007  48.227  49.242  1.00  0.00     0.082 A 
HETATM   12  N   UNL     1      22.309  48.450  47.746  1.00  0.00    -0.222 NA
HETATM   13  N   UNL     1      23.871  49.543  48.884  1.00  0.00    -0.348 N 
HETATM   14  C   UNL     1      24.867  47.545  50.104  1.00  0.00     0.047 A 
HETATM   15  H   UNL     1      24.426  50.318  49.218  1.00  0.00     0.167 HD
HETATM   16  C   UNL     1      22.842  49.626  47.986  1.00  0.00     0.210 A 
ENDBRANCH   4   7
BRANCH   1  17
HETATM   17  C   UNL     1      28.044  42.779  53.576  1.00  0.00     0.217 C 
HETATM   18  C   UNL     1      29.036  41.922  52.777  1.00  0.00     0.045 C 
BRANCH  17  19
HETATM   19  N   UNL     1      28.804  43.504  54.696  1.00  0.00    -0.063 N 
HETATM   20  H   UNL     1      28.345  43.207  55.566  1.00  0.00     0.280 HD
HETATM   21  C   UNL     1      30.265  43.127  54.826  1.00  0.00     0.235 C 
HETATM   22  C   UNL     1      30.825  43.733  56.108  1.00  0.00     0.028 C 
HETATM   23  C   UNL     1      30.640  45.245  56.144  1.00  0.00     0.003 C 
HETATM   24  C   UNL     1      29.183  45.630  55.910  1.00  0.00     0.028 C 
HETATM   25  C   UNL     1      28.636  45.007  54.632  1.00  0.00     0.235 C 
ENDBRANCH  17  19
ENDBRANCH   1  17
TORSDOF 3
ENDMDL
MODEL 4
REMARK VINA RESULT:      -8.2      5.614      7.428
REMARK  3 active torsions:
REMARK  status: ('A' for Active; 'I' for Inactive)
REMARK    1  A    between atoms: C_2  and  N_3 
REMARK    2  A    between atoms: C_2  and  C_10 
REMARK    3  A    between atoms: C_13  and  C_14 
ROOT
HETATM    1  C   UNL     1      28.671  43.921  53.738  1.00  0.00    -0.028 A 
HETATM    2  C   UNL     1      29.013  42.624  54.150  1.00  0.00     0.010 A 
HETATM    3  C   UNL     1      28.833  41.524  53.302  1.00  0.00     0.013 A 
HETATM    4  C   UNL     1      28.310  41.679  52.011  1.00  0.00    -0.024 A 
HETATM    5  C   UNL     1      27.982  42.978  51.596  1.00  0.00     0.013 A 
HETATM    6  C   UNL     1      28.155  44.081  52.442  1.00  0.00     0.010 A 
ENDROOT
BRANCH   4   7
HETATM    7  C   UNL     1      28.108  40.519  51.125  1.00  0.00    -0.006 A 
HETATM    8  C   UNL     1      29.064  39.495  51.037  1.00  0.00     0.131 A 
HETATM    9  N   UNL     1      29.004  38.387  50.262  1.00  0.00    -0.239 NA
HETATM   10  C   UNL     1      27.889  38.298  49.509  1.00  0.00     0.177 A 
HETATM   11  C   UNL     1      26.884  39.258  49.524  1.00  0.00     0.082 A 
HETATM   12  N   UNL     1      27.593  37.283  48.644  1.00  0.00    -0.222 NA
HETATM   13  N   UNL     1      25.956  38.784  48.633  1.00  0.00    -0.348 N 
HETATM   14  C   UNL     1      26.957  40.395  50.329  1.00  0.00     0.047 A 
HETATM   15  H   UNL     1      25.081  39.223  48.385  1.00  0.00     0.167 HD
HETATM   16  C   UNL     1      26.426  37.601  48.132  1.00  0.00     0.210 A 
ENDBRANCH   4   7
BRANCH   1  17
HETATM   17  C   UNL     1      28.851  45.085  54.696  1.00  0.00     0.217 C 
HETATM   18  C   UNL     1      27.558  45.831  55.048  1.00  0.00     0.045 C 
BRANCH  17  19
HETATM   19  N   UNL     1      29.592  44.734  55.994  1.00  0.00    -0.063 N 
HETATM   20  H   UNL     1      29.051  43.968  56.412  1.00  0.00     0.280 HD
HETATM   21  C   UNL     1      31.002  44.214  55.805  1.00  0.00     0.235 C 
HETATM   22  C   UNL     1      31.524  43.688  57.136  1.00  0.00     0.028 C 
HETATM   23  C   UNL     1      31.470  44.754  58.224  1.00  0.00     0.003 C 
HETATM   24  C   UNL     1      30.072  45.352  58.344  1.00  0.00     0.028 C 
HETATM   25  C   UNL     1      29.562  45.862  57.003  1.00  0.00     0.235 C 
ENDBRANCH  17  19
ENDBRANCH   1  17
TORSDOF 3
ENDMDL
MODEL 5
REMARK VINA RESULT:      -8.1      5.422      8.768
REMARK  3 active torsions:
REMARK  status: ('A' for Active; 'I' for Inactive)
REMARK    1  A    between atoms: C_2  and  N_3 
REMARK    2  A    between atoms: C_2  and  C_10 
REMARK    3  A    between atoms: C_13  and  C_14 
ROOT
HETATM    1  C   UNL     1      27.404  41.882  51.236  1.00  0.00    -0.028 A 
HETATM    2  C   UNL     1      27.913  41.157  52.326  1.00  0.00     0.010 A 
HETATM    3  C   UNL     1      28.463  41.811  53.435  1.00  0.00     0.013 A 
HETATM    4  C   UNL     1      28.523  43.210  53.500  1.00  0.00    -0.024 A 
HETATM    5  C   UNL     1      28.001  43.932  52.416  1.00  0.00     0.013 A 
HETATM    6  C   UNL     1      27.453  43.283  51.302  1.00  0.00     0.010 A 
ENDROOT
BRANCH   4   7
HETATM    7  C   UNL     1      29.115  43.896  54.662  1.00  0.00    -0.006 A 
HETATM    8  C   UNL     1      28.675  45.168  55.059  1.00  0.00     0.131 A 
HETATM    9  N   UNL     1      29.136  45.905  56.096  1.00  0.00    -0.239 NA
HETATM   10  C   UNL     1      30.129  45.316  56.795  1.00  0.00     0.177 A 
HETATM   11  C   UNL     1      30.635  44.061  56.483  1.00  0.00     0.082 A 
HETATM   12  N   UNL     1      30.764  45.852  57.878  1.00  0.00    -0.222 NA
HETATM   13  N   UNL     1      31.607  43.848  57.426  1.00  0.00    -0.348 N 
HETATM   14  C   UNL     1      30.149  43.310  55.411  1.00  0.00     0.047 A 
HETATM   15  H   UNL     1      32.193  43.030  57.513  1.00  0.00     0.167 HD
HETATM   16  C   UNL     1      31.648  44.949  58.237  1.00  0.00     0.210 A 
ENDBRANCH   4   7
BRANCH   1  17
HETATM   17  C   UNL     1      26.843  41.138  50.038  1.00  0.00     0.217 C 
HETATM   18  C   UNL     1      26.786  41.960  48.743  1.00  0.00     0.045 C 
BRANCH  17  19
HETATM   19  N   UNL     1      27.525  39.794  49.744  1.00  0.00    -0.063 N 
HETATM   20  H   UNL     1      27.821  39.439  50.661  1.00  0.00     0.280 HD
HETATM   21  C   UNL     1      26.623  38.738  49.141  1.00  0.00     0.235 C 
HETATM   22  C   UNL     1      27.357  37.402  49.125  1.00  0.00     0.028 C 
HETATM   23  C   UNL     1      28.679  37.496  48.372  1.00  0.00     0.003 C 
HETATM   24  C   UNL     1      29.545  38.628  48.912  1.00  0.00     0.028 C 
HETATM   25  C   UNL     1      28.792  39.952  48.931  1.00  0.00     0.235 C 
ENDBRANCH  17  19
ENDBRANCH   1  17
TORSDOF 3
ENDMDL
MODEL 6
REMARK VINA RESULT:      -8.0      1.792      8.784
REMARK  3 active torsions:
REMARK  status: ('A' for Active; 'I' for Inactive)
REMARK    1  A    between atoms: C_2  and  N_3 
REMARK    2  A    between atoms: C_2  and  C_10 
REMARK    3  A    between atoms: C_13  and  C_14 
ROOT
HETATM    1  C   UNL     1      23.830  46.674  49.560  1.00  0.00    -0.028 A 
HETATM    2  C   UNL     1      24.017  45.286  49.666  1.00  0.00     0.010 A 
HETATM    3  C   UNL     1      24.992  44.751  50.517  1.00  0.00     0.013 A 
HETATM    4  C   UNL     1      25.813  45.579  51.296  1.00  0.00    -0.024 A 
HETATM    5  C   UNL     1      25.613  46.965  51.198  1.00  0.00     0.013 A 
HETATM    6  C   UNL     1      24.643  47.505  50.346  1.00  0.00     0.010 A 
ENDROOT
BRANCH   4   7
HETATM    7  C   UNL     1      26.848  45.015  52.179  1.00  0.00    -0.006 A 
HETATM    8  C   UNL     1      26.933  45.387  53.530  1.00  0.00     0.131 A 
HETATM    9  N   UNL     1      27.834  44.951  54.441  1.00  0.00    -0.239 NA
HETATM   10  C   UNL     1      28.730  44.068  53.955  1.00  0.00     0.177 A 
HETATM   11  C   UNL     1      28.730  43.636  52.634  1.00  0.00     0.082 A 
HETATM   12  N   UNL     1      29.739  43.486  54.667  1.00  0.00    -0.222 NA
HETATM   13  N   UNL     1      29.782  42.760  52.569  1.00  0.00    -0.348 N 
HETATM   14  C   UNL     1      27.794  44.092  51.705  1.00  0.00     0.047 A 
HETATM   15  H   UNL     1      30.087  42.245  51.756  1.00  0.00     0.167 HD
HETATM   16  C   UNL     1      30.356  42.705  53.810  1.00  0.00     0.210 A 
ENDBRANCH   4   7
BRANCH   1  17
HETATM   17  C   UNL     1      22.783  47.218  48.604  1.00  0.00     0.217 C 
HETATM   18  C   UNL     1      21.552  46.321  48.424  1.00  0.00     0.045 C 
BRANCH  17  19
HETATM   19  N   UNL     1      22.316  48.647  48.916  1.00  0.00    -0.063 N 
HETATM   20  H   UNL     1      22.719  48.866  49.835  1.00  0.00     0.280 HD
HETATM   21  C   UNL     1      22.820  49.707  47.959  1.00  0.00     0.235 C 
HETATM   22  C   UNL     1      22.483  51.085  48.517  1.00  0.00     0.028 C 
HETATM   23  C   UNL     1      20.988  51.238  48.773  1.00  0.00     0.003 C 
HETATM   24  C   UNL     1      20.459  50.111  49.653  1.00  0.00     0.028 C 
HETATM   25  C   UNL     1      20.815  48.743  49.087  1.00  0.00     0.235 C 
ENDBRANCH  17  19
ENDBRANCH   1  17
TORSDOF 3
ENDMDL
MODEL 7
REMARK VINA RESULT:      -7.8      4.186      7.707
REMARK  3 active torsions:
REMARK  status: ('A' for Active; 'I' for Inactive)
REMARK    1  A    between atoms: C_2  and  N_3 
REMARK    2  A    between atoms: C_2  and  C_10 
REMARK    3  A    between atoms: C_13  and  C_14 
ROOT
HETATM    1  C   UNL     1      22.913  49.256  48.735  1.00  0.00    -0.028 A 
HETATM    2  C   UNL     1      22.775  50.650  48.642  1.00  0.00     0.010 A 
HETATM    3  C   UNL     1      21.512  51.253  48.631  1.00  0.00     0.013 A 
HETATM    4  C   UNL     1      20.340  50.489  48.718  1.00  0.00    -0.024 A 
HETATM    5  C   UNL     1      20.481  49.097  48.826  1.00  0.00     0.013 A 
HETATM    6  C   UNL     1      21.742  48.489  48.832  1.00  0.00     0.010 A 
ENDROOT
BRANCH   4   7
HETATM    7  C   UNL     1      19.011  51.124  48.692  1.00  0.00    -0.006 A 
HETATM    8  C   UNL     1      18.169  51.006  47.575  1.00  0.00     0.131 A 
HETATM    9  N   UNL     1      16.936  51.543  47.422  1.00  0.00    -0.239 NA
HETATM   10  C   UNL     1      16.510  52.262  48.481  1.00  0.00     0.177 A 
HETATM   11  C   UNL     1      17.267  52.439  49.633  1.00  0.00     0.082 A 
HETATM   12  N   UNL     1      15.309  52.905  48.574  1.00  0.00    -0.222 NA
HETATM   13  N   UNL     1      16.475  53.215  50.438  1.00  0.00    -0.348 N 
HETATM   14  C   UNL     1      18.537  51.878  49.779  1.00  0.00     0.047 A 
HETATM   15  H   UNL     1      16.700  53.546  51.365  1.00  0.00     0.167 HD
HETATM   16  C   UNL     1      15.315  53.470  49.760  1.00  0.00     0.210 A 
ENDBRANCH   4   7
BRANCH   1  17
HETATM   17  C   UNL     1      24.298  48.636  48.713  1.00  0.00     0.217 C 
HETATM   18  C   UNL     1      25.450  49.645  48.613  1.00  0.00     0.045 C 
BRANCH  17  19
HETATM   19  N   UNL     1      24.583  47.668  49.871  1.00  0.00    -0.063 N 
HETATM   20  H   UNL     1      23.949  47.959  50.624  1.00  0.00     0.280 HD
HETATM   21  C   UNL     1      24.275  46.215  49.579  1.00  0.00     0.235 C 
HETATM   22  C   UNL     1      24.376  45.414  50.872  1.00  0.00     0.028 C 
HETATM   23  C   UNL     1      25.744  45.567  51.525  1.00  0.00     0.003 C 
HETATM   24  C   UNL     1      26.101  47.037  51.724  1.00  0.00     0.028 C 
HETATM   25  C   UNL     1      25.984  47.824  50.425  1.00  0.00     0.235 C 
ENDBRANCH  17  19
ENDBRANCH   1  17
TORSDOF 3
ENDMDL
MODEL 8
REMARK VINA RESULT:      -7.8      4.711      7.720
REMARK  3 active torsions:
REMARK  status: ('A' for Active; 'I' for Inactive)
REMARK    1  A    between atoms: C_2  and  N_3 
REMARK    2  A    between atoms: C_2  and  C_10 
REMARK    3  A    between atoms: C_13  and  C_14 
ROOT
HETATM    1  C   UNL     1      28.443  43.003  53.435  1.00  0.00    -0.028 A 
HETATM    2  C   UNL     1      28.843  41.667  53.601  1.00  0.00     0.010 A 
HETATM    3  C   UNL     1      28.822  40.768  52.528  1.00  0.00     0.013 A 
HETATM    4  C   UNL     1      28.407  41.168  51.250  1.00  0.00    -0.024 A 
HETATM    5  C   UNL     1      28.023  42.507  51.084  1.00  0.00     0.013 A 
HETATM    6  C   UNL     1      28.037  43.409  52.155  1.00  0.00     0.010 A 
ENDROOT
BRANCH   4   7
HETATM    7  C   UNL     1      28.373  40.217  50.126  1.00  0.00    -0.006 A 
HETATM    8  C   UNL     1      28.831  38.898  50.273  1.00  0.00     0.131 A 
HETATM    9  N   UNL     1      28.860  37.933  49.324  1.00  0.00    -0.239 NA
HETATM   10  C   UNL     1      28.392  38.325  48.122  1.00  0.00     0.177 A 
HETATM   11  C   UNL     1      27.917  39.607  47.873  1.00  0.00     0.082 A 
HETATM   12  N   UNL     1      28.320  37.544  47.004  1.00  0.00    -0.222 NA
HETATM   13  N   UNL     1      27.546  39.576  46.554  1.00  0.00    -0.348 N 
HETATM   14  C   UNL     1      27.890  40.593  48.861  1.00  0.00     0.047 A 
HETATM   15  H   UNL     1      27.151  40.338  46.022  1.00  0.00     0.167 HD
HETATM   16  C   UNL     1      27.808  38.321  46.077  1.00  0.00     0.210 A 
ENDBRANCH   4   7
BRANCH   1  17
HETATM   17  C   UNL     1      28.450  43.941  54.628  1.00  0.00     0.217 C 
HETATM   18  C   UNL     1      29.829  44.156  55.267  1.00  0.00     0.045 C 
BRANCH  17  19
HETATM   19  N   UNL     1      27.804  45.309  54.368  1.00  0.00    -0.063 N 
HETATM   20  H   UNL     1      28.086  45.561  53.413  1.00  0.00     0.280 HD
HETATM   21  C   UNL     1      26.290  45.316  54.389  1.00  0.00     0.235 C 
HETATM   22  C   UNL     1      25.788  46.664  53.886  1.00  0.00     0.028 C 
HETATM   23  C   UNL     1      26.356  47.817  54.705  1.00  0.00     0.003 C 
HETATM   24  C   UNL     1      27.878  47.752  54.771  1.00  0.00     0.028 C 
HETATM   25  C   UNL     1      28.362  46.394  55.264  1.00  0.00     0.235 C 
ENDBRANCH  17  19
ENDBRANCH   1  17
TORSDOF 3
ENDMDL
MODEL 9
REMARK VINA RESULT:      -7.7      5.184     12.649
REMARK  3 active torsions:
REMARK  status: ('A' for Active; 'I' for Inactive)
REMARK    1  A    between atoms: C_2  and  N_3 
REMARK    2  A    between atoms: C_2  and  C_10 
REMARK    3  A    between atoms: C_13  and  C_14 
ROOT
HETATM    1  C   UNL     1      17.661  51.538  47.309  1.00  0.00    -0.028 A 
HETATM    2  C   UNL     1      18.116  50.312  46.797  1.00  0.00     0.010 A 
HETATM    3  C   UNL     1      19.402  49.841  47.085  1.00  0.00     0.013 A 
HETATM    4  C   UNL     1      20.281  50.572  47.897  1.00  0.00    -0.024 A 
HETATM    5  C   UNL     1      19.819  51.789  48.419  1.00  0.00     0.013 A 
HETATM    6  C   UNL     1      18.534  52.268  48.130  1.00  0.00     0.010 A 
ENDROOT
BRANCH   4   7
HETATM    7  C   UNL     1      21.639  50.081  48.187  1.00  0.00    -0.006 A 
HETATM    8  C   UNL     1      22.757  50.583  47.502  1.00  0.00     0.131 A 
HETATM    9  N   UNL     1      24.049  50.215  47.667  1.00  0.00    -0.239 NA
HETATM   10  C   UNL     1      24.236  49.259  48.599  1.00  0.00     0.177 A 
HETATM   11  C   UNL     1      23.198  48.697  49.332  1.00  0.00     0.082 A 
HETATM   12  N   UNL     1      25.440  48.716  48.949  1.00  0.00    -0.222 NA
HETATM   13  N   UNL     1      23.818  47.789  50.149  1.00  0.00    -0.348 N 
HETATM   14  C   UNL     1      21.869  49.087  49.153  1.00  0.00     0.047 A 
HETATM   15  H   UNL     1      23.372  47.189  50.829  1.00  0.00     0.167 HD
HETATM   16  C   UNL     1      25.159  47.835  49.883  1.00  0.00     0.210 A 
ENDBRANCH   4   7
BRANCH   1  17
HETATM   17  C   UNL     1      16.271  52.031  46.950  1.00  0.00     0.217 C 
HETATM   18  C   UNL     1      15.469  52.599  48.128  1.00  0.00     0.045 C 
BRANCH  17  19
HETATM   19  N   UNL     1      16.230  53.036  45.790  1.00  0.00    -0.063 N 
HETATM   20  H   UNL     1      16.725  53.866  46.137  1.00  0.00     0.280 HD
HETATM   21  C   UNL     1      16.953  52.594  44.535  1.00  0.00     0.235 C 
HETATM   22  C   UNL     1      17.036  53.767  43.566  1.00  0.00     0.028 C 
HETATM   23  C   UNL     1      15.656  54.327  43.239  1.00  0.00     0.003 C 
HETATM   24  C   UNL     1      14.886  54.675  44.508  1.00  0.00     0.028 C 
HETATM   25  C   UNL     1      14.824  53.496  45.470  1.00  0.00     0.235 C 
ENDBRANCH  17  19
ENDBRANCH   1  17
TORSDOF 3
ENDMDL
MODEL 10
REMARK VINA RESULT:      -7.6      4.909     11.102
REMARK  3 active torsions:
REMARK  status: ('A' for Active; 'I' for Inactive)
REMARK    1  A    between atoms: C_2  and  N_3 
REMARK    2  A    between atoms: C_2  and  C_10 
REMARK    3  A    between atoms: C_13  and  C_14 
ROOT
HETATM    1  C   UNL     1      19.004  50.720  48.662  1.00  0.00    -0.028 A 
HETATM    2  C   UNL     1      19.848  51.108  49.716  1.00  0.00     0.010 A 
HETATM    3  C   UNL     1      21.220  50.831  49.681  1.00  0.00     0.013 A 
HETATM    4  C   UNL     1      21.801  50.162  48.595  1.00  0.00    -0.024 A 
HETATM    5  C   UNL     1      20.958  49.789  47.538  1.00  0.00     0.013 A 
HETATM    6  C   UNL     1      19.584  50.059  47.569  1.00  0.00     0.010 A 
ENDROOT
BRANCH   4   7
HETATM    7  C   UNL     1      23.242  49.859  48.568  1.00  0.00    -0.006 A 
HETATM    8  C   UNL     1      24.111  50.527  47.690  1.00  0.00     0.131 A 
HETATM    9  N   UNL     1      25.445  50.340  47.561  1.00  0.00    -0.239 NA
HETATM   10  C   UNL     1      25.952  49.397  48.381  1.00  0.00     0.177 A 
HETATM   11  C   UNL     1      25.178  48.679  49.285  1.00  0.00     0.082 A 
HETATM   12  N   UNL     1      27.263  49.019  48.442  1.00  0.00    -0.222 NA
HETATM   13  N   UNL     1      26.074  47.847  49.905  1.00  0.00    -0.348 N 
HETATM   14  C   UNL     1      23.803  48.884  49.410  1.00  0.00     0.047 A 
HETATM   15  H   UNL     1      25.868  47.175  50.630  1.00  0.00     0.167 HD
HETATM   16  C   UNL     1      27.308  48.086  49.366  1.00  0.00     0.210 A 
ENDBRANCH   4   7
BRANCH   1  17
HETATM   17  C   UNL     1      17.516  51.011  48.748  1.00  0.00     0.217 C 
HETATM   18  C   UNL     1      17.154  52.502  48.759  1.00  0.00     0.045 C 
BRANCH  17  19
HETATM   19  N   UNL     1      16.665  50.300  47.687  1.00  0.00    -0.063 N 
HETATM   20  H   UNL     1      17.318  50.075  46.926  1.00  0.00     0.280 HD
HETATM   21  C   UNL     1      16.051  48.989  48.133  1.00  0.00     0.235 C 
HETATM   22  C   UNL     1      15.441  48.286  46.925  1.00  0.00     0.028 C 
HETATM   23  C   UNL     1      14.415  49.165  46.220  1.00  0.00     0.003 C 
HETATM   24  C   UNL     1      15.003  50.525  45.864  1.00  0.00     0.028 C 
HETATM   25  C   UNL     1      15.618  51.208  47.079  1.00  0.00     0.235 C 
ENDBRANCH  17  19
ENDBRANCH   1  17
TORSDOF 3
ENDMDL
