MODEL 1
REMARK VINA RESULT:      -9.6      0.000      0.000
REMARK  6 active torsions:
REMARK  status: ('A' for Active; 'I' for Inactive)
REMARK    1  A    between atoms: C_3  and  O_4 
REMARK    2  A    between atoms: C_6  and  C_7 
REMARK    3  A    between atoms: C_7  and  C_8 
REMARK    4  A    between atoms: C_8  and  N_9 
REMARK       I    between atoms: N_9  and  C_10 
REMARK    5  A    between atoms: C_10  and  C_11 
REMARK    6  A    between atoms: C_13  and  C_14 
ROOT
HETATM    1  N   UNL     1      26.515  45.874  52.136  1.00  0.00    -0.357 N 
HETATM    2  C   UNL     1      26.720  45.343  53.396  1.00  0.00     0.251 C 
HETATM    3  O   UNL     1      25.943  45.508  54.329  1.00  0.00    -0.268 OA
HETATM    4  H   UNL     1      27.312  45.954  51.521  1.00  0.00     0.162 HD
ENDROOT
BRANCH   2   5
HETATM    5  C   UNL     1      27.973  44.564  53.603  1.00  0.00     0.032 A 
HETATM    6  C   UNL     1      28.673  44.750  54.806  1.00  0.00     0.029 A 
HETATM    7  C   UNL     1      29.848  44.034  55.073  1.00  0.00    -0.023 A 
HETATM    8  C   UNL     1      30.309  43.120  54.116  1.00  0.00     0.012 A 
HETATM    9  C   UNL     1      29.611  42.921  52.922  1.00  0.00     0.002 A 
HETATM   10  C   UNL     1      28.442  43.637  52.666  1.00  0.00     0.017 A 
BRANCH   7  11
HETATM   11  C   UNL     1      30.571  44.212  56.323  1.00  0.00    -0.002 A 
HETATM   12  C   UNL     1      31.594  43.394  56.762  1.00  0.00     0.153 A 
HETATM   13  O   UNL     1      32.069  43.813  57.964  1.00  0.00    -0.334 OA
HETATM   14  C   UNL     1      31.352  44.912  58.308  1.00  0.00     0.142 A 
HETATM   15  C   UNL     1      30.417  45.196  57.341  1.00  0.00     0.038 A 
ENDBRANCH   7  11
ENDBRANCH   2   5
BRANCH   1  16
HETATM   16  C   UNL     1      25.388  46.760  51.896  1.00  0.00     0.127 C 
BRANCH  16  17
HETATM   17  C   UNL     1      24.928  46.720  50.440  1.00  0.00     0.058 C 
BRANCH  17  18
HETATM   18  C   UNL     1      25.370  47.949  49.686  1.00  0.00    -0.054 A 
HETATM   19  C   UNL     1      26.724  48.313  49.660  1.00  0.00     0.043 A 
HETATM   20  C   UNL     1      27.132  49.426  48.930  1.00  0.00     0.066 A 
HETATM   21  C   UNL     1      26.214  50.189  48.217  1.00  0.00     0.036 A 
HETATM   22  C   UNL     1      24.866  49.831  48.237  1.00  0.00     0.003 A 
HETATM   23  C   UNL     1      24.446  48.716  48.965  1.00  0.00     0.007 A 
BRANCH  20  24
HETATM   24  O   UNL     1      28.461  49.734  48.936  1.00  0.00    -0.361 OA
HETATM   25  H   UNL     1      28.946  49.013  48.503  1.00  0.00     0.217 HD
ENDBRANCH  20  24
ENDBRANCH  17  18
ENDBRANCH  16  17
ENDBRANCH   1  16
TORSDOF 6
ENDMDL
MODEL 2
REMARK VINA RESULT:      -9.5      0.980      1.403
REMARK  6 active torsions:
REMARK  status: ('A' for Active; 'I' for Inactive)
REMARK    1  A    between atoms: C_3  and  O_4 
REMARK    2  A    between atoms: C_6  and  C_7 
REMARK    3  A    between atoms: C_7  and  C_8 
REMARK    4  A    between atoms: C_8  and  N_9 
REMARK       I    between atoms: N_9  and  C_10 
REMARK    5  A    between atoms: C_10  and  C_11 
REMARK    6  A    between atoms: C_13  and  C_14 
ROOT
HETATM    1  N   UNL     1      26.516  45.960  52.226  1.00  0.00    -0.357 N 
HETATM    2  C   UNL     1      26.702  45.372  53.463  1.00  0.00     0.251 C 
HETATM    3  O   UNL     1      25.911  45.494  54.391  1.00  0.00    -0.268 OA
HETATM    4  H   UNL     1      27.323  46.069  51.628  1.00  0.00     0.162 HD
ENDROOT
BRANCH   2   5
HETATM    5  C   UNL     1      27.954  44.586  53.654  1.00  0.00     0.032 A 
HETATM    6  C   UNL     1      28.668  44.765  54.849  1.00  0.00     0.029 A 
HETATM    7  C   UNL     1      29.842  44.041  55.101  1.00  0.00    -0.023 A 
HETATM    8  C   UNL     1      30.287  43.127  54.137  1.00  0.00     0.012 A 
HETATM    9  C   UNL     1      29.574  42.935  52.950  1.00  0.00     0.002 A 
HETATM   10  C   UNL     1      28.406  43.658  52.709  1.00  0.00     0.017 A 
BRANCH   7  11
HETATM   11  C   UNL     1      30.581  44.213  56.343  1.00  0.00    -0.002 A 
HETATM   12  C   UNL     1      31.573  43.362  56.790  1.00  0.00     0.153 A 
HETATM   13  O   UNL     1      32.073  43.783  57.981  1.00  0.00    -0.334 OA
HETATM   14  C   UNL     1      31.404  44.917  58.309  1.00  0.00     0.142 A 
HETATM   15  C   UNL     1      30.474  45.221  57.343  1.00  0.00     0.038 A 
ENDBRANCH   7  11
ENDBRANCH   2   5
BRANCH   1  16
HETATM   16  C   UNL     1      25.392  46.855  52.009  1.00  0.00     0.127 C 
BRANCH  16  17
HETATM   17  C   UNL     1      24.850  46.759  50.584  1.00  0.00     0.058 C 
BRANCH  17  18
HETATM   18  C   UNL     1      25.380  47.870  49.714  1.00  0.00    -0.054 A 
HETATM   19  C   UNL     1      24.504  48.630  48.926  1.00  0.00     0.043 A 
HETATM   20  C   UNL     1      24.993  49.680  48.155  1.00  0.00     0.066 A 
HETATM   21  C   UNL     1      26.348  49.995  48.153  1.00  0.00     0.036 A 
HETATM   22  C   UNL     1      27.225  49.244  48.935  1.00  0.00     0.003 A 
HETATM   23  C   UNL     1      26.745  48.189  49.714  1.00  0.00     0.007 A 
BRANCH  20  24
HETATM   24  O   UNL     1      24.098  50.389  47.410  1.00  0.00    -0.361 OA
HETATM   25  H   UNL     1      23.559  50.932  48.009  1.00  0.00     0.217 HD
ENDBRANCH  20  24
ENDBRANCH  17  18
ENDBRANCH  16  17
ENDBRANCH   1  16
TORSDOF 6
ENDMDL
MODEL 3
REMARK VINA RESULT:      -8.7      1.366      8.257
REMARK  6 active torsions:
REMARK  status: ('A' for Active; 'I' for Inactive)
REMARK    1  A    between atoms: C_3  and  O_4 
REMARK    2  A    between atoms: C_6  and  C_7 
REMARK    3  A    between atoms: C_7  and  C_8 
REMARK    4  A    between atoms: C_8  and  N_9 
REMARK       I    between atoms: N_9  and  C_10 
REMARK    5  A    between atoms: C_10  and  C_11 
REMARK    6  A    between atoms: C_13  and  C_14 
ROOT
HETATM    1  N   UNL     1      27.341  43.399  52.659  1.00  0.00    -0.357 N 
HETATM    2  C   UNL     1      26.305  44.264  52.955  1.00  0.00     0.251 C 
HETATM    3  O   UNL     1      25.946  44.516  54.099  1.00  0.00    -0.268 OA
HETATM    4  H   UNL     1      27.384  43.014  51.726  1.00  0.00     0.162 HD
ENDROOT
BRANCH   2   5
HETATM    5  C   UNL     1      25.588  44.877  51.800  1.00  0.00     0.032 A 
HETATM    6  C   UNL     1      26.107  46.064  51.258  1.00  0.00     0.029 A 
HETATM    7  C   UNL     1      25.494  46.681  50.159  1.00  0.00    -0.023 A 
HETATM    8  C   UNL     1      24.353  46.086  49.605  1.00  0.00     0.012 A 
HETATM    9  C   UNL     1      23.838  44.898  50.132  1.00  0.00     0.002 A 
HETATM   10  C   UNL     1      24.457  44.290  51.225  1.00  0.00     0.017 A 
BRANCH   7  11
HETATM   11  C   UNL     1      26.033  47.904  49.584  1.00  0.00    -0.002 A 
HETATM   12  C   UNL     1      25.270  48.919  49.040  1.00  0.00     0.153 A 
HETATM   13  O   UNL     1      26.058  49.927  48.582  1.00  0.00    -0.334 OA
HETATM   14  C   UNL     1      27.342  49.566  48.832  1.00  0.00     0.142 A 
HETATM   15  C   UNL     1      27.383  48.333  49.439  1.00  0.00     0.038 A 
ENDBRANCH   7  11
ENDBRANCH   2   5
BRANCH   1  16
HETATM   16  C   UNL     1      27.994  42.657  53.724  1.00  0.00     0.127 C 
BRANCH  16  17
HETATM   17  C   UNL     1      29.492  42.949  53.790  1.00  0.00     0.058 C 
BRANCH  17  18
HETATM   18  C   UNL     1      29.848  43.743  55.021  1.00  0.00    -0.054 A 
HETATM   19  C   UNL     1      30.855  43.292  55.886  1.00  0.00     0.043 A 
HETATM   20  C   UNL     1      31.208  44.049  57.000  1.00  0.00     0.066 A 
HETATM   21  C   UNL     1      30.576  45.258  57.272  1.00  0.00     0.036 A 
HETATM   22  C   UNL     1      29.575  45.714  56.414  1.00  0.00     0.003 A 
HETATM   23  C   UNL     1      29.214  44.963  55.293  1.00  0.00     0.007 A 
BRANCH  20  24
HETATM   24  O   UNL     1      32.195  43.566  57.807  1.00  0.00    -0.361 OA
HETATM   25  H   UNL     1      31.854  42.792  58.283  1.00  0.00     0.217 HD
ENDBRANCH  20  24
ENDBRANCH  17  18
ENDBRANCH  16  17
ENDBRANCH   1  16
TORSDOF 6
ENDMDL
MODEL 4
REMARK VINA RESULT:      -8.6      3.162      4.957
REMARK  6 active torsions:
REMARK  status: ('A' for Active; 'I' for Inactive)
REMARK    1  A    between atoms: C_3  and  O_4 
REMARK    2  A    between atoms: C_6  and  C_7 
REMARK    3  A    between atoms: C_7  and  C_8 
REMARK    4  A    between atoms: C_8  and  N_9 
REMARK       I    between atoms: N_9  and  C_10 
REMARK    5  A    between atoms: C_10  and  C_11 
REMARK    6  A    between atoms: C_13  and  C_14 
ROOT
HETATM    1  N   UNL     1      28.706  41.932  51.704  1.00  0.00    -0.357 N 
HETATM    2  C   UNL     1      28.734  41.699  53.066  1.00  0.00     0.251 C 
HETATM    3  O   UNL     1      28.457  40.617  53.569  1.00  0.00    -0.268 OA
HETATM    4  H   UNL     1      28.649  42.890  51.388  1.00  0.00     0.162 HD
ENDROOT
BRANCH   2   5
HETATM    5  C   UNL     1      29.089  42.854  53.939  1.00  0.00     0.032 A 
HETATM    6  C   UNL     1      28.208  43.946  53.978  1.00  0.00     0.029 A 
HETATM    7  C   UNL     1      28.473  45.055  54.794  1.00  0.00    -0.023 A 
HETATM    8  C   UNL     1      29.634  45.050  55.578  1.00  0.00     0.012 A 
HETATM    9  C   UNL     1      30.509  43.960  55.554  1.00  0.00     0.002 A 
HETATM   10  C   UNL     1      30.236  42.860  54.740  1.00  0.00     0.017 A 
BRANCH   7  11
HETATM   11  C   UNL     1      27.558  46.186  54.848  1.00  0.00    -0.002 A 
HETATM   12  C   UNL     1      26.240  46.150  54.438  1.00  0.00     0.153 A 
HETATM   13  O   UNL     1      25.645  47.360  54.610  1.00  0.00    -0.334 OA
HETATM   14  C   UNL     1      26.583  48.187  55.137  1.00  0.00     0.142 A 
HETATM   15  C   UNL     1      27.775  47.520  55.298  1.00  0.00     0.038 A 
ENDBRANCH   7  11
ENDBRANCH   2   5
BRANCH   1  16
HETATM   16  C   UNL     1      28.234  40.896  50.800  1.00  0.00     0.127 C 
BRANCH  16  17
HETATM   17  C   UNL     1      26.804  41.155  50.329  1.00  0.00     0.058 C 
BRANCH  17  18
HETATM   18  C   UNL     1      26.406  42.595  50.533  1.00  0.00    -0.054 A 
HETATM   19  C   UNL     1      27.045  43.614  49.812  1.00  0.00     0.043 A 
HETATM   20  C   UNL     1      26.647  44.937  49.975  1.00  0.00     0.066 A 
HETATM   21  C   UNL     1      25.615  45.272  50.845  1.00  0.00     0.036 A 
HETATM   22  C   UNL     1      24.973  44.263  51.564  1.00  0.00     0.003 A 
HETATM   23  C   UNL     1      25.364  42.931  51.407  1.00  0.00     0.007 A 
BRANCH  20  24
HETATM   24  O   UNL     1      27.300  45.889  49.247  1.00  0.00    -0.361 OA
HETATM   25  H   UNL     1      26.678  46.264  48.602  1.00  0.00     0.217 HD
ENDBRANCH  20  24
ENDBRANCH  17  18
ENDBRANCH  16  17
ENDBRANCH   1  16
TORSDOF 6
ENDMDL
MODEL 5
REMARK VINA RESULT:      -8.5      1.978      3.030
REMARK  6 active torsions:
REMARK  status: ('A' for Active; 'I' for Inactive)
REMARK    1  A    between atoms: C_3  and  O_4 
REMARK    2  A    between atoms: C_6  and  C_7 
REMARK    3  A    between atoms: C_7  and  C_8 
REMARK    4  A    between atoms: C_8  and  N_9 
REMARK       I    between atoms: N_9  and  C_10 
REMARK    5  A    between atoms: C_10  and  C_11 
REMARK    6  A    between atoms: C_13  and  C_14 
ROOT
HETATM    1  N   UNL     1      26.292  43.783  51.956  1.00  0.00    -0.357 N 
HETATM    2  C   UNL     1      25.826  44.382  53.111  1.00  0.00     0.251 C 
HETATM    3  O   UNL     1      24.679  44.249  53.521  1.00  0.00    -0.268 OA
HETATM    4  H   UNL     1      27.123  44.165  51.527  1.00  0.00     0.162 HD
ENDROOT
BRANCH   2   5
HETATM    5  C   UNL     1      26.783  45.253  53.851  1.00  0.00     0.032 A 
HETATM    6  C   UNL     1      27.827  44.634  54.556  1.00  0.00     0.029 A 
HETATM    7  C   UNL     1      28.773  45.396  55.256  1.00  0.00    -0.023 A 
HETATM    8  C   UNL     1      28.660  46.792  55.234  1.00  0.00     0.012 A 
HETATM    9  C   UNL     1      27.630  47.415  54.524  1.00  0.00     0.002 A 
HETATM   10  C   UNL     1      26.695  46.649  53.829  1.00  0.00     0.017 A 
BRANCH   7  11
HETATM   11  C   UNL     1      29.866  44.761  55.979  1.00  0.00    -0.002 A 
HETATM   12  C   UNL     1      30.375  45.208  57.182  1.00  0.00     0.153 A 
HETATM   13  O   UNL     1      31.391  44.411  57.606  1.00  0.00    -0.334 OA
HETATM   14  C   UNL     1      31.541  43.438  56.672  1.00  0.00     0.142 A 
HETATM   15  C   UNL     1      30.636  43.610  55.651  1.00  0.00     0.038 A 
ENDBRANCH   7  11
ENDBRANCH   2   5
BRANCH   1  16
HETATM   16  C   UNL     1      25.380  43.034  51.108  1.00  0.00     0.127 C 
BRANCH  16  17
HETATM   17  C   UNL     1      25.226  43.673  49.728  1.00  0.00     0.058 C 
BRANCH  17  18
HETATM   18  C   UNL     1      25.462  45.161  49.777  1.00  0.00    -0.054 A 
HETATM   19  C   UNL     1      24.392  46.040  49.993  1.00  0.00     0.043 A 
HETATM   20  C   UNL     1      24.620  47.410  50.077  1.00  0.00     0.066 A 
HETATM   21  C   UNL     1      25.905  47.929  49.952  1.00  0.00     0.036 A 
HETATM   22  C   UNL     1      26.975  47.060  49.739  1.00  0.00     0.003 A 
HETATM   23  C   UNL     1      26.756  45.684  49.654  1.00  0.00     0.007 A 
BRANCH  20  24
HETATM   24  O   UNL     1      23.544  48.220  50.292  1.00  0.00    -0.361 OA
HETATM   25  H   UNL     1      23.760  48.836  51.011  1.00  0.00     0.217 HD
ENDBRANCH  20  24
ENDBRANCH  17  18
ENDBRANCH  16  17
ENDBRANCH   1  16
TORSDOF 6
ENDMDL
MODEL 6
REMARK VINA RESULT:      -8.4      2.409      9.332
REMARK  6 active torsions:
REMARK  status: ('A' for Active; 'I' for Inactive)
REMARK    1  A    between atoms: C_3  and  O_4 
REMARK    2  A    between atoms: C_6  and  C_7 
REMARK    3  A    between atoms: C_7  and  C_8 
REMARK    4  A    between atoms: C_8  and  N_9 
REMARK       I    between atoms: N_9  and  C_10 
REMARK    5  A    between atoms: C_10  and  C_11 
REMARK    6  A    between atoms: C_13  and  C_14 
ROOT
HETATM    1  N   UNL     1      26.125  45.745  50.524  1.00  0.00    -0.357 N 
HETATM    2  C   UNL     1      26.068  47.067  50.924  1.00  0.00     0.251 C 
HETATM    3  O   UNL     1      26.201  47.424  52.088  1.00  0.00    -0.268 OA
HETATM    4  H   UNL     1      25.719  45.503  49.632  1.00  0.00     0.162 HD
ENDROOT
BRANCH   2   5
HETATM    5  C   UNL     1      25.799  48.080  49.864  1.00  0.00     0.032 A 
HETATM    6  C   UNL     1      24.460  48.351  49.537  1.00  0.00     0.029 A 
HETATM    7  C   UNL     1      24.137  49.307  48.564  1.00  0.00    -0.023 A 
HETATM    8  C   UNL     1      25.178  49.995  47.927  1.00  0.00     0.012 A 
HETATM    9  C   UNL     1      26.512  49.739  48.256  1.00  0.00     0.002 A 
HETATM   10  C   UNL     1      26.824  48.787  49.227  1.00  0.00     0.017 A 
BRANCH   7  11
HETATM   11  C   UNL     1      22.752  49.601  48.228  1.00  0.00    -0.002 A 
HETATM   12  C   UNL     1      21.830  48.665  47.804  1.00  0.00     0.153 A 
HETATM   13  O   UNL     1      20.624  49.243  47.565  1.00  0.00    -0.334 OA
HETATM   14  C   UNL     1      20.763  50.565  47.838  1.00  0.00     0.142 A 
HETATM   15  C   UNL     1      22.048  50.839  48.241  1.00  0.00     0.038 A 
ENDBRANCH   7  11
ENDBRANCH   2   5
BRANCH   1  16
HETATM   16  C   UNL     1      26.244  44.692  51.518  1.00  0.00     0.127 C 
BRANCH  16  17
HETATM   17  C   UNL     1      27.510  43.859  51.320  1.00  0.00     0.058 C 
BRANCH  17  18
HETATM   18  C   UNL     1      28.360  43.839  52.565  1.00  0.00    -0.054 A 
HETATM   19  C   UNL     1      28.026  44.645  53.662  1.00  0.00     0.043 A 
HETATM   20  C   UNL     1      28.790  44.594  54.824  1.00  0.00     0.066 A 
HETATM   21  C   UNL     1      29.890  43.747  54.919  1.00  0.00     0.036 A 
HETATM   22  C   UNL     1      30.228  42.941  53.832  1.00  0.00     0.003 A 
HETATM   23  C   UNL     1      29.466  42.984  52.662  1.00  0.00     0.007 A 
BRANCH  20  24
HETATM   24  O   UNL     1      28.419  45.396  55.863  1.00  0.00    -0.361 OA
HETATM   25  H   UNL     1      28.430  46.318  55.560  1.00  0.00     0.217 HD
ENDBRANCH  20  24
ENDBRANCH  17  18
ENDBRANCH  16  17
ENDBRANCH   1  16
TORSDOF 6
ENDMDL
MODEL 7
REMARK VINA RESULT:      -8.4      1.778      2.127
REMARK  6 active torsions:
REMARK  status: ('A' for Active; 'I' for Inactive)
REMARK    1  A    between atoms: C_3  and  O_4 
REMARK    2  A    between atoms: C_6  and  C_7 
REMARK    3  A    between atoms: C_7  and  C_8 
REMARK    4  A    between atoms: C_8  and  N_9 
REMARK       I    between atoms: N_9  and  C_10 
REMARK    5  A    between atoms: C_10  and  C_11 
REMARK    6  A    between atoms: C_13  and  C_14 
ROOT
HETATM    1  N   UNL     1      26.567  45.231  51.800  1.00  0.00    -0.357 N 
HETATM    2  C   UNL     1      26.724  44.714  53.072  1.00  0.00     0.251 C 
HETATM    3  O   UNL     1      25.838  44.733  53.919  1.00  0.00    -0.268 OA
HETATM    4  H   UNL     1      27.400  45.451  51.273  1.00  0.00     0.162 HD
ENDROOT
BRANCH   2   5
HETATM    5  C   UNL     1      28.059  44.143  53.408  1.00  0.00     0.032 A 
HETATM    6  C   UNL     1      28.627  44.481  54.647  1.00  0.00     0.029 A 
HETATM    7  C   UNL     1      29.870  43.962  55.033  1.00  0.00    -0.023 A 
HETATM    8  C   UNL     1      30.536  43.092  54.159  1.00  0.00     0.012 A 
HETATM    9  C   UNL     1      29.971  42.742  52.930  1.00  0.00     0.002 A 
HETATM   10  C   UNL     1      28.731  43.262  52.555  1.00  0.00     0.017 A 
BRANCH   7  11
HETATM   11  C   UNL     1      30.460  44.297  56.321  1.00  0.00    -0.002 A 
HETATM   12  C   UNL     1      31.445  43.561  56.949  1.00  0.00     0.153 A 
HETATM   13  O   UNL     1      31.789  44.124  58.137  1.00  0.00    -0.334 OA
HETATM   14  C   UNL     1      31.022  45.233  58.282  1.00  0.00     0.142 A 
HETATM   15  C   UNL     1      30.185  45.383  57.201  1.00  0.00     0.038 A 
ENDBRANCH   7  11
ENDBRANCH   2   5
BRANCH   1  16
HETATM   16  C   UNL     1      25.342  45.928  51.445  1.00  0.00     0.127 C 
BRANCH  16  17
HETATM   17  C   UNL     1      24.810  45.494  50.081  1.00  0.00     0.058 C 
BRANCH  17  18
HETATM   18  C   UNL     1      23.872  46.521  49.499  1.00  0.00    -0.054 A 
HETATM   19  C   UNL     1      24.029  47.878  49.813  1.00  0.00     0.043 A 
HETATM   20  C   UNL     1      23.185  48.827  49.242  1.00  0.00     0.066 A 
HETATM   21  C   UNL     1      22.182  48.451  48.356  1.00  0.00     0.036 A 
HETATM   22  C   UNL     1      22.022  47.102  48.037  1.00  0.00     0.003 A 
HETATM   23  C   UNL     1      22.863  46.142  48.604  1.00  0.00     0.007 A 
BRANCH  20  24
HETATM   24  O   UNL     1      23.383  50.134  49.578  1.00  0.00    -0.361 OA
HETATM   25  H   UNL     1      22.914  50.313  50.410  1.00  0.00     0.217 HD
ENDBRANCH  20  24
ENDBRANCH  17  18
ENDBRANCH  16  17
ENDBRANCH   1  16
TORSDOF 6
ENDMDL
MODEL 8
REMARK VINA RESULT:      -8.1      4.073      5.970
REMARK  6 active torsions:
REMARK  status: ('A' for Active; 'I' for Inactive)
REMARK    1  A    between atoms: C_3  and  O_4 
REMARK    2  A    between atoms: C_6  and  C_7 
REMARK    3  A    between atoms: C_7  and  C_8 
REMARK    4  A    between atoms: C_8  and  N_9 
REMARK       I    between atoms: N_9  and  C_10 
REMARK    5  A    between atoms: C_10  and  C_11 
REMARK    6  A    between atoms: C_13  and  C_14 
ROOT
HETATM    1  N   UNL     1      23.033  48.094  49.705  1.00  0.00    -0.357 N 
HETATM    2  C   UNL     1      24.383  47.932  49.953  1.00  0.00     0.251 C 
HETATM    3  O   UNL     1      25.246  48.658  49.474  1.00  0.00    -0.268 OA
HETATM    4  H   UNL     1      22.423  47.307  49.877  1.00  0.00     0.162 HD
ENDROOT
BRANCH   2   5
HETATM    5  C   UNL     1      24.776  46.788  50.823  1.00  0.00     0.032 A 
HETATM    6  C   UNL     1      25.557  47.061  51.958  1.00  0.00     0.029 A 
HETATM    7  C   UNL     1      25.943  46.034  52.829  1.00  0.00    -0.023 A 
HETATM    8  C   UNL     1      25.528  44.725  52.550  1.00  0.00     0.012 A 
HETATM    9  C   UNL     1      24.741  44.447  51.429  1.00  0.00     0.002 A 
HETATM   10  C   UNL     1      24.360  45.477  50.568  1.00  0.00     0.017 A 
BRANCH   7  11
HETATM   11  C   UNL     1      26.742  46.311  54.014  1.00  0.00    -0.002 A 
HETATM   12  C   UNL     1      26.549  47.388  54.857  1.00  0.00     0.153 A 
HETATM   13  O   UNL     1      27.453  47.377  55.872  1.00  0.00    -0.334 OA
HETATM   14  C   UNL     1      28.236  46.286  55.689  1.00  0.00     0.142 A 
HETATM   15  C   UNL     1      27.848  45.600  54.561  1.00  0.00     0.038 A 
ENDBRANCH   7  11
ENDBRANCH   2   5
BRANCH   1  16
HETATM   16  C   UNL     1      22.585  49.100  48.756  1.00  0.00     0.127 C 
BRANCH  16  17
HETATM   17  C   UNL     1      22.331  50.448  49.428  1.00  0.00     0.058 C 
BRANCH  17  18
HETATM   18  C   UNL     1      20.861  50.779  49.469  1.00  0.00    -0.054 A 
HETATM   19  C   UNL     1      20.342  51.794  48.652  1.00  0.00     0.043 A 
HETATM   20  C   UNL     1      18.978  52.069  48.664  1.00  0.00     0.066 A 
HETATM   21  C   UNL     1      18.110  51.347  49.477  1.00  0.00     0.036 A 
HETATM   22  C   UNL     1      18.619  50.335  50.291  1.00  0.00     0.003 A 
HETATM   23  C   UNL     1      19.986  50.050  50.286  1.00  0.00     0.007 A 
BRANCH  20  24
HETATM   24  O   UNL     1      18.525  53.063  47.848  1.00  0.00    -0.361 OA
HETATM   25  H   UNL     1      18.125  53.756  48.399  1.00  0.00     0.217 HD
ENDBRANCH  20  24
ENDBRANCH  17  18
ENDBRANCH  16  17
ENDBRANCH   1  16
TORSDOF 6
ENDMDL
MODEL 9
REMARK VINA RESULT:      -7.9      2.278      2.944
REMARK  6 active torsions:
REMARK  status: ('A' for Active; 'I' for Inactive)
REMARK    1  A    between atoms: C_3  and  O_4 
REMARK    2  A    between atoms: C_6  and  C_7 
REMARK    3  A    between atoms: C_7  and  C_8 
REMARK    4  A    between atoms: C_8  and  N_9 
REMARK       I    between atoms: N_9  and  C_10 
REMARK    5  A    between atoms: C_10  and  C_11 
REMARK    6  A    between atoms: C_13  and  C_14 
ROOT
HETATM    1  N   UNL     1      25.687  44.922  50.366  1.00  0.00    -0.357 N 
HETATM    2  C   UNL     1      25.572  44.264  51.576  1.00  0.00     0.251 C 
HETATM    3  O   UNL     1      24.560  44.299  52.266  1.00  0.00    -0.268 OA
HETATM    4  H   UNL     1      26.616  45.097  50.009  1.00  0.00     0.162 HD
ENDROOT
BRANCH   2   5
HETATM    5  C   UNL     1      26.768  43.511  52.050  1.00  0.00     0.032 A 
HETATM    6  C   UNL     1      27.517  44.061  53.103  1.00  0.00     0.029 A 
HETATM    7  C   UNL     1      28.641  43.395  53.610  1.00  0.00    -0.023 A 
HETATM    8  C   UNL     1      29.000  42.162  53.050  1.00  0.00     0.012 A 
HETATM    9  C   UNL     1      28.252  41.603  52.010  1.00  0.00     0.002 A 
HETATM   10  C   UNL     1      27.134  42.273  51.513  1.00  0.00     0.017 A 
BRANCH   7  11
HETATM   11  C   UNL     1      29.416  43.952  54.709  1.00  0.00    -0.002 A 
HETATM   12  C   UNL     1      29.137  45.150  55.338  1.00  0.00     0.153 A 
HETATM   13  O   UNL     1      30.039  45.403  56.323  1.00  0.00    -0.334 OA
HETATM   14  C   UNL     1      30.908  44.361  56.335  1.00  0.00     0.142 A 
HETATM   15  C   UNL     1      30.576  43.448  55.362  1.00  0.00     0.038 A 
ENDBRANCH   7  11
ENDBRANCH   2   5
BRANCH   1  16
HETATM   16  C   UNL     1      24.615  45.788  49.906  1.00  0.00     0.127 C 
BRANCH  16  17
HETATM   17  C   UNL     1      24.805  47.231  50.371  1.00  0.00     0.058 C 
BRANCH  17  18
HETATM   18  C   UNL     1      24.172  48.210  49.415  1.00  0.00    -0.054 A 
HETATM   19  C   UNL     1      22.814  48.098  49.087  1.00  0.00     0.043 A 
HETATM   20  C   UNL     1      22.224  49.027  48.235  1.00  0.00     0.066 A 
HETATM   21  C   UNL     1      22.964  50.076  47.699  1.00  0.00     0.036 A 
HETATM   22  C   UNL     1      24.315  50.195  48.023  1.00  0.00     0.003 A 
HETATM   23  C   UNL     1      24.917  49.268  48.878  1.00  0.00     0.007 A 
BRANCH  20  24
HETATM   24  O   UNL     1      20.899  48.875  47.951  1.00  0.00    -0.361 OA
HETATM   25  H   UNL     1      20.382  49.203  48.705  1.00  0.00     0.217 HD
ENDBRANCH  20  24
ENDBRANCH  17  18
ENDBRANCH  16  17
ENDBRANCH   1  16
TORSDOF 6
ENDMDL
MODEL 10
REMARK VINA RESULT:      -7.9      3.887      5.775
REMARK  6 active torsions:
REMARK  status: ('A' for Active; 'I' for Inactive)
REMARK    1  A    between atoms: C_3  and  O_4 
REMARK    2  A    between atoms: C_6  and  C_7 
REMARK    3  A    between atoms: C_7  and  C_8 
REMARK    4  A    between atoms: C_8  and  N_9 
REMARK       I    between atoms: N_9  and  C_10 
REMARK    5  A    between atoms: C_10  and  C_11 
REMARK    6  A    between atoms: C_13  and  C_14 
ROOT
HETATM    1  N   UNL     1      27.449  42.185  52.774  1.00  0.00    -0.357 N 
HETATM    2  C   UNL     1      28.774  42.420  53.092  1.00  0.00     0.251 C 
HETATM    3  O   UNL     1      29.702  41.763  52.634  1.00  0.00    -0.268 OA
HETATM    4  H   UNL     1      26.742  42.548  53.397  1.00  0.00     0.162 HD
ENDROOT
BRANCH   2   5
HETATM    5  C   UNL     1      29.049  43.512  54.068  1.00  0.00     0.032 A 
HETATM    6  C   UNL     1      28.158  44.597  54.111  1.00  0.00     0.029 A 
HETATM    7  C   UNL     1      28.347  45.647  55.020  1.00  0.00    -0.023 A 
HETATM    8  C   UNL     1      29.442  45.591  55.893  1.00  0.00     0.012 A 
HETATM    9  C   UNL     1      30.326  44.508  55.864  1.00  0.00     0.002 A 
HETATM   10  C   UNL     1      30.128  43.467  54.957  1.00  0.00     0.017 A 
BRANCH   7  11
HETATM   11  C   UNL     1      27.421  46.768  55.079  1.00  0.00    -0.002 A 
HETATM   12  C   UNL     1      26.412  47.003  54.166  1.00  0.00     0.153 A 
HETATM   13  O   UNL     1      25.719  48.127  54.486  1.00  0.00    -0.334 OA
HETATM   14  C   UNL     1      26.280  48.625  55.616  1.00  0.00     0.142 A 
HETATM   15  C   UNL     1      27.331  47.835  56.019  1.00  0.00     0.038 A 
ENDBRANCH   7  11
ENDBRANCH   2   5
BRANCH   1  16
HETATM   16  C   UNL     1      27.094  41.050  51.939  1.00  0.00     0.127 C 
BRANCH  16  17
HETATM   17  C   UNL     1      27.022  41.426  50.460  1.00  0.00     0.058 C 
BRANCH  17  18
HETATM   18  C   UNL     1      25.608  41.726  50.032  1.00  0.00    -0.054 A 
HETATM   19  C   UNL     1      24.884  42.752  50.655  1.00  0.00     0.043 A 
HETATM   20  C   UNL     1      23.593  43.051  50.230  1.00  0.00     0.066 A 
HETATM   21  C   UNL     1      23.002  42.345  49.187  1.00  0.00     0.036 A 
HETATM   22  C   UNL     1      23.718  41.324  48.561  1.00  0.00     0.003 A 
HETATM   23  C   UNL     1      25.014  41.017  48.980  1.00  0.00     0.007 A 
BRANCH  20  24
HETATM   24  O   UNL     1      22.934  44.061  50.867  1.00  0.00    -0.361 OA
HETATM   25  H   UNL     1      22.663  43.747  51.745  1.00  0.00     0.217 HD
ENDBRANCH  20  24
ENDBRANCH  17  18
ENDBRANCH  16  17
ENDBRANCH   1  16
TORSDOF 6
ENDMDL
