MODEL 1
REMARK VINA RESULT:      -9.1      0.000      0.000
REMARK  5 active torsions:
REMARK  status: ('A' for Active; 'I' for Inactive)
REMARK    1  A    between atoms: C_2  and  C_3 
REMARK    2  A    between atoms: C_5  and  C_6 
REMARK    3  A    between atoms: C_6  and  C_7 
REMARK       I    between atoms: C_7  and  N_8 
REMARK    4  A    between atoms: N_8  and  C_9 
REMARK    5  A    between atoms: C_11  and  C_12 
ROOT
HETATM    1  C   UNL     1      25.985  46.625  52.352  1.00  0.00     0.226 C 
HETATM    2  N   UNL     1      26.340  46.707  51.015  1.00  0.00    -0.327 N 
HETATM    3  O   UNL     1      25.425  47.494  53.014  1.00  0.00    -0.273 OA
HETATM    4  H   UNL     1      26.795  45.891  50.622  1.00  0.00     0.169 HD
ENDROOT
BRANCH   2   5
HETATM    5  C   UNL     1      26.041  47.746  50.108  1.00  0.00     0.035 A 
HETATM    6  C   UNL     1      24.746  48.067  49.687  1.00  0.00     0.042 A 
HETATM    7  C   UNL     1      24.513  49.085  48.746  1.00  0.00    -0.021 A 
HETATM    8  C   UNL     1      25.610  49.795  48.243  1.00  0.00     0.012 A 
HETATM    9  C   UNL     1      26.905  49.493  48.664  1.00  0.00     0.003 A 
HETATM   10  C   UNL     1      27.119  48.471  49.590  1.00  0.00     0.029 A 
BRANCH   7  11
HETATM   11  C   UNL     1      23.164  49.401  48.289  1.00  0.00     0.010 A 
HETATM   12  C   UNL     1      22.077  48.559  47.946  1.00  0.00     0.152 A 
HETATM   13  N   UNL     1      20.984  49.236  47.583  1.00  0.00    -0.187 NA
HETATM   14  N   UNL     1      21.364  50.519  47.687  1.00  0.00    -0.289 N 
HETATM   15  H   UNL     1      20.691  51.242  47.457  1.00  0.00     0.188 HD
HETATM   16  C   UNL     1      22.653  50.670  48.111  1.00  0.00     0.123 A 
ENDBRANCH   7  11
ENDBRANCH   2   5
BRANCH   1  17
HETATM   17  C   UNL     1      26.369  45.297  52.989  1.00  0.00     0.141 C 
BRANCH  17  18
HETATM   18  C   UNL     1      27.510  45.353  53.983  1.00  0.00    -0.049 A 
HETATM   19  C   UNL     1      28.448  44.314  54.118  1.00  0.00     0.014 A 
HETATM   20  C   UNL     1      29.501  44.393  55.042  1.00  0.00    -0.058 A 
HETATM   21  C   UNL     1      29.562  45.509  55.889  1.00  0.00     0.007 A 
HETATM   22  C   UNL     1      28.618  46.530  55.794  1.00  0.00     0.001 A 
HETATM   23  C   UNL     1      27.601  46.455  54.845  1.00  0.00     0.007 A 
BRANCH  20  24
HETATM   24  C   UNL     1      30.538  43.304  55.203  1.00  0.00     0.034 C 
HETATM   25  C   UNL     1      31.337  43.317  56.501  1.00  0.00     0.010 C 
ENDBRANCH  20  24
ENDBRANCH  17  18
ENDBRANCH   1  17
TORSDOF 5
ENDMDL
MODEL 2
REMARK VINA RESULT:      -8.9      2.854      9.059
REMARK  5 active torsions:
REMARK  status: ('A' for Active; 'I' for Inactive)
REMARK    1  A    between atoms: C_2  and  C_3 
REMARK    2  A    between atoms: C_5  and  C_6 
REMARK    3  A    between atoms: C_6  and  C_7 
REMARK       I    between atoms: C_7  and  N_8 
REMARK    4  A    between atoms: N_8  and  C_9 
REMARK    5  A    between atoms: C_11  and  C_12 
ROOT
HETATM    1  C   UNL     1      26.237  45.940  52.294  1.00  0.00     0.226 C 
HETATM    2  N   UNL     1      26.930  44.752  52.120  1.00  0.00    -0.327 N 
HETATM    3  O   UNL     1      26.370  46.734  53.220  1.00  0.00    -0.273 OA
HETATM    4  H   UNL     1      26.697  44.215  51.293  1.00  0.00     0.169 HD
ENDROOT
BRANCH   2   5
HETATM    5  C   UNL     1      27.999  44.259  52.898  1.00  0.00     0.035 A 
HETATM    6  C   UNL     1      28.364  44.779  54.144  1.00  0.00     0.042 A 
HETATM    7  C   UNL     1      29.468  44.274  54.854  1.00  0.00    -0.021 A 
HETATM    8  C   UNL     1      30.196  43.217  54.295  1.00  0.00     0.012 A 
HETATM    9  C   UNL     1      29.834  42.681  53.059  1.00  0.00     0.003 A 
HETATM   10  C   UNL     1      28.743  43.202  52.363  1.00  0.00     0.029 A 
BRANCH   7  11
HETATM   11  C   UNL     1      29.862  44.836  56.141  1.00  0.00     0.010 A 
HETATM   12  C   UNL     1      30.874  44.448  57.055  1.00  0.00     0.152 A 
HETATM   13  N   UNL     1      30.934  45.234  58.134  1.00  0.00    -0.187 NA
HETATM   14  N   UNL     1      29.958  46.130  57.921  1.00  0.00    -0.289 N 
HETATM   15  H   UNL     1      29.802  46.848  58.620  1.00  0.00     0.188 HD
HETATM   16  C   UNL     1      29.294  45.939  56.744  1.00  0.00     0.123 A 
ENDBRANCH   7  11
ENDBRANCH   2   5
BRANCH   1  17
HETATM   17  C   UNL     1      25.228  46.207  51.186  1.00  0.00     0.141 C 
BRANCH  17  18
HETATM   18  C   UNL     1      25.540  47.385  50.286  1.00  0.00    -0.049 A 
HETATM   19  C   UNL     1      24.540  48.108  49.612  1.00  0.00     0.014 A 
HETATM   20  C   UNL     1      24.854  49.200  48.789  1.00  0.00    -0.058 A 
HETATM   21  C   UNL     1      26.205  49.520  48.593  1.00  0.00     0.007 A 
HETATM   22  C   UNL     1      27.211  48.789  49.224  1.00  0.00     0.001 A 
HETATM   23  C   UNL     1      26.881  47.731  50.069  1.00  0.00     0.007 A 
BRANCH  20  24
HETATM   24  C   UNL     1      23.805  50.012  48.063  1.00  0.00     0.034 C 
HETATM   25  C   UNL     1      23.073  51.064  48.889  1.00  0.00     0.010 C 
ENDBRANCH  20  24
ENDBRANCH  17  18
ENDBRANCH   1  17
TORSDOF 5
ENDMDL
MODEL 3
REMARK VINA RESULT:      -8.9      1.689      2.797
REMARK  5 active torsions:
REMARK  status: ('A' for Active; 'I' for Inactive)
REMARK    1  A    between atoms: C_2  and  C_3 
REMARK    2  A    between atoms: C_5  and  C_6 
REMARK    3  A    between atoms: C_6  and  C_7 
REMARK       I    between atoms: C_7  and  N_8 
REMARK    4  A    between atoms: N_8  and  C_9 
REMARK    5  A    between atoms: C_11  and  C_12 
ROOT
HETATM    1  C   UNL     1      26.296  46.201  54.135  1.00  0.00     0.226 C 
HETATM    2  N   UNL     1      26.487  46.661  52.842  1.00  0.00    -0.327 N 
HETATM    3  O   UNL     1      25.289  45.651  54.572  1.00  0.00    -0.273 OA
HETATM    4  H   UNL     1      27.385  47.089  52.648  1.00  0.00     0.169 HD
ENDROOT
BRANCH   2   5
HETATM    5  C   UNL     1      25.626  46.502  51.735  1.00  0.00     0.035 A 
HETATM    6  C   UNL     1      25.254  47.543  50.878  1.00  0.00     0.042 A 
HETATM    7  C   UNL     1      24.356  47.334  49.817  1.00  0.00    -0.021 A 
HETATM    8  C   UNL     1      23.846  46.045  49.616  1.00  0.00     0.012 A 
HETATM    9  C   UNL     1      24.219  44.995  50.457  1.00  0.00     0.003 A 
HETATM   10  C   UNL     1      25.102  45.224  51.512  1.00  0.00     0.029 A 
BRANCH   7  11
HETATM   11  C   UNL     1      23.950  48.427  48.940  1.00  0.00     0.010 A 
HETATM   12  C   UNL     1      24.703  49.466  48.340  1.00  0.00     0.152 A 
HETATM   13  N   UNL     1      23.962  50.278  47.580  1.00  0.00    -0.187 NA
HETATM   14  N   UNL     1      22.726  49.766  47.691  1.00  0.00    -0.289 N 
HETATM   15  H   UNL     1      21.969  50.221  47.194  1.00  0.00     0.188 HD
HETATM   16  C   UNL     1      22.668  48.658  48.486  1.00  0.00     0.123 A 
ENDBRANCH   7  11
ENDBRANCH   2   5
BRANCH   1  17
HETATM   17  C   UNL     1      27.496  46.445  55.037  1.00  0.00     0.141 C 
BRANCH  17  18
HETATM   18  C   UNL     1      28.565  45.371  55.011  1.00  0.00    -0.049 A 
HETATM   19  C   UNL     1      28.528  44.289  54.113  1.00  0.00     0.014 A 
HETATM   20  C   UNL     1      29.533  43.310  54.105  1.00  0.00    -0.058 A 
HETATM   21  C   UNL     1      30.551  43.393  55.065  1.00  0.00     0.007 A 
HETATM   22  C   UNL     1      30.582  44.438  55.987  1.00  0.00     0.001 A 
HETATM   23  C   UNL     1      29.597  45.424  55.958  1.00  0.00     0.007 A 
BRANCH  20  24
HETATM   24  C   UNL     1      29.537  42.143  53.144  1.00  0.00     0.034 C 
HETATM   25  C   UNL     1      28.370  41.169  53.259  1.00  0.00     0.010 C 
ENDBRANCH  20  24
ENDBRANCH  17  18
ENDBRANCH   1  17
TORSDOF 5
ENDMDL
MODEL 4
REMARK VINA RESULT:      -8.7      5.113      7.842
REMARK  5 active torsions:
REMARK  status: ('A' for Active; 'I' for Inactive)
REMARK    1  A    between atoms: C_2  and  C_3 
REMARK    2  A    between atoms: C_5  and  C_6 
REMARK    3  A    between atoms: C_6  and  C_7 
REMARK       I    between atoms: C_7  and  N_8 
REMARK    4  A    between atoms: N_8  and  C_9 
REMARK    5  A    between atoms: C_11  and  C_12 
ROOT
HETATM    1  C   UNL     1      26.766  44.169  51.932  1.00  0.00     0.226 C 
HETATM    2  N   UNL     1      26.358  42.849  52.055  1.00  0.00    -0.327 N 
HETATM    3  O   UNL     1      27.328  44.672  50.965  1.00  0.00    -0.273 OA
HETATM    4  H   UNL     1      25.902  42.601  52.925  1.00  0.00     0.169 HD
ENDROOT
BRANCH   2   5
HETATM    5  C   UNL     1      26.399  41.841  51.068  1.00  0.00     0.035 A 
HETATM    6  C   UNL     1      27.448  40.926  50.931  1.00  0.00     0.042 A 
HETATM    7  C   UNL     1      27.456  39.970  49.899  1.00  0.00    -0.021 A 
HETATM    8  C   UNL     1      26.374  39.935  49.012  1.00  0.00     0.012 A 
HETATM    9  C   UNL     1      25.315  40.834  49.147  1.00  0.00     0.003 A 
HETATM   10  C   UNL     1      25.330  41.783  50.169  1.00  0.00     0.029 A 
BRANCH   7  11
HETATM   11  C   UNL     1      28.564  39.034  49.742  1.00  0.00     0.010 A 
HETATM   12  C   UNL     1      29.428  38.446  50.698  1.00  0.00     0.152 A 
HETATM   13  N   UNL     1      30.323  37.615  50.155  1.00  0.00    -0.187 NA
HETATM   14  N   UNL     1      30.040  37.668  48.844  1.00  0.00    -0.289 N 
HETATM   15  H   UNL     1      30.599  37.110  48.208  1.00  0.00     0.188 HD
HETATM   16  C   UNL     1      28.996  38.495  48.547  1.00  0.00     0.123 A 
ENDBRANCH   7  11
ENDBRANCH   2   5
BRANCH   1  17
HETATM   17  C   UNL     1      26.452  45.004  53.165  1.00  0.00     0.141 C 
BRANCH  17  18
HETATM   18  C   UNL     1      27.587  45.159  54.157  1.00  0.00    -0.049 A 
HETATM   19  C   UNL     1      28.587  44.183  54.320  1.00  0.00     0.014 A 
HETATM   20  C   UNL     1      29.632  44.353  55.242  1.00  0.00    -0.058 A 
HETATM   21  C   UNL     1      29.623  45.494  56.056  1.00  0.00     0.007 A 
HETATM   22  C   UNL     1      28.618  46.452  55.934  1.00  0.00     0.001 A 
HETATM   23  C   UNL     1      27.608  46.288  54.987  1.00  0.00     0.007 A 
BRANCH  20  24
HETATM   24  C   UNL     1      30.733  43.335  55.433  1.00  0.00     0.034 C 
HETATM   25  C   UNL     1      31.459  43.367  56.773  1.00  0.00     0.010 C 
ENDBRANCH  20  24
ENDBRANCH  17  18
ENDBRANCH   1  17
TORSDOF 5
ENDMDL
MODEL 5
REMARK VINA RESULT:      -8.6      2.651      4.194
REMARK  5 active torsions:
REMARK  status: ('A' for Active; 'I' for Inactive)
REMARK    1  A    between atoms: C_2  and  C_3 
REMARK    2  A    between atoms: C_5  and  C_6 
REMARK    3  A    between atoms: C_6  and  C_7 
REMARK       I    between atoms: C_7  and  N_8 
REMARK    4  A    between atoms: N_8  and  C_9 
REMARK    5  A    between atoms: C_11  and  C_12 
ROOT
HETATM    1  C   UNL     1      27.239  42.711  52.189  1.00  0.00     0.226 C 
HETATM    2  N   UNL     1      25.896  43.024  52.322  1.00  0.00    -0.327 N 
HETATM    3  O   UNL     1      27.919  42.830  51.174  1.00  0.00    -0.273 OA
HETATM    4  H   UNL     1      25.489  42.867  53.237  1.00  0.00     0.169 HD
ENDROOT
BRANCH   2   5
HETATM    5  C   UNL     1      25.057  43.641  51.369  1.00  0.00     0.035 A 
HETATM    6  C   UNL     1      25.155  44.987  50.998  1.00  0.00     0.042 A 
HETATM    7  C   UNL     1      24.262  45.559  50.075  1.00  0.00    -0.021 A 
HETATM    8  C   UNL     1      23.271  44.746  49.510  1.00  0.00     0.012 A 
HETATM    9  C   UNL     1      23.172  43.399  49.863  1.00  0.00     0.003 A 
HETATM   10  C   UNL     1      24.060  42.851  50.790  1.00  0.00     0.029 A 
BRANCH   7  11
HETATM   11  C   UNL     1      24.349  46.968  49.709  1.00  0.00     0.010 A 
HETATM   12  C   UNL     1      25.451  47.858  49.692  1.00  0.00     0.152 A 
HETATM   13  N   UNL     1      25.127  49.086  49.276  1.00  0.00    -0.187 NA
HETATM   14  N   UNL     1      23.812  48.992  49.026  1.00  0.00    -0.289 N 
HETATM   15  H   UNL     1      23.324  49.816  48.692  1.00  0.00     0.188 HD
HETATM   16  C   UNL     1      23.302  47.748  49.263  1.00  0.00     0.123 A 
ENDBRANCH   7  11
ENDBRANCH   2   5
BRANCH   1  17
HETATM   17  C   UNL     1      27.853  42.167  53.471  1.00  0.00     0.141 C 
BRANCH  17  18
HETATM   18  C   UNL     1      28.643  43.165  54.293  1.00  0.00    -0.049 A 
HETATM   19  C   UNL     1      28.196  44.479  54.523  1.00  0.00     0.014 A 
HETATM   20  C   UNL     1      28.943  45.382  55.293  1.00  0.00    -0.058 A 
HETATM   21  C   UNL     1      30.191  44.970  55.780  1.00  0.00     0.007 A 
HETATM   22  C   UNL     1      30.667  43.683  55.529  1.00  0.00     0.001 A 
HETATM   23  C   UNL     1      29.896  42.785  54.794  1.00  0.00     0.007 A 
BRANCH  20  24
HETATM   24  C   UNL     1      28.486  46.796  55.576  1.00  0.00     0.034 C 
HETATM   25  C   UNL     1      27.306  47.302  54.754  1.00  0.00     0.010 C 
ENDBRANCH  20  24
ENDBRANCH  17  18
ENDBRANCH   1  17
TORSDOF 5
ENDMDL
MODEL 6
REMARK VINA RESULT:      -8.6      1.423      2.583
REMARK  5 active torsions:
REMARK  status: ('A' for Active; 'I' for Inactive)
REMARK    1  A    between atoms: C_2  and  C_3 
REMARK    2  A    between atoms: C_5  and  C_6 
REMARK    3  A    between atoms: C_6  and  C_7 
REMARK       I    between atoms: C_7  and  N_8 
REMARK    4  A    between atoms: N_8  and  C_9 
REMARK    5  A    between atoms: C_11  and  C_12 
ROOT
HETATM    1  C   UNL     1      26.456  47.122  53.941  1.00  0.00     0.226 C 
HETATM    2  N   UNL     1      26.658  46.608  52.669  1.00  0.00    -0.327 N 
HETATM    3  O   UNL     1      25.453  47.704  54.342  1.00  0.00    -0.273 OA
HETATM    4  H   UNL     1      27.549  46.152  52.507  1.00  0.00     0.169 HD
ENDROOT
BRANCH   2   5
HETATM    5  C   UNL     1      25.729  46.544  51.610  1.00  0.00     0.035 A 
HETATM    6  C   UNL     1      25.448  47.612  50.751  1.00  0.00     0.042 A 
HETATM    7  C   UNL     1      24.478  47.503  49.739  1.00  0.00    -0.021 A 
HETATM    8  C   UNL     1      23.800  46.287  49.589  1.00  0.00     0.012 A 
HETATM    9  C   UNL     1      24.081  45.210  50.431  1.00  0.00     0.003 A 
HETATM   10  C   UNL     1      25.039  45.340  51.438  1.00  0.00     0.029 A 
BRANCH   7  11
HETATM   11  C   UNL     1      24.168  48.627  48.862  1.00  0.00     0.010 A 
HETATM   12  C   UNL     1      25.008  49.594  48.256  1.00  0.00     0.152 A 
HETATM   13  N   UNL     1      24.340  50.467  47.497  1.00  0.00    -0.187 NA
HETATM   14  N   UNL     1      23.064  50.069  47.614  1.00  0.00    -0.289 N 
HETATM   15  H   UNL     1      22.349  50.589  47.119  1.00  0.00     0.188 HD
HETATM   16  C   UNL     1      22.910  48.972  48.412  1.00  0.00     0.123 A 
ENDBRANCH   7  11
ENDBRANCH   2   5
BRANCH   1  17
HETATM   17  C   UNL     1      27.646  46.907  54.865  1.00  0.00     0.141 C 
BRANCH  17  18
HETATM   18  C   UNL     1      28.249  45.517  54.843  1.00  0.00    -0.049 A 
HETATM   19  C   UNL     1      29.539  45.244  55.331  1.00  0.00     0.014 A 
HETATM   20  C   UNL     1      30.073  43.947  55.305  1.00  0.00    -0.058 A 
HETATM   21  C   UNL     1      29.314  42.926  54.715  1.00  0.00     0.007 A 
HETATM   22  C   UNL     1      28.048  43.187  54.193  1.00  0.00     0.001 A 
HETATM   23  C   UNL     1      27.516  44.474  54.260  1.00  0.00     0.007 A 
BRANCH  20  24
HETATM   24  C   UNL     1      31.448  43.612  55.836  1.00  0.00     0.034 C 
HETATM   25  C   UNL     1      31.538  43.280  57.321  1.00  0.00     0.010 C 
ENDBRANCH  20  24
ENDBRANCH  17  18
ENDBRANCH   1  17
TORSDOF 5
ENDMDL
MODEL 7
REMARK VINA RESULT:      -8.6      3.438      9.517
REMARK  5 active torsions:
REMARK  status: ('A' for Active; 'I' for Inactive)
REMARK    1  A    between atoms: C_2  and  C_3 
REMARK    2  A    between atoms: C_5  and  C_6 
REMARK    3  A    between atoms: C_6  and  C_7 
REMARK       I    between atoms: C_7  and  N_8 
REMARK    4  A    between atoms: N_8  and  C_9 
REMARK    5  A    between atoms: C_11  and  C_12 
ROOT
HETATM    1  C   UNL     1      22.742  50.779  49.007  1.00  0.00     0.226 C 
HETATM    2  N   UNL     1      23.598  50.002  48.241  1.00  0.00    -0.327 N 
HETATM    3  O   UNL     1      22.861  51.034  50.201  1.00  0.00    -0.273 OA
HETATM    4  H   UNL     1      23.351  49.896  47.264  1.00  0.00     0.169 HD
ENDROOT
BRANCH   2   5
HETATM    5  C   UNL     1      24.830  49.436  48.633  1.00  0.00     0.035 A 
HETATM    6  C   UNL     1      24.947  48.244  49.356  1.00  0.00     0.042 A 
HETATM    7  C   UNL     1      26.201  47.752  49.759  1.00  0.00    -0.021 A 
HETATM    8  C   UNL     1      27.348  48.473  49.404  1.00  0.00     0.012 A 
HETATM    9  C   UNL     1      27.245  49.656  48.672  1.00  0.00     0.003 A 
HETATM   10  C   UNL     1      25.991  50.136  48.292  1.00  0.00     0.029 A 
BRANCH   7  11
HETATM   11  C   UNL     1      26.319  46.522  50.535  1.00  0.00     0.010 A 
HETATM   12  C   UNL     1      25.935  46.221  51.864  1.00  0.00     0.152 A 
HETATM   13  N   UNL     1      26.201  44.959  52.214  1.00  0.00    -0.187 NA
HETATM   14  N   UNL     1      26.763  44.443  51.110  1.00  0.00    -0.289 N 
HETATM   15  H   UNL     1      27.060  43.474  51.128  1.00  0.00     0.188 HD
HETATM   16  C   UNL     1      26.850  45.333  50.079  1.00  0.00     0.123 A 
ENDBRANCH   7  11
ENDBRANCH   2   5
BRANCH   1  17
HETATM   17  C   UNL     1      21.564  51.324  48.213  1.00  0.00     0.141 C 
BRANCH  17  18
HETATM   18  C   UNL     1      20.195  51.049  48.802  1.00  0.00    -0.049 A 
HETATM   19  C   UNL     1      19.261  52.071  49.054  1.00  0.00     0.014 A 
HETATM   20  C   UNL     1      17.997  51.790  49.594  1.00  0.00    -0.058 A 
HETATM   21  C   UNL     1      17.702  50.465  49.946  1.00  0.00     0.007 A 
HETATM   22  C   UNL     1      18.632  49.446  49.738  1.00  0.00     0.001 A 
HETATM   23  C   UNL     1      19.868  49.736  49.165  1.00  0.00     0.007 A 
BRANCH  20  24
HETATM   24  C   UNL     1      16.962  52.859  49.862  1.00  0.00     0.034 C 
HETATM   25  C   UNL     1      15.503  52.423  49.778  1.00  0.00     0.010 C 
ENDBRANCH  20  24
ENDBRANCH  17  18
ENDBRANCH   1  17
TORSDOF 5
ENDMDL
MODEL 8
REMARK VINA RESULT:      -8.4      1.423      2.006
REMARK  5 active torsions:
REMARK  status: ('A' for Active; 'I' for Inactive)
REMARK    1  A    between atoms: C_2  and  C_3 
REMARK    2  A    between atoms: C_5  and  C_6 
REMARK    3  A    between atoms: C_6  and  C_7 
REMARK       I    between atoms: C_7  and  N_8 
REMARK    4  A    between atoms: N_8  and  C_9 
REMARK    5  A    between atoms: C_11  and  C_12 
ROOT
HETATM    1  C   UNL     1      26.107  44.841  51.688  1.00  0.00     0.226 C 
HETATM    2  N   UNL     1      25.784  46.179  51.855  1.00  0.00    -0.327 N 
HETATM    3  O   UNL     1      26.247  44.251  50.622  1.00  0.00    -0.273 OA
HETATM    4  H   UNL     1      25.711  46.506  52.811  1.00  0.00     0.169 HD
ENDROOT
BRANCH   2   5
HETATM    5  C   UNL     1      25.659  47.165  50.852  1.00  0.00     0.035 A 
HETATM    6  C   UNL     1      24.440  47.556  50.290  1.00  0.00     0.042 A 
HETATM    7  C   UNL     1      24.381  48.513  49.261  1.00  0.00    -0.021 A 
HETATM    8  C   UNL     1      25.576  49.090  48.815  1.00  0.00     0.012 A 
HETATM    9  C   UNL     1      26.797  48.718  49.378  1.00  0.00     0.003 A 
HETATM   10  C   UNL     1      26.838  47.758  50.389  1.00  0.00     0.029 A 
BRANCH   7  11
HETATM   11  C   UNL     1      23.110  48.901  48.658  1.00  0.00     0.010 A 
HETATM   12  C   UNL     1      21.841  48.272  48.678  1.00  0.00     0.152 A 
HETATM   13  N   UNL     1      20.907  48.955  48.009  1.00  0.00    -0.187 NA
HETATM   14  N   UNL     1      21.573  50.026  47.552  1.00  0.00    -0.289 N 
HETATM   15  H   UNL     1      21.067  50.709  47.000  1.00  0.00     0.188 HD
HETATM   16  C   UNL     1      22.888  50.043  47.917  1.00  0.00     0.123 A 
ENDBRANCH   7  11
ENDBRANCH   2   5
BRANCH   1  17
HETATM   17  C   UNL     1      26.279  44.103  53.008  1.00  0.00     0.141 C 
BRANCH  17  18
HETATM   18  C   UNL     1      27.702  43.728  53.367  1.00  0.00    -0.049 A 
HETATM   19  C   UNL     1      28.374  44.278  54.473  1.00  0.00     0.014 A 
HETATM   20  C   UNL     1      29.691  43.909  54.788  1.00  0.00    -0.058 A 
HETATM   21  C   UNL     1      30.357  43.022  53.931  1.00  0.00     0.007 A 
HETATM   22  C   UNL     1      29.718  42.496  52.809  1.00  0.00     0.001 A 
HETATM   23  C   UNL     1      28.398  42.843  52.531  1.00  0.00     0.007 A 
BRANCH  20  24
HETATM   24  C   UNL     1      30.438  44.467  55.978  1.00  0.00     0.034 C 
HETATM   25  C   UNL     1      31.403  43.515  56.677  1.00  0.00     0.010 C 
ENDBRANCH  20  24
ENDBRANCH  17  18
ENDBRANCH   1  17
TORSDOF 5
ENDMDL
MODEL 9
REMARK VINA RESULT:      -8.4      4.463      5.913
REMARK  5 active torsions:
REMARK  status: ('A' for Active; 'I' for Inactive)
REMARK    1  A    between atoms: C_2  and  C_3 
REMARK    2  A    between atoms: C_5  and  C_6 
REMARK    3  A    between atoms: C_6  and  C_7 
REMARK       I    between atoms: C_7  and  N_8 
REMARK    4  A    between atoms: N_8  and  C_9 
REMARK    5  A    between atoms: C_11  and  C_12 
ROOT
HETATM    1  C   UNL     1      28.803  41.865  53.014  1.00  0.00     0.226 C 
HETATM    2  N   UNL     1      28.610  42.131  51.668  1.00  0.00    -0.327 N 
HETATM    3  O   UNL     1      28.014  41.302  53.767  1.00  0.00    -0.273 OA
HETATM    4  H   UNL     1      29.369  42.604  51.191  1.00  0.00     0.169 HD
ENDROOT
BRANCH   2   5
HETATM    5  C   UNL     1      27.530  41.722  50.856  1.00  0.00     0.035 A 
HETATM    6  C   UNL     1      26.369  42.479  50.660  1.00  0.00     0.042 A 
HETATM    7  C   UNL     1      25.306  41.999  49.875  1.00  0.00    -0.021 A 
HETATM    8  C   UNL     1      25.435  40.744  49.268  1.00  0.00     0.012 A 
HETATM    9  C   UNL     1      26.593  39.986  49.445  1.00  0.00     0.003 A 
HETATM   10  C   UNL     1      27.634  40.472  50.238  1.00  0.00     0.029 A 
BRANCH   7  11
HETATM   11  C   UNL     1      24.086  42.778  49.694  1.00  0.00     0.010 A 
HETATM   12  C   UNL     1      22.990  42.600  48.814  1.00  0.00     0.152 A 
HETATM   13  N   UNL     1      22.043  43.530  48.962  1.00  0.00    -0.187 NA
HETATM   14  N   UNL     1      22.527  44.316  49.936  1.00  0.00    -0.289 N 
HETATM   15  H   UNL     1      21.975  45.113  50.232  1.00  0.00     0.188 HD
HETATM   16  C   UNL     1      23.740  43.906  50.410  1.00  0.00     0.123 A 
ENDBRANCH   7  11
ENDBRANCH   2   5
BRANCH   1  17
HETATM   17  C   UNL     1      30.147  42.357  53.530  1.00  0.00     0.141 C 
BRANCH  17  18
HETATM   18  C   UNL     1      30.085  43.421  54.607  1.00  0.00    -0.049 A 
HETATM   19  C   UNL     1      29.242  44.543  54.515  1.00  0.00     0.014 A 
HETATM   20  C   UNL     1      29.198  45.512  55.529  1.00  0.00    -0.058 A 
HETATM   21  C   UNL     1      30.071  45.377  56.617  1.00  0.00     0.007 A 
HETATM   22  C   UNL     1      30.942  44.291  56.705  1.00  0.00     0.001 A 
HETATM   23  C   UNL     1      30.945  43.317  55.709  1.00  0.00     0.007 A 
BRANCH  20  24
HETATM   24  C   UNL     1      28.292  46.721  55.473  1.00  0.00     0.034 C 
HETATM   25  C   UNL     1      27.156  46.668  54.457  1.00  0.00     0.010 C 
ENDBRANCH  20  24
ENDBRANCH  17  18
ENDBRANCH   1  17
TORSDOF 5
ENDMDL
MODEL 10
REMARK VINA RESULT:      -8.4      3.103      4.360
REMARK  5 active torsions:
REMARK  status: ('A' for Active; 'I' for Inactive)
REMARK    1  A    between atoms: C_2  and  C_3 
REMARK    2  A    between atoms: C_5  and  C_6 
REMARK    3  A    between atoms: C_6  and  C_7 
REMARK       I    between atoms: C_7  and  N_8 
REMARK    4  A    between atoms: N_8  and  C_9 
REMARK    5  A    between atoms: C_11  and  C_12 
ROOT
HETATM    1  C   UNL     1      26.261  46.145  54.094  1.00  0.00     0.226 C 
HETATM    2  N   UNL     1      26.420  46.573  52.785  1.00  0.00    -0.327 N 
HETATM    3  O   UNL     1      25.279  45.576  54.561  1.00  0.00    -0.273 OA
HETATM    4  H   UNL     1      27.301  47.024  52.566  1.00  0.00     0.169 HD
ENDROOT
BRANCH   2   5
HETATM    5  C   UNL     1      25.549  46.354  51.696  1.00  0.00     0.035 A 
HETATM    6  C   UNL     1      25.173  45.086  51.240  1.00  0.00     0.042 A 
HETATM    7  C   UNL     1      24.337  44.928  50.120  1.00  0.00    -0.021 A 
HETATM    8  C   UNL     1      23.864  46.075  49.472  1.00  0.00     0.012 A 
HETATM    9  C   UNL     1      24.222  47.345  49.925  1.00  0.00     0.003 A 
HETATM   10  C   UNL     1      25.062  47.483  51.030  1.00  0.00     0.029 A 
BRANCH   7  11
HETATM   11  C   UNL     1      23.968  43.604  49.631  1.00  0.00     0.010 A 
HETATM   12  C   UNL     1      22.701  42.987  49.483  1.00  0.00     0.152 A 
HETATM   13  N   UNL     1      22.775  41.752  48.978  1.00  0.00    -0.187 NA
HETATM   14  N   UNL     1      24.093  41.567  48.802  1.00  0.00    -0.289 N 
HETATM   15  H   UNL     1      24.409  40.682  48.422  1.00  0.00     0.188 HD
HETATM   16  C   UNL     1      24.846  42.645  49.170  1.00  0.00     0.123 A 
ENDBRANCH   7  11
ENDBRANCH   2   5
BRANCH   1  17
HETATM   17  C   UNL     1      27.465  46.455  54.971  1.00  0.00     0.141 C 
BRANCH  17  18
HETATM   18  C   UNL     1      28.555  45.403  54.983  1.00  0.00    -0.049 A 
HETATM   19  C   UNL     1      28.565  44.314  54.092  1.00  0.00     0.014 A 
HETATM   20  C   UNL     1      29.590  43.356  54.119  1.00  0.00    -0.058 A 
HETATM   21  C   UNL     1      30.579  43.466  55.107  1.00  0.00     0.007 A 
HETATM   22  C   UNL     1      30.562  44.518  56.022  1.00  0.00     0.001 A 
HETATM   23  C   UNL     1      29.559  45.483  55.958  1.00  0.00     0.007 A 
BRANCH  20  24
HETATM   24  C   UNL     1      29.644  42.183  53.167  1.00  0.00     0.034 C 
HETATM   25  C   UNL     1      28.459  41.225  53.206  1.00  0.00     0.010 C 
ENDBRANCH  20  24
ENDBRANCH  17  18
ENDBRANCH   1  17
TORSDOF 5
ENDMDL
