MODEL 1
REMARK VINA RESULT:      -9.7      0.000      0.000
REMARK  6 active torsions:
REMARK  status: ('A' for Active; 'I' for Inactive)
REMARK    1  A    between atoms: C_3  and  C_4 
REMARK    2  A    between atoms: C_9  and  O_10 
REMARK    3  A    between atoms: O_10  and  C_11 
REMARK    4  A    between atoms: C_11  and  C_12 
REMARK       I    between atoms: C_12  and  N_13 
REMARK    5  A    between atoms: N_13  and  C_14 
REMARK    6  A    between atoms: C_21  and  C_22 
REMARK       I    between atoms: C_22  and  N_23 
ROOT
HETATM    1  C   UNL     1      26.097  44.662  51.072  1.00  0.00     0.246 C 
HETATM    2  N   UNL     1      25.844  45.989  51.383  1.00  0.00    -0.325 N 
HETATM    3  O   UNL     1      26.205  44.184  49.947  1.00  0.00    -0.271 OA
HETATM    4  H   UNL     1      25.805  46.203  52.374  1.00  0.00     0.169 HD
ENDROOT
BRANCH   2   5
HETATM    5  C   UNL     1      25.658  47.060  50.483  1.00  0.00     0.035 A 
HETATM    6  C   UNL     1      24.408  47.424  49.961  1.00  0.00     0.046 A 
HETATM    7  C   UNL     1      24.316  48.500  49.050  1.00  0.00     0.030 A 
HETATM    8  C   UNL     1      25.475  49.171  48.687  1.00  0.00     0.063 A 
HETATM    9  C   UNL     1      23.267  49.155  48.337  1.00  0.00     0.156 A 
HETATM   10  N   UNL     1      25.073  50.133  47.802  1.00  0.00    -0.277 N 
HETATM   11  C   UNL     1      26.735  48.841  49.190  1.00  0.00     0.034 A 
HETATM   12  H   UNL     1      25.658  50.809  47.324  1.00  0.00     0.189 HD
HETATM   13  N   UNL     1      23.751  50.159  47.569  1.00  0.00    -0.168 NA
HETATM   14  C   UNL     1      26.799  47.777  50.100  1.00  0.00     0.032 A 
BRANCH   9  15
HETATM   15  C   UNL     1      21.829  48.851  48.377  1.00  0.00     0.270 C 
HETATM   16  N   UNL     1      21.183  49.339  49.481  1.00  0.00    -0.365 N 
HETATM   17  H   UNL     1      21.722  49.846  50.173  1.00  0.00     0.159 HD
HETATM   18  H   UNL     1      20.200  49.162  49.600  1.00  0.00     0.159 HD
HETATM   19  O   UNL     1      21.224  48.215  47.522  1.00  0.00    -0.266 OA
ENDBRANCH   9  15
ENDBRANCH   2   5
BRANCH   1  20
HETATM   20  C   UNL     1      26.367  43.797  52.303  1.00  0.00     0.278 C 
BRANCH  20  21
HETATM   21  O   UNL     1      27.685  43.253  52.303  1.00  0.00    -0.342 OA
BRANCH  21  22
HETATM   22  C   UNL     1      28.439  43.621  53.388  1.00  0.00     0.069 A 
HETATM   23  C   UNL     1      29.391  42.701  53.812  1.00  0.00     0.037 A 
HETATM   24  C   UNL     1      30.224  42.997  54.896  1.00  0.00     0.011 A 
HETATM   25  C   UNL     1      30.123  44.221  55.585  1.00  0.00    -0.049 A 
HETATM   26  C   UNL     1      29.119  45.131  55.184  1.00  0.00    -0.053 A 
HETATM   27  C   UNL     1      28.900  46.446  55.887  1.00  0.00     0.049 C 
HETATM   28  C   UNL     1      28.290  44.818  54.089  1.00  0.00     0.044 A 
BRANCH  25  29
HETATM   29  C   UNL     1      31.047  44.524  56.761  1.00  0.00     0.011 C 
HETATM   30  C   UNL     1      30.237  44.976  57.977  1.00  0.00     0.015 C 
HETATM   31  C   UNL     1      31.975  43.362  57.139  1.00  0.00     0.015 C 
ENDBRANCH  25  29
ENDBRANCH  21  22
ENDBRANCH  20  21
ENDBRANCH   1  20
TORSDOF 6
ENDMDL
MODEL 2
REMARK VINA RESULT:      -9.3      2.883     10.203
REMARK  6 active torsions:
REMARK  status: ('A' for Active; 'I' for Inactive)
REMARK    1  A    between atoms: C_3  and  C_4 
REMARK    2  A    between atoms: C_9  and  O_10 
REMARK    3  A    between atoms: O_10  and  C_11 
REMARK    4  A    between atoms: C_11  and  C_12 
REMARK       I    between atoms: C_12  and  N_13 
REMARK    5  A    between atoms: N_13  and  C_14 
REMARK    6  A    between atoms: C_21  and  C_22 
REMARK       I    between atoms: C_22  and  N_23 
ROOT
HETATM    1  C   UNL     1      25.594  47.495  50.788  1.00  0.00     0.246 C 
HETATM    2  N   UNL     1      25.391  46.818  51.981  1.00  0.00    -0.325 N 
HETATM    3  O   UNL     1      26.674  47.837  50.318  1.00  0.00    -0.271 OA
HETATM    4  H   UNL     1      24.424  46.605  52.199  1.00  0.00     0.169 HD
ENDROOT
BRANCH   2   5
HETATM    5  C   UNL     1      26.372  46.386  52.898  1.00  0.00     0.035 A 
HETATM    6  C   UNL     1      26.951  45.110  52.869  1.00  0.00     0.046 A 
HETATM    7  C   UNL     1      27.916  44.755  53.838  1.00  0.00     0.030 A 
HETATM    8  C   UNL     1      28.263  45.685  54.807  1.00  0.00     0.063 A 
HETATM    9  C   UNL     1      28.711  43.604  54.123  1.00  0.00     0.156 A 
HETATM   10  N   UNL     1      29.190  45.058  55.593  1.00  0.00    -0.277 N 
HETATM   11  C   UNL     1      27.713  46.967  54.866  1.00  0.00     0.034 A 
HETATM   12  H   UNL     1      29.661  45.436  56.408  1.00  0.00     0.189 HD
HETATM   13  N   UNL     1      29.490  43.805  55.212  1.00  0.00    -0.168 NA
HETATM   14  C   UNL     1      26.767  47.299  53.886  1.00  0.00     0.032 A 
BRANCH   9  15
HETATM   15  C   UNL     1      28.746  42.332  53.385  1.00  0.00     0.270 C 
HETATM   16  N   UNL     1      29.873  42.156  52.629  1.00  0.00    -0.365 N 
HETATM   17  H   UNL     1      30.571  42.889  52.620  1.00  0.00     0.159 HD
HETATM   18  H   UNL     1      29.974  41.321  52.075  1.00  0.00     0.159 HD
HETATM   19  O   UNL     1      27.865  41.482  53.413  1.00  0.00    -0.266 OA
ENDBRANCH   9  15
ENDBRANCH   2   5
BRANCH   1  20
HETATM   20  C   UNL     1      24.309  47.698  49.986  1.00  0.00     0.278 C 
BRANCH  20  21
HETATM   21  O   UNL     1      24.246  48.988  49.381  1.00  0.00    -0.342 OA
BRANCH  21  22
HETATM   22  C   UNL     1      22.973  49.401  49.081  1.00  0.00     0.069 A 
HETATM   23  C   UNL     1      22.837  50.725  48.681  1.00  0.00     0.037 A 
HETATM   24  C   UNL     1      21.581  51.230  48.331  1.00  0.00     0.011 A 
HETATM   25  C   UNL     1      20.428  50.424  48.376  1.00  0.00    -0.049 A 
HETATM   26  C   UNL     1      20.562  49.093  48.833  1.00  0.00    -0.053 A 
HETATM   27  C   UNL     1      19.381  48.165  48.961  1.00  0.00     0.049 C 
HETATM   28  C   UNL     1      21.835  48.599  49.180  1.00  0.00     0.044 A 
BRANCH  25  29
HETATM   29  C   UNL     1      19.069  50.996  47.983  1.00  0.00     0.011 C 
HETATM   30  C   UNL     1      18.968  52.467  48.392  1.00  0.00     0.015 C 
HETATM   31  C   UNL     1      18.729  50.830  46.496  1.00  0.00     0.015 C 
ENDBRANCH  25  29
ENDBRANCH  21  22
ENDBRANCH  20  21
ENDBRANCH   1  20
TORSDOF 6
ENDMDL
MODEL 3
REMARK VINA RESULT:      -9.2      1.709      2.784
REMARK  6 active torsions:
REMARK  status: ('A' for Active; 'I' for Inactive)
REMARK    1  A    between atoms: C_3  and  C_4 
REMARK    2  A    between atoms: C_9  and  O_10 
REMARK    3  A    between atoms: O_10  and  C_11 
REMARK    4  A    between atoms: C_11  and  C_12 
REMARK       I    between atoms: C_12  and  N_13 
REMARK    5  A    between atoms: N_13  and  C_14 
REMARK    6  A    between atoms: C_21  and  C_22 
REMARK       I    between atoms: C_22  and  N_23 
ROOT
HETATM    1  C   UNL     1      25.458  46.819  50.860  1.00  0.00     0.246 C 
HETATM    2  N   UNL     1      24.878  46.984  49.613  1.00  0.00    -0.325 N 
HETATM    3  O   UNL     1      25.260  47.510  51.855  1.00  0.00    -0.271 OA
HETATM    4  H   UNL     1      25.152  46.302  48.914  1.00  0.00     0.169 HD
ENDROOT
BRANCH   2   5
HETATM    5  C   UNL     1      23.949  47.972  49.224  1.00  0.00     0.035 A 
HETATM    6  C   UNL     1      22.562  47.771  49.215  1.00  0.00     0.046 A 
HETATM    7  C   UNL     1      21.704  48.811  48.795  1.00  0.00     0.030 A 
HETATM    8  C   UNL     1      22.263  50.016  48.390  1.00  0.00     0.063 A 
HETATM    9  C   UNL     1      20.294  48.990  48.661  1.00  0.00     0.156 A 
HETATM   10  N   UNL     1      21.203  50.803  48.035  1.00  0.00    -0.277 N 
HETATM   11  C   UNL     1      23.638  50.256  48.390  1.00  0.00     0.034 A 
HETATM   12  H   UNL     1      21.235  51.754  47.683  1.00  0.00     0.189 HD
HETATM   13  N   UNL     1      20.001  50.224  48.188  1.00  0.00    -0.168 NA
HETATM   14  C   UNL     1      24.467  49.212  48.823  1.00  0.00     0.032 A 
BRANCH   9  15
HETATM   15  C   UNL     1      19.233  48.022  48.976  1.00  0.00     0.270 C 
HETATM   16  N   UNL     1      19.040  47.820  50.317  1.00  0.00    -0.365 N 
HETATM   17  H   UNL     1      19.627  48.322  50.973  1.00  0.00     0.159 HD
HETATM   18  H   UNL     1      18.346  47.160  50.625  1.00  0.00     0.159 HD
HETATM   19  O   UNL     1      18.562  47.424  48.145  1.00  0.00    -0.266 OA
ENDBRANCH   9  15
ENDBRANCH   2   5
BRANCH   1  20
HETATM   20  C   UNL     1      26.329  45.567  50.958  1.00  0.00     0.278 C 
BRANCH  20  21
HETATM   21  O   UNL     1      26.082  44.827  52.152  1.00  0.00    -0.342 OA
BRANCH  21  22
HETATM   22  C   UNL     1      27.182  44.689  52.960  1.00  0.00     0.069 A 
HETATM   23  C   UNL     1      27.246  45.538  54.058  1.00  0.00     0.037 A 
HETATM   24  C   UNL     1      28.318  45.456  54.952  1.00  0.00     0.011 A 
HETATM   25  C   UNL     1      29.357  44.523  54.767  1.00  0.00    -0.049 A 
HETATM   26  C   UNL     1      29.315  43.698  53.620  1.00  0.00    -0.053 A 
HETATM   27  C   UNL     1      30.401  42.700  53.309  1.00  0.00     0.049 C 
HETATM   28  C   UNL     1      28.226  43.792  52.731  1.00  0.00     0.044 A 
BRANCH  25  29
HETATM   29  C   UNL     1      30.514  44.447  55.759  1.00  0.00     0.011 C 
HETATM   30  C   UNL     1      30.362  45.518  56.842  1.00  0.00     0.015 C 
HETATM   31  C   UNL     1      30.697  43.064  56.397  1.00  0.00     0.015 C 
ENDBRANCH  25  29
ENDBRANCH  21  22
ENDBRANCH  20  21
ENDBRANCH   1  20
TORSDOF 6
ENDMDL
MODEL 4
REMARK VINA RESULT:      -9.0      2.417      4.107
REMARK  6 active torsions:
REMARK  status: ('A' for Active; 'I' for Inactive)
REMARK    1  A    between atoms: C_3  and  C_4 
REMARK    2  A    between atoms: C_9  and  O_10 
REMARK    3  A    between atoms: O_10  and  C_11 
REMARK    4  A    between atoms: C_11  and  C_12 
REMARK       I    between atoms: C_12  and  N_13 
REMARK    5  A    between atoms: N_13  and  C_14 
REMARK    6  A    between atoms: C_21  and  C_22 
REMARK       I    between atoms: C_22  and  N_23 
ROOT
HETATM    1  C   UNL     1      24.883  47.610  49.946  1.00  0.00     0.246 C 
HETATM    2  N   UNL     1      24.168  48.103  48.866  1.00  0.00    -0.325 N 
HETATM    3  O   UNL     1      24.692  47.873  51.129  1.00  0.00    -0.271 OA
HETATM    4  H   UNL     1      24.461  47.758  47.958  1.00  0.00     0.169 HD
ENDROOT
BRANCH   2   5
HETATM    5  C   UNL     1      23.082  49.004  48.897  1.00  0.00     0.035 A 
HETATM    6  C   UNL     1      21.784  48.639  49.278  1.00  0.00     0.046 A 
HETATM    7  C   UNL     1      20.751  49.603  49.264  1.00  0.00     0.030 A 
HETATM    8  C   UNL     1      21.050  50.897  48.861  1.00  0.00     0.063 A 
HETATM    9  C   UNL     1      19.359  49.623  49.581  1.00  0.00     0.156 A 
HETATM   10  N   UNL     1      19.868  51.581  48.939  1.00  0.00    -0.277 N 
HETATM   11  C   UNL     1      22.332  51.299  48.479  1.00  0.00     0.034 A 
HETATM   12  H   UNL     1      19.708  52.556  48.712  1.00  0.00     0.189 HD
HETATM   13  N   UNL     1      18.828  50.851  49.372  1.00  0.00    -0.168 NA
HETATM   14  C   UNL     1      23.341  50.327  48.514  1.00  0.00     0.032 A 
BRANCH   9  15
HETATM   15  C   UNL     1      18.536  48.511  50.078  1.00  0.00     0.270 C 
HETATM   16  N   UNL     1      18.776  48.177  51.384  1.00  0.00    -0.365 N 
HETATM   17  H   UNL     1      19.485  48.691  51.894  1.00  0.00     0.159 HD
HETATM   18  H   UNL     1      18.270  47.414  51.803  1.00  0.00     0.159 HD
HETATM   19  O   UNL     1      17.703  47.906  49.415  1.00  0.00    -0.266 OA
ENDBRANCH   9  15
ENDBRANCH   2   5
BRANCH   1  20
HETATM   20  C   UNL     1      25.918  46.557  49.551  1.00  0.00     0.278 C 
BRANCH  20  21
HETATM   21  O   UNL     1      25.497  45.235  49.881  1.00  0.00    -0.342 OA
BRANCH  21  22
HETATM   22  C   UNL     1      26.283  44.618  50.821  1.00  0.00     0.069 A 
HETATM   23  C   UNL     1      26.820  43.389  50.460  1.00  0.00     0.037 A 
HETATM   24  C   UNL     1      27.654  42.696  51.343  1.00  0.00     0.011 A 
HETATM   25  C   UNL     1      27.968  43.214  52.614  1.00  0.00    -0.049 A 
HETATM   26  C   UNL     1      27.378  44.440  52.998  1.00  0.00    -0.053 A 
HETATM   27  C   UNL     1      27.616  45.055  54.353  1.00  0.00     0.049 C 
HETATM   28  C   UNL     1      26.543  45.126  52.095  1.00  0.00     0.044 A 
BRANCH  25  29
HETATM   29  C   UNL     1      28.886  42.442  53.558  1.00  0.00     0.011 C 
HETATM   30  C   UNL     1      28.594  40.943  53.482  1.00  0.00     0.015 C 
HETATM   31  C   UNL     1      30.379  42.708  53.330  1.00  0.00     0.015 C 
ENDBRANCH  25  29
ENDBRANCH  21  22
ENDBRANCH  20  21
ENDBRANCH   1  20
TORSDOF 6
ENDMDL
MODEL 5
REMARK VINA RESULT:      -8.9      3.015      5.632
REMARK  6 active torsions:
REMARK  status: ('A' for Active; 'I' for Inactive)
REMARK    1  A    between atoms: C_3  and  C_4 
REMARK    2  A    between atoms: C_9  and  O_10 
REMARK    3  A    between atoms: O_10  and  C_11 
REMARK    4  A    between atoms: C_11  and  C_12 
REMARK       I    between atoms: C_12  and  N_13 
REMARK    5  A    between atoms: N_13  and  C_14 
REMARK    6  A    between atoms: C_21  and  C_22 
REMARK       I    between atoms: C_22  and  N_23 
ROOT
HETATM    1  C   UNL     1      23.383  48.623  48.812  1.00  0.00     0.246 C 
HETATM    2  N   UNL     1      22.249  48.631  49.608  1.00  0.00    -0.325 N 
HETATM    3  O   UNL     1      23.518  49.181  47.727  1.00  0.00    -0.271 OA
HETATM    4  H   UNL     1      22.330  48.126  50.483  1.00  0.00     0.169 HD
ENDROOT
BRANCH   2   5
HETATM    5  C   UNL     1      21.021  49.273  49.342  1.00  0.00     0.035 A 
HETATM    6  C   UNL     1      19.847  48.588  48.996  1.00  0.00     0.046 A 
HETATM    7  C   UNL     1      18.664  49.313  48.730  1.00  0.00     0.030 A 
HETATM    8  C   UNL     1      18.696  50.698  48.812  1.00  0.00     0.063 A 
HETATM    9  C   UNL     1      17.320  48.991  48.373  1.00  0.00     0.156 A 
HETATM   10  N   UNL     1      17.430  51.107  48.494  1.00  0.00    -0.277 N 
HETATM   11  C   UNL     1      19.843  51.415  49.158  1.00  0.00     0.034 A 
HETATM   12  H   UNL     1      17.088  52.060  48.445  1.00  0.00     0.189 HD
HETATM   13  N   UNL     1      16.572  50.109  48.227  1.00  0.00    -0.168 NA
HETATM   14  C   UNL     1      21.000  50.672  49.429  1.00  0.00     0.032 A 
BRANCH   9  15
HETATM   15  C   UNL     1      16.740  47.654  48.175  1.00  0.00     0.270 C 
HETATM   16  N   UNL     1      15.889  47.566  47.106  1.00  0.00    -0.365 N 
HETATM   17  H   UNL     1      15.713  48.398  46.556  1.00  0.00     0.159 HD
HETATM   18  H   UNL     1      15.431  46.692  46.906  1.00  0.00     0.159 HD
HETATM   19  O   UNL     1      16.968  46.680  48.881  1.00  0.00    -0.266 OA
ENDBRANCH   9  15
ENDBRANCH   2   5
BRANCH   1  20
HETATM   20  C   UNL     1      24.574  47.927  49.470  1.00  0.00     0.278 C 
BRANCH  20  21
HETATM   21  O   UNL     1      24.454  47.876  50.890  1.00  0.00    -0.342 OA
BRANCH  21  22
HETATM   22  C   UNL     1      25.282  46.960  51.486  1.00  0.00     0.069 A 
HETATM   23  C   UNL     1      25.566  47.173  52.830  1.00  0.00     0.037 A 
HETATM   24  C   UNL     1      26.382  46.278  53.529  1.00  0.00     0.011 A 
HETATM   25  C   UNL     1      26.939  45.149  52.900  1.00  0.00    -0.049 A 
HETATM   26  C   UNL     1      26.691  44.963  51.521  1.00  0.00    -0.053 A 
HETATM   27  C   UNL     1      27.278  43.811  50.748  1.00  0.00     0.049 C 
HETATM   28  C   UNL     1      25.865  45.873  50.832  1.00  0.00     0.044 A 
BRANCH  25  29
HETATM   29  C   UNL     1      27.821  44.183  53.686  1.00  0.00     0.011 C 
HETATM   30  C   UNL     1      28.720  44.949  54.659  1.00  0.00     0.015 C 
HETATM   31  C   UNL     1      27.041  43.090  54.428  1.00  0.00     0.015 C 
ENDBRANCH  25  29
ENDBRANCH  21  22
ENDBRANCH  20  21
ENDBRANCH   1  20
TORSDOF 6
ENDMDL
MODEL 6
REMARK VINA RESULT:      -8.8      2.957     10.231
REMARK  6 active torsions:
REMARK  status: ('A' for Active; 'I' for Inactive)
REMARK    1  A    between atoms: C_3  and  C_4 
REMARK    2  A    between atoms: C_9  and  O_10 
REMARK    3  A    between atoms: O_10  and  C_11 
REMARK    4  A    between atoms: C_11  and  C_12 
REMARK       I    between atoms: C_12  and  N_13 
REMARK    5  A    between atoms: N_13  and  C_14 
REMARK    6  A    between atoms: C_21  and  C_22 
REMARK       I    between atoms: C_22  and  N_23 
ROOT
HETATM    1  C   UNL     1      25.345  48.244  49.565  1.00  0.00     0.246 C 
HETATM    2  N   UNL     1      24.614  47.570  50.531  1.00  0.00    -0.325 N 
HETATM    3  O   UNL     1      26.522  48.053  49.276  1.00  0.00    -0.271 OA
HETATM    4  H   UNL     1      23.644  47.854  50.617  1.00  0.00     0.169 HD
ENDROOT
BRANCH   2   5
HETATM    5  C   UNL     1      25.064  46.536  51.379  1.00  0.00     0.035 A 
HETATM    6  C   UNL     1      25.937  46.742  52.457  1.00  0.00     0.046 A 
HETATM    7  C   UNL     1      26.350  45.645  53.245  1.00  0.00     0.030 A 
HETATM    8  C   UNL     1      25.882  44.379  52.926  1.00  0.00     0.063 A 
HETATM    9  C   UNL     1      27.186  45.457  54.387  1.00  0.00     0.156 A 
HETATM   10  N   UNL     1      26.455  43.541  53.842  1.00  0.00    -0.277 N 
HETATM   11  C   UNL     1      25.008  44.134  51.864  1.00  0.00     0.034 A 
HETATM   12  H   UNL     1      26.343  42.535  53.908  1.00  0.00     0.189 HD
HETATM   13  N   UNL     1      27.244  44.152  54.741  1.00  0.00    -0.168 NA
HETATM   14  C   UNL     1      24.604  45.241  51.105  1.00  0.00     0.032 A 
BRANCH   9  15
HETATM   15  C   UNL     1      27.919  46.485  55.141  1.00  0.00     0.270 C 
HETATM   16  N   UNL     1      28.444  46.042  56.325  1.00  0.00    -0.365 N 
HETATM   17  H   UNL     1      28.287  45.078  56.596  1.00  0.00     0.159 HD
HETATM   18  H   UNL     1      28.947  46.683  56.917  1.00  0.00     0.159 HD
HETATM   19  O   UNL     1      28.065  47.646  54.782  1.00  0.00    -0.266 OA
ENDBRANCH   9  15
ENDBRANCH   2   5
BRANCH   1  20
HETATM   20  C   UNL     1      24.503  49.222  48.748  1.00  0.00     0.278 C 
BRANCH  20  21
HETATM   21  O   UNL     1      23.506  49.868  49.537  1.00  0.00    -0.342 OA
BRANCH  21  22
HETATM   22  C   UNL     1      22.289  49.980  48.914  1.00  0.00     0.069 A 
HETATM   23  C   UNL     1      21.896  48.897  48.137  1.00  0.00     0.037 A 
HETATM   24  C   UNL     1      20.660  48.909  47.482  1.00  0.00     0.011 A 
HETATM   25  C   UNL     1      19.788  50.009  47.585  1.00  0.00    -0.049 A 
HETATM   26  C   UNL     1      20.213  51.131  48.332  1.00  0.00    -0.053 A 
HETATM   27  C   UNL     1      19.371  52.374  48.465  1.00  0.00     0.049 C 
HETATM   28  C   UNL     1      21.460  51.100  48.988  1.00  0.00     0.044 A 
BRANCH  25  29
HETATM   29  C   UNL     1      18.441  49.997  46.866  1.00  0.00     0.011 C 
HETATM   30  C   UNL     1      18.558  49.278  45.521  1.00  0.00     0.015 C 
HETATM   31  C   UNL     1      17.298  49.398  47.695  1.00  0.00     0.015 C 
ENDBRANCH  25  29
ENDBRANCH  21  22
ENDBRANCH  20  21
ENDBRANCH   1  20
TORSDOF 6
ENDMDL
MODEL 7
REMARK VINA RESULT:      -8.7      3.164     10.423
REMARK  6 active torsions:
REMARK  status: ('A' for Active; 'I' for Inactive)
REMARK    1  A    between atoms: C_3  and  C_4 
REMARK    2  A    between atoms: C_9  and  O_10 
REMARK    3  A    between atoms: O_10  and  C_11 
REMARK    4  A    between atoms: C_11  and  C_12 
REMARK       I    between atoms: C_12  and  N_13 
REMARK    5  A    between atoms: N_13  and  C_14 
REMARK    6  A    between atoms: C_21  and  C_22 
REMARK       I    between atoms: C_22  and  N_23 
ROOT
HETATM    1  C   UNL     1      24.772  47.496  50.342  1.00  0.00     0.246 C 
HETATM    2  N   UNL     1      24.525  46.322  51.036  1.00  0.00    -0.325 N 
HETATM    3  O   UNL     1      25.814  48.144  50.351  1.00  0.00    -0.271 OA
HETATM    4  H   UNL     1      23.606  45.918  50.891  1.00  0.00     0.169 HD
ENDROOT
BRANCH   2   5
HETATM    5  C   UNL     1      25.409  45.632  51.892  1.00  0.00     0.035 A 
HETATM    6  C   UNL     1      25.908  44.350  51.621  1.00  0.00     0.046 A 
HETATM    7  C   UNL     1      26.776  43.726  52.544  1.00  0.00     0.030 A 
HETATM    8  C   UNL     1      27.110  44.400  53.710  1.00  0.00     0.063 A 
HETATM    9  C   UNL     1      27.475  42.483  52.618  1.00  0.00     0.156 A 
HETATM   10  N   UNL     1      27.937  43.551  54.393  1.00  0.00    -0.277 N 
HETATM   11  C   UNL     1      26.637  45.679  54.013  1.00  0.00     0.034 A 
HETATM   12  H   UNL     1      28.370  43.712  55.296  1.00  0.00     0.189 HD
HETATM   13  N   UNL     1      28.184  42.389  53.768  1.00  0.00    -0.168 NA
HETATM   14  C   UNL     1      25.787  46.281  53.075  1.00  0.00     0.032 A 
BRANCH   9  15
HETATM   15  C   UNL     1      27.484  41.398  51.626  1.00  0.00     0.270 C 
HETATM   16  N   UNL     1      26.396  40.570  51.693  1.00  0.00    -0.365 N 
HETATM   17  H   UNL     1      25.694  40.747  52.401  1.00  0.00     0.159 HD
HETATM   18  H   UNL     1      26.328  39.788  51.062  1.00  0.00     0.159 HD
HETATM   19  O   UNL     1      28.368  41.212  50.800  1.00  0.00    -0.266 OA
ENDBRANCH   9  15
ENDBRANCH   2   5
BRANCH   1  20
HETATM   20  C   UNL     1      23.628  47.895  49.410  1.00  0.00     0.278 C 
BRANCH  20  21
HETATM   21  O   UNL     1      23.199  49.238  49.625  1.00  0.00    -0.342 OA
BRANCH  21  22
HETATM   22  C   UNL     1      22.055  49.573  48.945  1.00  0.00     0.069 A 
HETATM   23  C   UNL     1      21.608  48.651  48.007  1.00  0.00     0.037 A 
HETATM   24  C   UNL     1      20.438  48.894  47.281  1.00  0.00     0.011 A 
HETATM   25  C   UNL     1      19.687  50.069  47.472  1.00  0.00    -0.049 A 
HETATM   26  C   UNL     1      20.173  51.029  48.389  1.00  0.00    -0.053 A 
HETATM   27  C   UNL     1      19.466  52.338  48.631  1.00  0.00     0.049 C 
HETATM   28  C   UNL     1      21.352  50.767  49.114  1.00  0.00     0.044 A 
BRANCH  25  29
HETATM   29  C   UNL     1      18.410  50.309  46.673  1.00  0.00     0.011 C 
HETATM   30  C   UNL     1      18.568  49.792  45.241  1.00  0.00     0.015 C 
HETATM   31  C   UNL     1      17.151  49.716  47.318  1.00  0.00     0.015 C 
ENDBRANCH  25  29
ENDBRANCH  21  22
ENDBRANCH  20  21
ENDBRANCH   1  20
TORSDOF 6
ENDMDL
MODEL 8
REMARK VINA RESULT:      -8.5      2.975      9.780
REMARK  6 active torsions:
REMARK  status: ('A' for Active; 'I' for Inactive)
REMARK    1  A    between atoms: C_3  and  C_4 
REMARK    2  A    between atoms: C_9  and  O_10 
REMARK    3  A    between atoms: O_10  and  C_11 
REMARK    4  A    between atoms: C_11  and  C_12 
REMARK       I    between atoms: C_12  and  N_13 
REMARK    5  A    between atoms: N_13  and  C_14 
REMARK    6  A    between atoms: C_21  and  C_22 
REMARK       I    between atoms: C_22  and  N_23 
ROOT
HETATM    1  C   UNL     1      24.124  45.000  50.168  1.00  0.00     0.246 C 
HETATM    2  N   UNL     1      25.297  45.682  50.452  1.00  0.00    -0.325 N 
HETATM    3  O   UNL     1      23.510  44.258  50.928  1.00  0.00    -0.271 OA
HETATM    4  H   UNL     1      25.652  46.265  49.701  1.00  0.00     0.169 HD
ENDROOT
BRANCH   2   5
HETATM    5  C   UNL     1      26.027  45.666  51.659  1.00  0.00     0.035 A 
HETATM    6  C   UNL     1      26.898  44.629  52.024  1.00  0.00     0.046 A 
HETATM    7  C   UNL     1      27.577  44.687  53.261  1.00  0.00     0.030 A 
HETATM    8  C   UNL     1      27.357  45.774  54.095  1.00  0.00     0.063 A 
HETATM    9  C   UNL     1      28.516  43.867  53.957  1.00  0.00     0.156 A 
HETATM   10  N   UNL     1      28.129  45.543  55.200  1.00  0.00    -0.277 N 
HETATM   11  C   UNL     1      26.502  46.827  53.764  1.00  0.00     0.034 A 
HETATM   12  H   UNL     1      28.212  46.129  56.023  1.00  0.00     0.189 HD
HETATM   13  N   UNL     1      28.845  44.408  55.154  1.00  0.00    -0.168 NA
HETATM   14  C   UNL     1      25.850  46.753  52.526  1.00  0.00     0.032 A 
BRANCH   9  15
HETATM   15  C   UNL     1      29.104  42.597  53.507  1.00  0.00     0.270 C 
HETATM   16  N   UNL     1      30.323  42.729  52.897  1.00  0.00    -0.365 N 
HETATM   17  H   UNL     1      30.714  43.657  52.790  1.00  0.00     0.159 HD
HETATM   18  H   UNL     1      30.791  41.912  52.541  1.00  0.00     0.159 HD
HETATM   19  O   UNL     1      28.582  41.497  53.642  1.00  0.00    -0.266 OA
ENDBRANCH   9  15
ENDBRANCH   2   5
BRANCH   1  20
HETATM   20  C   UNL     1      23.543  45.347  48.798  1.00  0.00     0.278 C 
BRANCH  20  21
HETATM   21  O   UNL     1      22.134  45.562  48.848  1.00  0.00    -0.342 OA
BRANCH  21  22
HETATM   22  C   UNL     1      21.755  46.845  48.542  1.00  0.00     0.069 A 
HETATM   23  C   UNL     1      20.387  47.080  48.469  1.00  0.00     0.037 A 
HETATM   24  C   UNL     1      19.905  48.361  48.186  1.00  0.00     0.011 A 
HETATM   25  C   UNL     1      20.781  49.441  47.965  1.00  0.00    -0.049 A 
HETATM   26  C   UNL     1      22.171  49.188  47.988  1.00  0.00    -0.053 A 
HETATM   27  C   UNL     1      23.188  50.267  47.718  1.00  0.00     0.049 C 
HETATM   28  C   UNL     1      22.640  47.891  48.277  1.00  0.00     0.044 A 
BRANCH  25  29
HETATM   29  C   UNL     1      20.231  50.833  47.664  1.00  0.00     0.011 C 
HETATM   30  C   UNL     1      19.002  50.739  46.758  1.00  0.00     0.015 C 
HETATM   31  C   UNL     1      19.909  51.659  48.916  1.00  0.00     0.015 C 
ENDBRANCH  25  29
ENDBRANCH  21  22
ENDBRANCH  20  21
ENDBRANCH   1  20
TORSDOF 6
ENDMDL
MODEL 9
REMARK VINA RESULT:      -8.2      3.573      9.906
REMARK  6 active torsions:
REMARK  status: ('A' for Active; 'I' for Inactive)
REMARK    1  A    between atoms: C_3  and  C_4 
REMARK    2  A    between atoms: C_9  and  O_10 
REMARK    3  A    between atoms: O_10  and  C_11 
REMARK    4  A    between atoms: C_11  and  C_12 
REMARK       I    between atoms: C_12  and  N_13 
REMARK    5  A    between atoms: N_13  and  C_14 
REMARK    6  A    between atoms: C_21  and  C_22 
REMARK       I    between atoms: C_22  and  N_23 
ROOT
HETATM    1  C   UNL     1      23.544  43.991  49.679  1.00  0.00     0.246 C 
HETATM    2  N   UNL     1      24.876  43.856  49.321  1.00  0.00    -0.325 N 
HETATM    3  O   UNL     1      22.948  43.341  50.532  1.00  0.00    -0.271 OA
HETATM    4  H   UNL     1      25.199  44.497  48.604  1.00  0.00     0.169 HD
ENDROOT
BRANCH   2   5
HETATM    5  C   UNL     1      25.818  42.950  49.852  1.00  0.00     0.035 A 
HETATM    6  C   UNL     1      26.342  43.049  51.148  1.00  0.00     0.046 A 
HETATM    7  C   UNL     1      27.296  42.106  51.593  1.00  0.00     0.030 A 
HETATM    8  C   UNL     1      27.699  41.102  50.724  1.00  0.00     0.063 A 
HETATM    9  C   UNL     1      28.025  41.873  52.798  1.00  0.00     0.156 A 
HETATM   10  N   UNL     1      28.620  40.370  51.422  1.00  0.00    -0.277 N 
HETATM   11  C   UNL     1      27.196  40.969  49.428  1.00  0.00     0.034 A 
HETATM   12  H   UNL     1      29.132  39.558  51.096  1.00  0.00     0.189 HD
HETATM   13  N   UNL     1      28.840  40.799  52.675  1.00  0.00    -0.168 NA
HETATM   14  C   UNL     1      26.243  41.909  49.015  1.00  0.00     0.032 A 
BRANCH   9  15
HETATM   15  C   UNL     1      27.958  42.640  54.050  1.00  0.00     0.270 C 
HETATM   16  N   UNL     1      26.699  42.737  54.580  1.00  0.00    -0.365 N 
HETATM   17  H   UNL     1      25.929  42.302  54.085  1.00  0.00     0.159 HD
HETATM   18  H   UNL     1      26.556  43.260  55.428  1.00  0.00     0.159 HD
HETATM   19  O   UNL     1      28.917  43.165  54.602  1.00  0.00    -0.266 OA
ENDBRANCH   9  15
ENDBRANCH   2   5
BRANCH   1  20
HETATM   20  C   UNL     1      22.849  45.160  48.982  1.00  0.00     0.278 C 
BRANCH  20  21
HETATM   21  O   UNL     1      23.628  46.353  49.019  1.00  0.00    -0.342 OA
BRANCH  21  22
HETATM   22  C   UNL     1      22.919  47.491  48.729  1.00  0.00     0.069 A 
HETATM   23  C   UNL     1      21.545  47.337  48.588  1.00  0.00     0.037 A 
HETATM   24  C   UNL     1      20.735  48.444  48.315  1.00  0.00     0.011 A 
HETATM   25  C   UNL     1      21.281  49.734  48.173  1.00  0.00    -0.049 A 
HETATM   26  C   UNL     1      22.684  49.878  48.265  1.00  0.00    -0.053 A 
HETATM   27  C   UNL     1      23.368  51.209  48.083  1.00  0.00     0.049 C 
HETATM   28  C   UNL     1      23.485  48.753  48.543  1.00  0.00     0.044 A 
BRANCH  25  29
HETATM   29  C   UNL     1      20.376  50.928  47.882  1.00  0.00     0.011 C 
HETATM   30  C   UNL     1      19.269  50.536  46.902  1.00  0.00     0.015 C 
HETATM   31  C   UNL     1      19.774  51.574  49.137  1.00  0.00     0.015 C 
ENDBRANCH  25  29
ENDBRANCH  21  22
ENDBRANCH  20  21
ENDBRANCH   1  20
TORSDOF 6
ENDMDL
MODEL 10
REMARK VINA RESULT:      -8.2     11.990     13.883
REMARK  6 active torsions:
REMARK  status: ('A' for Active; 'I' for Inactive)
REMARK    1  A    between atoms: C_3  and  C_4 
REMARK    2  A    between atoms: C_9  and  O_10 
REMARK    3  A    between atoms: O_10  and  C_11 
REMARK    4  A    between atoms: C_11  and  C_12 
REMARK       I    between atoms: C_12  and  N_13 
REMARK    5  A    between atoms: N_13  and  C_14 
REMARK    6  A    between atoms: C_21  and  C_22 
REMARK       I    between atoms: C_22  and  N_23 
ROOT
HETATM    1  C   UNL     1      35.312  51.114  41.722  1.00  0.00     0.246 C 
HETATM    2  N   UNL     1      34.187  51.666  42.314  1.00  0.00    -0.325 N 
HETATM    3  O   UNL     1      35.333  50.188  40.917  1.00  0.00    -0.271 OA
HETATM    4  H   UNL     1      34.365  52.441  42.944  1.00  0.00     0.169 HD
ENDROOT
BRANCH   2   5
HETATM    5  C   UNL     1      32.843  51.285  42.121  1.00  0.00     0.035 A 
HETATM    6  C   UNL     1      31.926  52.029  41.366  1.00  0.00     0.046 A 
HETATM    7  C   UNL     1      30.593  51.581  41.239  1.00  0.00     0.030 A 
HETATM    8  C   UNL     1      30.219  50.407  41.878  1.00  0.00     0.063 A 
HETATM    9  C   UNL     1      29.414  52.035  40.573  1.00  0.00     0.156 A 
HETATM   10  N   UNL     1      28.893  50.244  41.586  1.00  0.00    -0.277 N 
HETATM   11  C   UNL     1      31.104  49.636  42.634  1.00  0.00     0.034 A 
HETATM   12  H   UNL     1      28.285  49.493  41.893  1.00  0.00     0.189 HD
HETATM   13  N   UNL     1      28.373  51.201  40.799  1.00  0.00    -0.168 NA
HETATM   14  C   UNL     1      32.423  50.096  42.734  1.00  0.00     0.032 A 
BRANCH   9  15
HETATM   15  C   UNL     1      29.265  53.231  39.731  1.00  0.00     0.270 C 
HETATM   16  N   UNL     1      28.804  52.972  38.468  1.00  0.00    -0.365 N 
HETATM   17  H   UNL     1      28.618  52.011  38.207  1.00  0.00     0.159 HD
HETATM   18  H   UNL     1      28.688  53.731  37.816  1.00  0.00     0.159 HD
HETATM   19  O   UNL     1      29.522  54.374  40.086  1.00  0.00    -0.266 OA
ENDBRANCH   9  15
ENDBRANCH   2   5
BRANCH   1  20
HETATM   20  C   UNL     1      36.601  51.858  42.069  1.00  0.00     0.278 C 
BRANCH  20  21
HETATM   21  O   UNL     1      36.355  53.199  42.487  1.00  0.00    -0.342 OA
BRANCH  21  22
HETATM   22  C   UNL     1      37.064  53.574  43.601  1.00  0.00     0.069 A 
HETATM   23  C   UNL     1      37.128  52.641  44.628  1.00  0.00     0.037 A 
HETATM   24  C   UNL     1      37.848  52.923  45.794  1.00  0.00     0.011 A 
HETATM   25  C   UNL     1      38.519  54.149  45.962  1.00  0.00    -0.049 A 
HETATM   26  C   UNL     1      38.407  55.116  44.937  1.00  0.00    -0.053 A 
HETATM   27  C   UNL     1      39.050  56.475  45.042  1.00  0.00     0.049 C 
HETATM   28  C   UNL     1      37.681  54.814  43.769  1.00  0.00     0.044 A 
BRANCH  25  29
HETATM   29  C   UNL     1      39.303  54.432  47.240  1.00  0.00     0.011 C 
HETATM   30  C   UNL     1      38.562  53.876  48.457  1.00  0.00     0.015 C 
HETATM   31  C   UNL     1      40.747  53.915  47.211  1.00  0.00     0.015 C 
ENDBRANCH  25  29
ENDBRANCH  21  22
ENDBRANCH  20  21
ENDBRANCH   1  20
TORSDOF 6
ENDMDL
