MODEL 1
REMARK VINA RESULT:      -8.9      0.000      0.000
REMARK  5 active torsions:
REMARK  status: ('A' for Active; 'I' for Inactive)
REMARK    1  A    between atoms: C_9  and  N_10 
REMARK       I    between atoms: N_10  and  C_11 
REMARK    2  A    between atoms: C_11  and  C_12 
REMARK    3  A    between atoms: C_12  and  N_13 
REMARK    4  A    between atoms: C_12  and  C_17 
REMARK    5  A    between atoms: C_17  and  C_18 
ROOT
HETATM    1  N   UNL     1      26.871  45.845  53.138  1.00  0.00    -0.325 N 
HETATM    2  C   UNL     1      25.934  46.823  52.872  1.00  0.00     0.253 C 
HETATM    3  O   UNL     1      25.645  47.792  53.574  1.00  0.00    -0.271 OA
HETATM    4  H   UNL     1      27.024  45.112  52.454  1.00  0.00     0.169 HD
ENDROOT
BRANCH   2   5
HETATM    5  C   UNL     1      25.195  46.665  51.537  1.00  0.00     0.280 C 
BRANCH   5   6
HETATM    6  N   UNL     1      24.417  45.368  51.557  1.00  0.00    -0.066 N 
HETATM    7  H   UNL     1      23.853  45.296  50.685  1.00  0.00     0.275 HD
HETATM    8  H   UNL     1      25.067  44.571  51.599  1.00  0.00     0.275 HD
HETATM    9  H   UNL     1      23.799  45.297  52.370  1.00  0.00     0.275 HD
ENDBRANCH   5   6
BRANCH   5  10
HETATM   10  C   UNL     1      26.187  46.663  50.367  1.00  0.00     0.103 C 
BRANCH  10  11
HETATM   11  C   UNL     1      26.192  47.956  49.626  1.00  0.00     0.053 A 
HETATM   12  N   UNL     1      25.003  48.613  49.376  1.00  0.00    -0.247 NA
HETATM   13  C   UNL     1      25.339  49.689  48.696  1.00  0.00     0.207 A 
HETATM   14  N   UNL     1      26.691  49.758  48.498  1.00  0.00    -0.359 N 
HETATM   15  H   UNL     1      27.183  50.489  47.997  1.00  0.00     0.166 HD
HETATM   16  C   UNL     1      27.248  48.656  49.091  1.00  0.00     0.116 A 
ENDBRANCH  10  11
ENDBRANCH   5  10
ENDBRANCH   2   5
BRANCH   1  17
HETATM   17  C   UNL     1      27.703  45.754  54.278  1.00  0.00     0.035 A 
HETATM   18  C   UNL     1      27.648  46.632  55.360  1.00  0.00     0.030 A 
HETATM   19  C   UNL     1      28.517  46.476  56.445  1.00  0.00     0.014 A 
HETATM   20  C   UNL     1      29.458  45.439  56.474  1.00  0.00    -0.026 A 
HETATM   21  C   UNL     1      30.337  45.276  57.557  1.00  0.00     0.012 A 
HETATM   22  C   UNL     1      29.521  44.540  55.388  1.00  0.00    -0.024 A 
HETATM   23  C   UNL     1      31.267  44.237  57.568  1.00  0.00     0.001 A 
HETATM   24  C   UNL     1      31.330  43.347  56.499  1.00  0.00     0.001 A 
HETATM   25  C   UNL     1      30.463  43.497  55.415  1.00  0.00     0.012 A 
HETATM   26  C   UNL     1      28.641  44.711  54.303  1.00  0.00     0.042 A 
ENDBRANCH   1  17
TORSDOF 5
ENDMDL
MODEL 2
REMARK VINA RESULT:      -8.8      1.354      2.158
REMARK  5 active torsions:
REMARK  status: ('A' for Active; 'I' for Inactive)
REMARK    1  A    between atoms: C_9  and  N_10 
REMARK       I    between atoms: N_10  and  C_11 
REMARK    2  A    between atoms: C_11  and  C_12 
REMARK    3  A    between atoms: C_12  and  N_13 
REMARK    4  A    between atoms: C_12  and  C_17 
REMARK    5  A    between atoms: C_17  and  C_18 
ROOT
HETATM    1  N   UNL     1      27.343  44.936  52.791  1.00  0.00    -0.325 N 
HETATM    2  C   UNL     1      25.979  44.792  52.944  1.00  0.00     0.253 C 
HETATM    3  O   UNL     1      25.385  44.241  53.871  1.00  0.00    -0.271 OA
HETATM    4  H   UNL     1      27.696  45.438  51.984  1.00  0.00     0.169 HD
ENDROOT
BRANCH   2   5
HETATM    5  C   UNL     1      25.133  45.410  51.824  1.00  0.00     0.280 C 
BRANCH   5   6
HETATM    6  N   UNL     1      24.208  44.351  51.266  1.00  0.00    -0.066 N 
HETATM    7  H   UNL     1      24.257  43.504  51.870  1.00  0.00     0.275 HD
HETATM    8  H   UNL     1      23.240  44.700  51.260  1.00  0.00     0.275 HD
HETATM    9  H   UNL     1      24.444  44.097  50.302  1.00  0.00     0.275 HD
ENDBRANCH   5   6
BRANCH   5  10
HETATM   10  C   UNL     1      26.032  45.960  50.709  1.00  0.00     0.103 C 
BRANCH  10  11
HETATM   11  C   UNL     1      25.439  47.155  50.043  1.00  0.00     0.053 A 
HETATM   12  N   UNL     1      24.075  47.229  49.844  1.00  0.00    -0.247 NA
HETATM   13  C   UNL     1      23.878  48.373  49.222  1.00  0.00     0.207 A 
HETATM   14  N   UNL     1      25.052  49.041  49.013  1.00  0.00    -0.359 N 
HETATM   15  H   UNL     1      25.154  49.937  48.548  1.00  0.00     0.166 HD
HETATM   16  C   UNL     1      26.059  48.273  49.536  1.00  0.00     0.116 A 
ENDBRANCH  10  11
ENDBRANCH   5  10
ENDBRANCH   2   5
BRANCH   1  17
HETATM   17  C   UNL     1      28.350  44.482  53.675  1.00  0.00     0.035 A 
HETATM   18  C   UNL     1      29.116  43.337  53.466  1.00  0.00     0.030 A 
HETATM   19  C   UNL     1      30.086  42.953  54.399  1.00  0.00     0.014 A 
HETATM   20  C   UNL     1      30.311  43.705  55.559  1.00  0.00    -0.026 A 
HETATM   21  C   UNL     1      31.280  43.326  56.502  1.00  0.00     0.012 A 
HETATM   22  C   UNL     1      29.545  44.870  55.780  1.00  0.00    -0.024 A 
HETATM   23  C   UNL     1      31.490  44.089  57.651  1.00  0.00     0.001 A 
HETATM   24  C   UNL     1      30.738  45.239  57.871  1.00  0.00     0.001 A 
HETATM   25  C   UNL     1      29.771  45.628  56.941  1.00  0.00     0.012 A 
HETATM   26  C   UNL     1      28.573  45.242  54.833  1.00  0.00     0.042 A 
ENDBRANCH   1  17
TORSDOF 5
ENDMDL
MODEL 3
REMARK VINA RESULT:      -8.8      3.135      4.094
REMARK  5 active torsions:
REMARK  status: ('A' for Active; 'I' for Inactive)
REMARK    1  A    between atoms: C_9  and  N_10 
REMARK       I    between atoms: N_10  and  C_11 
REMARK    2  A    between atoms: C_11  and  C_12 
REMARK    3  A    between atoms: C_12  and  N_13 
REMARK    4  A    between atoms: C_12  and  C_17 
REMARK    5  A    between atoms: C_17  and  C_18 
ROOT
HETATM    1  N   UNL     1      27.317  44.541  52.888  1.00  0.00    -0.325 N 
HETATM    2  C   UNL     1      25.976  44.221  52.817  1.00  0.00     0.253 C 
HETATM    3  O   UNL     1      25.180  44.126  53.752  1.00  0.00    -0.271 OA
HETATM    4  H   UNL     1      27.853  44.608  52.029  1.00  0.00     0.169 HD
ENDROOT
BRANCH   2   5
HETATM    5  C   UNL     1      25.444  43.973  51.400  1.00  0.00     0.280 C 
BRANCH   5   6
HETATM    6  N   UNL     1      24.750  42.630  51.364  1.00  0.00    -0.066 N 
HETATM    7  H   UNL     1      25.350  41.949  50.854  1.00  0.00     0.275 HD
HETATM    8  H   UNL     1      24.600  42.287  52.323  1.00  0.00     0.275 HD
HETATM    9  H   UNL     1      23.831  42.679  50.914  1.00  0.00     0.275 HD
ENDBRANCH   5   6
BRANCH   5  10
HETATM   10  C   UNL     1      26.591  43.996  50.381  1.00  0.00     0.103 C 
BRANCH  10  11
HETATM   11  C   UNL     1      27.074  42.628  50.041  1.00  0.00     0.053 A 
HETATM   12  N   UNL     1      27.740  41.876  50.988  1.00  0.00    -0.247 NA
HETATM   13  C   UNL     1      28.050  40.750  50.380  1.00  0.00     0.207 A 
HETATM   14  N   UNL     1      27.613  40.740  49.085  1.00  0.00    -0.359 N 
HETATM   15  H   UNL     1      27.741  39.987  48.418  1.00  0.00     0.166 HD
HETATM   16  C   UNL     1      26.984  41.936  48.856  1.00  0.00     0.116 A 
ENDBRANCH  10  11
ENDBRANCH   5  10
ENDBRANCH   2   5
BRANCH   1  17
HETATM   17  C   UNL     1      28.060  44.834  54.056  1.00  0.00     0.035 A 
HETATM   18  C   UNL     1      27.854  45.959  54.852  1.00  0.00     0.030 A 
HETATM   19  C   UNL     1      28.642  46.178  55.987  1.00  0.00     0.014 A 
HETATM   20  C   UNL     1      29.651  45.277  56.352  1.00  0.00    -0.026 A 
HETATM   21  C   UNL     1      30.450  45.490  57.487  1.00  0.00     0.012 A 
HETATM   22  C   UNL     1      29.866  44.132  55.557  1.00  0.00    -0.024 A 
HETATM   23  C   UNL     1      31.450  44.581  57.834  1.00  0.00     0.001 A 
HETATM   24  C   UNL     1      31.663  43.449  57.053  1.00  0.00     0.001 A 
HETATM   25  C   UNL     1      30.876  43.225  55.921  1.00  0.00     0.012 A 
HETATM   26  C   UNL     1      29.066  43.925  54.417  1.00  0.00     0.042 A 
ENDBRANCH   1  17
TORSDOF 5
ENDMDL
MODEL 4
REMARK VINA RESULT:      -8.7      1.856      2.098
REMARK  5 active torsions:
REMARK  status: ('A' for Active; 'I' for Inactive)
REMARK    1  A    between atoms: C_9  and  N_10 
REMARK       I    between atoms: N_10  and  C_11 
REMARK    2  A    between atoms: C_11  and  C_12 
REMARK    3  A    between atoms: C_12  and  N_13 
REMARK    4  A    between atoms: C_12  and  C_17 
REMARK    5  A    between atoms: C_17  and  C_18 
ROOT
HETATM    1  N   UNL     1      26.928  44.820  53.097  1.00  0.00    -0.325 N 
HETATM    2  C   UNL     1      25.584  44.510  53.156  1.00  0.00     0.253 C 
HETATM    3  O   UNL     1      24.896  44.354  54.165  1.00  0.00    -0.271 OA
HETATM    4  H   UNL     1      27.364  44.945  52.190  1.00  0.00     0.169 HD
ENDROOT
BRANCH   2   5
HETATM    5  C   UNL     1      24.894  44.363  51.794  1.00  0.00     0.280 C 
BRANCH   5   6
HETATM    6  N   UNL     1      24.989  42.921  51.348  1.00  0.00    -0.066 N 
HETATM    7  H   UNL     1      25.813  42.812  50.720  1.00  0.00     0.275 HD
HETATM    8  H   UNL     1      25.112  42.309  52.166  1.00  0.00     0.275 HD
HETATM    9  H   UNL     1      24.145  42.608  50.860  1.00  0.00     0.275 HD
ENDBRANCH   5   6
BRANCH   5  10
HETATM   10  C   UNL     1      25.553  45.277  50.752  1.00  0.00     0.103 C 
BRANCH  10  11
HETATM   11  C   UNL     1      24.584  46.231  50.142  1.00  0.00     0.053 A 
HETATM   12  N   UNL     1      24.718  47.588  50.363  1.00  0.00    -0.247 NA
HETATM   13  C   UNL     1      23.712  48.143  49.721  1.00  0.00     0.207 A 
HETATM   14  N   UNL     1      22.936  47.208  49.094  1.00  0.00    -0.359 N 
HETATM   15  H   UNL     1      22.104  47.394  48.545  1.00  0.00     0.166 HD
HETATM   16  C   UNL     1      23.485  45.980  49.354  1.00  0.00     0.116 A 
ENDBRANCH  10  11
ENDBRANCH   5  10
ENDBRANCH   2   5
BRANCH   1  17
HETATM   17  C   UNL     1      27.799  45.029  54.192  1.00  0.00     0.035 A 
HETATM   18  C   UNL     1      27.749  46.140  55.032  1.00  0.00     0.030 A 
HETATM   19  C   UNL     1      28.658  46.273  56.087  1.00  0.00     0.014 A 
HETATM   20  C   UNL     1      29.635  45.298  56.326  1.00  0.00    -0.026 A 
HETATM   21  C   UNL     1      30.554  45.424  57.381  1.00  0.00     0.012 A 
HETATM   22  C   UNL     1      29.694  44.166  55.486  1.00  0.00    -0.024 A 
HETATM   23  C   UNL     1      31.520  44.443  57.604  1.00  0.00     0.001 A 
HETATM   24  C   UNL     1      31.579  43.324  56.778  1.00  0.00     0.001 A 
HETATM   25  C   UNL     1      30.672  43.185  55.725  1.00  0.00     0.012 A 
HETATM   26  C   UNL     1      28.774  44.047  54.428  1.00  0.00     0.042 A 
ENDBRANCH   1  17
TORSDOF 5
ENDMDL
MODEL 5
REMARK VINA RESULT:      -8.7      1.676      2.003
REMARK  5 active torsions:
REMARK  status: ('A' for Active; 'I' for Inactive)
REMARK    1  A    between atoms: C_9  and  N_10 
REMARK       I    between atoms: N_10  and  C_11 
REMARK    2  A    between atoms: C_11  and  C_12 
REMARK    3  A    between atoms: C_12  and  N_13 
REMARK    4  A    between atoms: C_12  and  C_17 
REMARK    5  A    between atoms: C_17  and  C_18 
ROOT
HETATM    1  N   UNL     1      27.046  44.451  52.624  1.00  0.00    -0.325 N 
HETATM    2  C   UNL     1      25.688  44.207  52.590  1.00  0.00     0.253 C 
HETATM    3  O   UNL     1      24.904  44.210  53.539  1.00  0.00    -0.271 OA
HETATM    4  H   UNL     1      27.569  44.440  51.755  1.00  0.00     0.169 HD
ENDROOT
BRANCH   2   5
HETATM    5  C   UNL     1      25.117  43.916  51.196  1.00  0.00     0.280 C 
BRANCH   5   6
HETATM    6  N   UNL     1      24.992  42.419  51.020  1.00  0.00    -0.066 N 
HETATM    7  H   UNL     1      25.442  41.942  51.829  1.00  0.00     0.275 HD
HETATM    8  H   UNL     1      23.999  42.152  50.987  1.00  0.00     0.275 HD
HETATM    9  H   UNL     1      25.422  42.092  50.150  1.00  0.00     0.275 HD
ENDBRANCH   5   6
BRANCH   5  10
HETATM   10  C   UNL     1      26.028  44.496  50.107  1.00  0.00     0.103 C 
BRANCH  10  11
HETATM   11  C   UNL     1      25.789  45.951  49.886  1.00  0.00     0.053 A 
HETATM   12  N   UNL     1      26.838  46.777  49.533  1.00  0.00    -0.247 NA
HETATM   13  C   UNL     1      26.313  47.981  49.438  1.00  0.00     0.207 A 
HETATM   14  N   UNL     1      24.973  47.969  49.711  1.00  0.00    -0.359 N 
HETATM   15  H   UNL     1      24.357  48.774  49.710  1.00  0.00     0.166 HD
HETATM   16  C   UNL     1      24.626  46.675  49.997  1.00  0.00     0.116 A 
ENDBRANCH  10  11
ENDBRANCH   5  10
ENDBRANCH   2   5
BRANCH   1  17
HETATM   17  C   UNL     1      27.825  44.762  53.763  1.00  0.00     0.035 A 
HETATM   18  C   UNL     1      27.666  45.916  54.528  1.00  0.00     0.030 A 
HETATM   19  C   UNL     1      28.489  46.151  55.635  1.00  0.00     0.014 A 
HETATM   20  C   UNL     1      29.485  45.237  56.003  1.00  0.00    -0.026 A 
HETATM   21  C   UNL     1      30.317  45.465  57.111  1.00  0.00     0.012 A 
HETATM   22  C   UNL     1      29.652  44.062  55.240  1.00  0.00    -0.024 A 
HETATM   23  C   UNL     1      31.303  44.543  57.462  1.00  0.00     0.001 A 
HETATM   24  C   UNL     1      31.469  43.382  56.712  1.00  0.00     0.001 A 
HETATM   25  C   UNL     1      30.649  43.142  55.608  1.00  0.00     0.012 A 
HETATM   26  C   UNL     1      28.818  43.840  54.128  1.00  0.00     0.042 A 
ENDBRANCH   1  17
TORSDOF 5
ENDMDL
MODEL 6
REMARK VINA RESULT:      -8.7      5.044      6.467
REMARK  5 active torsions:
REMARK  status: ('A' for Active; 'I' for Inactive)
REMARK    1  A    between atoms: C_9  and  N_10 
REMARK       I    between atoms: N_10  and  C_11 
REMARK    2  A    between atoms: C_11  and  C_12 
REMARK    3  A    between atoms: C_12  and  N_13 
REMARK    4  A    between atoms: C_12  and  C_17 
REMARK    5  A    between atoms: C_17  and  C_18 
ROOT
HETATM    1  N   UNL     1      27.117  41.841  52.129  1.00  0.00    -0.325 N 
HETATM    2  C   UNL     1      26.934  41.993  50.770  1.00  0.00     0.253 C 
HETATM    3  O   UNL     1      27.139  43.003  50.097  1.00  0.00    -0.271 OA
HETATM    4  H   UNL     1      26.930  40.938  52.552  1.00  0.00     0.169 HD
ENDROOT
BRANCH   2   5
HETATM    5  C   UNL     1      26.429  40.742  50.041  1.00  0.00     0.280 C 
BRANCH   5   6
HETATM    6  N   UNL     1      26.146  39.661  51.059  1.00  0.00    -0.066 N 
HETATM    7  H   UNL     1      25.759  40.098  51.922  1.00  0.00     0.275 HD
HETATM    8  H   UNL     1      25.454  38.998  50.684  1.00  0.00     0.275 HD
HETATM    9  H   UNL     1      26.983  39.121  51.297  1.00  0.00     0.275 HD
ENDBRANCH   5   6
BRANCH   5  10
HETATM   10  C   UNL     1      27.471  40.248  49.029  1.00  0.00     0.103 C 
BRANCH  10  11
HETATM   11  C   UNL     1      28.297  39.131  49.567  1.00  0.00     0.053 A 
HETATM   12  N   UNL     1      29.028  39.308  50.726  1.00  0.00    -0.247 NA
HETATM   13  C   UNL     1      29.655  38.167  50.917  1.00  0.00     0.207 A 
HETATM   14  N   UNL     1      29.362  37.260  49.936  1.00  0.00    -0.359 N 
HETATM   15  H   UNL     1      29.730  36.318  49.866  1.00  0.00     0.166 HD
HETATM   16  C   UNL     1      28.491  37.864  49.068  1.00  0.00     0.116 A 
ENDBRANCH  10  11
ENDBRANCH   5  10
ENDBRANCH   2   5
BRANCH   1  17
HETATM   17  C   UNL     1      27.587  42.818  53.038  1.00  0.00     0.035 A 
HETATM   18  C   UNL     1      26.925  44.013  53.313  1.00  0.00     0.030 A 
HETATM   19  C   UNL     1      27.467  44.931  54.219  1.00  0.00     0.014 A 
HETATM   20  C   UNL     1      28.680  44.674  54.871  1.00  0.00    -0.026 A 
HETATM   21  C   UNL     1      29.233  45.591  55.780  1.00  0.00     0.012 A 
HETATM   22  C   UNL     1      29.358  43.465  54.605  1.00  0.00    -0.024 A 
HETATM   23  C   UNL     1      30.442  45.317  56.420  1.00  0.00     0.001 A 
HETATM   24  C   UNL     1      31.112  44.124  56.161  1.00  0.00     0.001 A 
HETATM   25  C   UNL     1      30.574  43.203  55.259  1.00  0.00     0.012 A 
HETATM   26  C   UNL     1      28.801  42.552  53.690  1.00  0.00     0.042 A 
ENDBRANCH   1  17
TORSDOF 5
ENDMDL
MODEL 7
REMARK VINA RESULT:      -8.7      2.379      3.490
REMARK  5 active torsions:
REMARK  status: ('A' for Active; 'I' for Inactive)
REMARK    1  A    between atoms: C_9  and  N_10 
REMARK       I    between atoms: N_10  and  C_11 
REMARK    2  A    between atoms: C_11  and  C_12 
REMARK    3  A    between atoms: C_12  and  N_13 
REMARK    4  A    between atoms: C_12  and  C_17 
REMARK    5  A    between atoms: C_17  and  C_18 
ROOT
HETATM    1  N   UNL     1      27.990  43.887  52.351  1.00  0.00    -0.325 N 
HETATM    2  C   UNL     1      27.324  42.789  51.843  1.00  0.00     0.253 C 
HETATM    3  O   UNL     1      27.340  41.638  52.280  1.00  0.00    -0.271 OA
HETATM    4  H   UNL     1      27.866  44.788  51.901  1.00  0.00     0.169 HD
ENDROOT
BRANCH   2   5
HETATM    5  C   UNL     1      26.466  43.069  50.603  1.00  0.00     0.280 C 
BRANCH   5   6
HETATM    6  N   UNL     1      27.106  44.183  49.805  1.00  0.00    -0.066 N 
HETATM    7  H   UNL     1      27.593  43.775  48.980  1.00  0.00     0.275 HD
HETATM    8  H   UNL     1      26.383  44.837  49.474  1.00  0.00     0.275 HD
HETATM    9  H   UNL     1      27.773  44.727  50.360  1.00  0.00     0.275 HD
ENDBRANCH   5   6
BRANCH   5  10
HETATM   10  C   UNL     1      25.042  43.468  51.010  1.00  0.00     0.103 C 
BRANCH  10  11
HETATM   11  C   UNL     1      24.773  44.916  50.782  1.00  0.00     0.053 A 
HETATM   12  N   UNL     1      25.416  45.868  51.549  1.00  0.00    -0.247 NA
HETATM   13  C   UNL     1      24.952  47.024  51.125  1.00  0.00     0.207 A 
HETATM   14  N   UNL     1      24.041  46.864  50.119  1.00  0.00    -0.359 N 
HETATM   15  H   UNL     1      23.544  47.607  49.640  1.00  0.00     0.166 HD
HETATM   16  C   UNL     1      23.919  45.519  49.888  1.00  0.00     0.116 A 
ENDBRANCH  10  11
ENDBRANCH   5  10
ENDBRANCH   2   5
BRANCH   1  17
HETATM   17  C   UNL     1      28.830  43.919  53.488  1.00  0.00     0.035 A 
HETATM   18  C   UNL     1      29.927  43.079  53.675  1.00  0.00     0.030 A 
HETATM   19  C   UNL     1      30.700  43.171  54.838  1.00  0.00     0.014 A 
HETATM   20  C   UNL     1      30.396  44.105  55.837  1.00  0.00    -0.026 A 
HETATM   21  C   UNL     1      31.164  44.202  57.008  1.00  0.00     0.012 A 
HETATM   22  C   UNL     1      29.291  44.964  55.657  1.00  0.00    -0.024 A 
HETATM   23  C   UNL     1      30.846  45.139  57.992  1.00  0.00     0.001 A 
HETATM   24  C   UNL     1      29.758  45.989  57.817  1.00  0.00     0.001 A 
HETATM   25  C   UNL     1      28.985  45.903  56.657  1.00  0.00     0.012 A 
HETATM   26  C   UNL     1      28.522  44.859  54.483  1.00  0.00     0.042 A 
ENDBRANCH   1  17
TORSDOF 5
ENDMDL
MODEL 8
REMARK VINA RESULT:      -8.6      3.200      4.737
REMARK  5 active torsions:
REMARK  status: ('A' for Active; 'I' for Inactive)
REMARK    1  A    between atoms: C_9  and  N_10 
REMARK       I    between atoms: N_10  and  C_11 
REMARK    2  A    between atoms: C_11  and  C_12 
REMARK    3  A    between atoms: C_12  and  N_13 
REMARK    4  A    between atoms: C_12  and  C_17 
REMARK    5  A    between atoms: C_17  and  C_18 
ROOT
HETATM    1  N   UNL     1      28.147  44.249  52.687  1.00  0.00    -0.325 N 
HETATM    2  C   UNL     1      26.798  43.962  52.625  1.00  0.00     0.253 C 
HETATM    3  O   UNL     1      26.082  43.539  53.532  1.00  0.00    -0.271 OA
HETATM    4  H   UNL     1      28.610  44.617  51.863  1.00  0.00     0.169 HD
ENDROOT
BRANCH   2   5
HETATM    5  C   UNL     1      26.144  44.222  51.263  1.00  0.00     0.280 C 
BRANCH   5   6
HETATM    6  N   UNL     1      24.717  43.722  51.300  1.00  0.00    -0.066 N 
HETATM    7  H   UNL     1      24.702  42.764  51.707  1.00  0.00     0.275 HD
HETATM    8  H   UNL     1      24.144  44.342  51.889  1.00  0.00     0.275 HD
HETATM    9  H   UNL     1      24.286  43.704  50.371  1.00  0.00     0.275 HD
ENDBRANCH   5   6
BRANCH   5  10
HETATM   10  C   UNL     1      26.918  43.510  50.146  1.00  0.00     0.103 C 
BRANCH  10  11
HETATM   11  C   UNL     1      26.952  42.031  50.334  1.00  0.00     0.053 A 
HETATM   12  N   UNL     1      25.808  41.284  50.135  1.00  0.00    -0.247 NA
HETATM   13  C   UNL     1      26.156  40.042  50.400  1.00  0.00     0.207 A 
HETATM   14  N   UNL     1      27.473  39.954  50.759  1.00  0.00    -0.359 N 
HETATM   15  H   UNL     1      27.965  39.105  51.015  1.00  0.00     0.166 HD
HETATM   16  C   UNL     1      27.994  41.220  50.718  1.00  0.00     0.116 A 
ENDBRANCH  10  11
ENDBRANCH   5  10
ENDBRANCH   2   5
BRANCH   1  17
HETATM   17  C   UNL     1      28.992  44.120  53.815  1.00  0.00     0.035 A 
HETATM   18  C   UNL     1      29.941  43.112  53.971  1.00  0.00     0.030 A 
HETATM   19  C   UNL     1      30.729  43.052  55.125  1.00  0.00     0.014 A 
HETATM   20  C   UNL     1      30.587  44.000  56.147  1.00  0.00    -0.026 A 
HETATM   21  C   UNL     1      31.371  43.946  57.311  1.00  0.00     0.012 A 
HETATM   22  C   UNL     1      29.632  45.029  56.000  1.00  0.00    -0.024 A 
HETATM   23  C   UNL     1      31.215  44.899  58.318  1.00  0.00     0.001 A 
HETATM   24  C   UNL     1      30.276  45.917  58.174  1.00  0.00     0.001 A 
HETATM   25  C   UNL     1      29.489  45.982  57.023  1.00  0.00     0.012 A 
HETATM   26  C   UNL     1      28.846  45.074  54.833  1.00  0.00     0.042 A 
ENDBRANCH   1  17
TORSDOF 5
ENDMDL
MODEL 9
REMARK VINA RESULT:      -8.4      1.785      2.231
REMARK  5 active torsions:
REMARK  status: ('A' for Active; 'I' for Inactive)
REMARK    1  A    between atoms: C_9  and  N_10 
REMARK       I    between atoms: N_10  and  C_11 
REMARK    2  A    between atoms: C_11  and  C_12 
REMARK    3  A    between atoms: C_12  and  N_13 
REMARK    4  A    between atoms: C_12  and  C_17 
REMARK    5  A    between atoms: C_17  and  C_18 
ROOT
HETATM    1  N   UNL     1      25.813  45.983  52.816  1.00  0.00    -0.325 N 
HETATM    2  C   UNL     1      25.674  46.862  51.761  1.00  0.00     0.253 C 
HETATM    3  O   UNL     1      26.463  47.740  51.412  1.00  0.00    -0.271 OA
HETATM    4  H   UNL     1      25.090  45.289  52.975  1.00  0.00     0.169 HD
ENDROOT
BRANCH   2   5
HETATM    5  C   UNL     1      24.388  46.694  50.943  1.00  0.00     0.280 C 
BRANCH   5   6
HETATM    6  N   UNL     1      24.148  45.220  50.703  1.00  0.00    -0.066 N 
HETATM    7  H   UNL     1      25.048  44.767  50.442  1.00  0.00     0.275 HD
HETATM    8  H   UNL     1      23.791  44.779  51.562  1.00  0.00     0.275 HD
HETATM    9  H   UNL     1      23.455  45.053  49.968  1.00  0.00     0.275 HD
ENDBRANCH   5   6
BRANCH   5  10
HETATM   10  C   UNL     1      24.500  47.431  49.602  1.00  0.00     0.103 C 
BRANCH  10  11
HETATM   11  C   UNL     1      23.345  48.342  49.359  1.00  0.00     0.053 A 
HETATM   12  N   UNL     1      23.450  49.685  49.661  1.00  0.00    -0.247 NA
HETATM   13  C   UNL     1      22.276  50.199  49.360  1.00  0.00     0.207 A 
HETATM   14  N   UNL     1      21.419  49.250  48.874  1.00  0.00    -0.359 N 
HETATM   15  H   UNL     1      20.461  49.406  48.583  1.00  0.00     0.166 HD
HETATM   16  C   UNL     1      22.093  48.057  48.867  1.00  0.00     0.116 A 
ENDBRANCH  10  11
ENDBRANCH   5  10
ENDBRANCH   2   5
BRANCH   1  17
HETATM   17  C   UNL     1      26.900  45.903  53.718  1.00  0.00     0.035 A 
HETATM   18  C   UNL     1      27.246  46.911  54.616  1.00  0.00     0.030 A 
HETATM   19  C   UNL     1      28.346  46.754  55.467  1.00  0.00     0.014 A 
HETATM   20  C   UNL     1      29.121  45.587  55.440  1.00  0.00    -0.026 A 
HETATM   21  C   UNL     1      30.228  45.422  56.289  1.00  0.00     0.012 A 
HETATM   22  C   UNL     1      28.777  44.557  54.539  1.00  0.00    -0.024 A 
HETATM   23  C   UNL     1      30.987  44.252  56.248  1.00  0.00     0.001 A 
HETATM   24  C   UNL     1      30.649  43.234  55.361  1.00  0.00     0.001 A 
HETATM   25  C   UNL     1      29.551  43.385  54.511  1.00  0.00     0.012 A 
HETATM   26  C   UNL     1      27.669  44.730  53.688  1.00  0.00     0.042 A 
ENDBRANCH   1  17
TORSDOF 5
ENDMDL
MODEL 10
REMARK VINA RESULT:      -7.9      2.936      3.859
REMARK  5 active torsions:
REMARK  status: ('A' for Active; 'I' for Inactive)
REMARK    1  A    between atoms: C_9  and  N_10 
REMARK       I    between atoms: N_10  and  C_11 
REMARK    2  A    between atoms: C_11  and  C_12 
REMARK    3  A    between atoms: C_12  and  N_13 
REMARK    4  A    between atoms: C_12  and  C_17 
REMARK    5  A    between atoms: C_17  and  C_18 
ROOT
HETATM    1  N   UNL     1      26.523  44.370  52.062  1.00  0.00    -0.325 N 
HETATM    2  C   UNL     1      26.575  44.714  50.727  1.00  0.00     0.253 C 
HETATM    3  O   UNL     1      27.576  44.808  50.017  1.00  0.00    -0.271 OA
HETATM    4  H   UNL     1      25.620  44.307  52.519  1.00  0.00     0.169 HD
ENDROOT
BRANCH   2   5
HETATM    5  C   UNL     1      25.213  44.992  50.078  1.00  0.00     0.280 C 
BRANCH   5   6
HETATM    6  N   UNL     1      24.168  45.116  51.163  1.00  0.00    -0.066 N 
HETATM    7  H   UNL     1      23.692  46.039  51.075  1.00  0.00     0.275 HD
HETATM    8  H   UNL     1      23.466  44.370  51.062  1.00  0.00     0.275 HD
HETATM    9  H   UNL     1      24.568  45.028  52.102  1.00  0.00     0.275 HD
ENDBRANCH   5   6
BRANCH   5  10
HETATM   10  C   UNL     1      24.833  43.862  49.112  1.00  0.00     0.103 C 
BRANCH  10  11
HETATM   11  C   UNL     1      23.560  44.140  48.388  1.00  0.00     0.053 A 
HETATM   12  N   UNL     1      23.051  45.423  48.355  1.00  0.00    -0.247 NA
HETATM   13  C   UNL     1      21.928  45.331  47.673  1.00  0.00     0.207 A 
HETATM   14  N   UNL     1      21.691  44.049  47.262  1.00  0.00    -0.359 N 
HETATM   15  H   UNL     1      20.889  43.732  46.730  1.00  0.00     0.166 HD
HETATM   16  C   UNL     1      22.730  43.277  47.712  1.00  0.00     0.116 A 
ENDBRANCH  10  11
ENDBRANCH   5  10
ENDBRANCH   2   5
BRANCH   1  17
HETATM   17  C   UNL     1      27.618  44.046  52.898  1.00  0.00     0.035 A 
HETATM   18  C   UNL     1      28.410  42.910  52.746  1.00  0.00     0.030 A 
HETATM   19  C   UNL     1      29.469  42.660  53.626  1.00  0.00     0.014 A 
HETATM   20  C   UNL     1      29.759  43.542  54.675  1.00  0.00    -0.026 A 
HETATM   21  C   UNL     1      30.818  43.298  55.566  1.00  0.00     0.012 A 
HETATM   22  C   UNL     1      28.968  44.698  54.838  1.00  0.00    -0.024 A 
HETATM   23  C   UNL     1      31.092  44.188  56.605  1.00  0.00     0.001 A 
HETATM   24  C   UNL     1      30.314  45.331  56.766  1.00  0.00     0.001 A 
HETATM   25  C   UNL     1      29.258  45.585  55.889  1.00  0.00     0.012 A 
HETATM   26  C   UNL     1      27.905  44.935  53.945  1.00  0.00     0.042 A 
ENDBRANCH   1  17
TORSDOF 5
ENDMDL
