MODEL 1
REMARK VINA RESULT:      -9.0      0.000      0.000
REMARK  7 active torsions:
REMARK  status: ('A' for Active; 'I' for Inactive)
REMARK    1  A    between atoms: C_2  and  O_3 
REMARK    2  A    between atoms: O_3  and  C_4 
REMARK    3  A    between atoms: C_5  and  N_6 
REMARK       I    between atoms: N_6  and  C_7 
REMARK    4  A    between atoms: C_7  and  C_8 
REMARK    5  A    between atoms: C_8  and  N_9 
REMARK    6  A    between atoms: C_20  and  C_21 
REMARK       I    between atoms: C_21  and  N_22 
REMARK    7  A    between atoms: N_22  and  C_23 
ROOT
HETATM    1  N   UNL     1      26.554  45.341  53.318  1.00  0.00    -0.304 N 
HETATM    2  C   UNL     1      26.408  46.295  54.332  1.00  0.00     0.259 C 
HETATM    3  O   UNL     1      25.337  46.846  54.585  1.00  0.00    -0.270 OA
HETATM    4  C   UNL     1      27.728  46.655  55.037  1.00  0.00     0.141 C 
HETATM    5  C   UNL     1      28.591  47.527  54.109  1.00  0.00     0.057 C 
HETATM    6  C   UNL     1      27.430  47.448  56.315  1.00  0.00     0.057 C 
HETATM    7  O   UNL     1      28.484  45.514  55.444  1.00  0.00    -0.329 OA
HETATM    8  C   UNL     1      28.485  44.480  54.545  1.00  0.00     0.097 A 
HETATM    9  C   UNL     1      27.590  44.369  53.465  1.00  0.00     0.072 A 
HETATM   10  C   UNL     1      29.438  43.492  54.806  1.00  0.00     0.040 A 
HETATM   11  C   UNL     1      29.538  42.379  53.976  1.00  0.00     0.020 A 
HETATM   12  C   UNL     1      28.693  42.268  52.869  1.00  0.00     0.034 A 
HETATM   13  C   UNL     1      27.723  43.257  52.622  1.00  0.00     0.049 A 
ENDROOT
BRANCH   1  14
HETATM   14  C   UNL     1      25.404  45.144  52.440  1.00  0.00     0.235 C 
BRANCH  14  15
HETATM   15  C   UNL     1      25.644  45.694  51.019  1.00  0.00     0.240 C 
HETATM   16  N   UNL     1      25.168  46.986  50.881  1.00  0.00    -0.323 N 
HETATM   17  H   UNL     1      24.438  47.311  51.508  1.00  0.00     0.169 HD
HETATM   18  O   UNL     1      26.156  45.031  50.120  1.00  0.00    -0.271 OA
BRANCH  16  19
HETATM   19  C   UNL     1      25.562  47.937  49.917  1.00  0.00     0.068 A 
HETATM   20  C   UNL     1      24.546  48.606  49.208  1.00  0.00     0.095 A 
HETATM   21  C   UNL     1      24.872  49.653  48.341  1.00  0.00     0.039 A 
HETATM   22  C   UNL     1      26.208  50.013  48.155  1.00  0.00     0.003 A 
HETATM   23  C   UNL     1      27.217  49.328  48.831  1.00  0.00     0.002 A 
HETATM   24  C   UNL     1      26.895  48.292  49.711  1.00  0.00     0.032 A 
BRANCH  20  25
HETATM   25  O   UNL     1      23.257  48.182  49.445  1.00  0.00    -0.349 OA
BRANCH  25  26
HETATM   26  C   UNL     1      22.657  47.438  48.381  1.00  0.00     0.171 C 
HETATM   27  C   UNL     1      21.471  48.230  47.860  1.00  0.00     0.034 C 
ENDBRANCH  25  26
ENDBRANCH  20  25
ENDBRANCH  16  19
ENDBRANCH  14  15
ENDBRANCH   1  14
BRANCH  12  28
HETATM   28  C   UNL     1      28.743  41.091  51.958  1.00  0.00     0.252 C 
HETATM   29  N   UNL     1      28.224  41.268  50.694  1.00  0.00    -0.352 N 
HETATM   30  H   UNL     1      27.774  42.138  50.448  1.00  0.00     0.163 HD
HETATM   31  O   UNL     1      29.210  40.030  52.359  1.00  0.00    -0.268 OA
BRANCH  29  32
HETATM   32  C   UNL     1      28.256  40.209  49.708  1.00  0.00     0.084 C 
HETATM   33  C   UNL     1      26.963  39.402  49.675  1.00  0.00     0.025 C 
HETATM   34  C   UNL     1      27.048  38.687  48.337  1.00  0.00     0.002 C 
HETATM   35  C   UNL     1      27.657  39.717  47.392  1.00  0.00     0.002 C 
HETATM   36  C   UNL     1      28.387  40.732  48.275  1.00  0.00     0.025 C 
ENDBRANCH  29  32
ENDBRANCH  12  28
TORSDOF 7
ENDMDL
MODEL 2
REMARK VINA RESULT:      -8.8      2.579      4.842
REMARK  7 active torsions:
REMARK  status: ('A' for Active; 'I' for Inactive)
REMARK    1  A    between atoms: C_2  and  O_3 
REMARK    2  A    between atoms: O_3  and  C_4 
REMARK    3  A    between atoms: C_5  and  N_6 
REMARK       I    between atoms: N_6  and  C_7 
REMARK    4  A    between atoms: C_7  and  C_8 
REMARK    5  A    between atoms: C_8  and  N_9 
REMARK    6  A    between atoms: C_20  and  C_21 
REMARK       I    between atoms: C_21  and  N_22 
REMARK    7  A    between atoms: N_22  and  C_23 
ROOT
HETATM    1  N   UNL     1      25.823  44.132  52.208  1.00  0.00    -0.304 N 
HETATM    2  C   UNL     1      26.705  43.822  53.248  1.00  0.00     0.259 C 
HETATM    3  O   UNL     1      26.632  44.333  54.365  1.00  0.00    -0.270 OA
HETATM    4  C   UNL     1      27.829  42.852  52.837  1.00  0.00     0.141 C 
HETATM    5  C   UNL     1      28.855  43.588  51.960  1.00  0.00     0.057 C 
HETATM    6  C   UNL     1      28.541  42.329  54.091  1.00  0.00     0.057 C 
HETATM    7  O   UNL     1      27.356  41.700  52.139  1.00  0.00    -0.329 OA
HETATM    8  C   UNL     1      26.349  41.948  51.244  1.00  0.00     0.097 A 
HETATM    9  C   UNL     1      25.597  43.136  51.209  1.00  0.00     0.072 A 
HETATM   10  C   UNL     1      26.083  40.892  50.368  1.00  0.00     0.040 A 
HETATM   11  C   UNL     1      25.075  41.009  49.416  1.00  0.00     0.020 A 
HETATM   12  C   UNL     1      24.345  42.196  49.329  1.00  0.00     0.034 A 
HETATM   13  C   UNL     1      24.604  43.249  50.226  1.00  0.00     0.049 A 
ENDROOT
BRANCH   1  14
HETATM   14  C   UNL     1      24.897  45.235  52.448  1.00  0.00     0.235 C 
BRANCH  14  15
HETATM   15  C   UNL     1      25.465  46.595  51.992  1.00  0.00     0.240 C 
HETATM   16  N   UNL     1      25.779  46.596  50.645  1.00  0.00    -0.323 N 
HETATM   17  H   UNL     1      25.966  45.711  50.183  1.00  0.00     0.169 HD
HETATM   18  O   UNL     1      25.651  47.536  52.761  1.00  0.00    -0.271 OA
BRANCH  16  19
HETATM   19  C   UNL     1      25.912  47.721  49.805  1.00  0.00     0.068 A 
HETATM   20  C   UNL     1      24.731  48.325  49.332  1.00  0.00     0.095 A 
HETATM   21  C   UNL     1      24.799  49.521  48.611  1.00  0.00     0.039 A 
HETATM   22  C   UNL     1      26.039  50.097  48.332  1.00  0.00     0.003 A 
HETATM   23  C   UNL     1      27.210  49.481  48.771  1.00  0.00     0.002 A 
HETATM   24  C   UNL     1      27.148  48.296  49.506  1.00  0.00     0.032 A 
BRANCH  20  25
HETATM   25  O   UNL     1      23.552  47.685  49.646  1.00  0.00    -0.349 OA
BRANCH  25  26
HETATM   26  C   UNL     1      22.826  47.169  48.527  1.00  0.00     0.171 C 
HETATM   27  C   UNL     1      21.451  47.812  48.517  1.00  0.00     0.034 C 
ENDBRANCH  25  26
ENDBRANCH  20  25
ENDBRANCH  16  19
ENDBRANCH  14  15
ENDBRANCH   1  14
BRANCH  12  28
HETATM   28  C   UNL     1      23.243  42.369  48.342  1.00  0.00     0.252 C 
HETATM   29  N   UNL     1      23.236  43.548  47.628  1.00  0.00    -0.352 N 
HETATM   30  H   UNL     1      23.911  44.270  47.834  1.00  0.00     0.163 HD
HETATM   31  O   UNL     1      22.394  41.494  48.217  1.00  0.00    -0.268 OA
BRANCH  29  32
HETATM   32  C   UNL     1      22.239  43.810  46.612  1.00  0.00     0.084 C 
HETATM   33  C   UNL     1      20.962  44.412  47.186  1.00  0.00     0.025 C 
HETATM   34  C   UNL     1      20.281  44.991  45.958  1.00  0.00     0.002 C 
HETATM   35  C   UNL     1      21.422  45.569  45.127  1.00  0.00     0.002 C 
HETATM   36  C   UNL     1      22.694  44.852  45.586  1.00  0.00     0.025 C 
ENDBRANCH  29  32
ENDBRANCH  12  28
TORSDOF 7
ENDMDL
MODEL 3
REMARK VINA RESULT:      -8.7      2.705      8.019
REMARK  7 active torsions:
REMARK  status: ('A' for Active; 'I' for Inactive)
REMARK    1  A    between atoms: C_2  and  O_3 
REMARK    2  A    between atoms: O_3  and  C_4 
REMARK    3  A    between atoms: C_5  and  N_6 
REMARK       I    between atoms: N_6  and  C_7 
REMARK    4  A    between atoms: C_7  and  C_8 
REMARK    5  A    between atoms: C_8  and  N_9 
REMARK    6  A    between atoms: C_20  and  C_21 
REMARK       I    between atoms: C_21  and  N_22 
REMARK    7  A    between atoms: N_22  and  C_23 
ROOT
HETATM    1  N   UNL     1      25.959  43.346  51.741  1.00  0.00    -0.304 N 
HETATM    2  C   UNL     1      24.798  43.199  50.974  1.00  0.00     0.259 C 
HETATM    3  O   UNL     1      24.239  42.115  50.804  1.00  0.00    -0.270 OA
HETATM    4  C   UNL     1      24.341  44.500  50.289  1.00  0.00     0.141 C 
HETATM    5  C   UNL     1      25.279  44.826  49.114  1.00  0.00     0.057 C 
HETATM    6  C   UNL     1      22.918  44.321  49.745  1.00  0.00     0.057 C 
HETATM    7  O   UNL     1      24.291  45.619  51.174  1.00  0.00    -0.329 OA
HETATM    8  C   UNL     1      25.323  45.683  52.072  1.00  0.00     0.097 A 
HETATM    9  C   UNL     1      26.193  44.615  52.356  1.00  0.00     0.072 A 
HETATM   10  C   UNL     1      25.432  46.907  52.738  1.00  0.00     0.040 A 
HETATM   11  C   UNL     1      26.432  47.102  53.686  1.00  0.00     0.020 A 
HETATM   12  C   UNL     1      27.337  46.072  53.953  1.00  0.00     0.034 A 
HETATM   13  C   UNL     1      27.212  44.836  53.293  1.00  0.00     0.049 A 
ENDROOT
BRANCH   1  14
HETATM   14  C   UNL     1      26.594  42.115  52.204  1.00  0.00     0.235 C 
BRANCH  14  15
HETATM   15  C   UNL     1      27.598  41.547  51.180  1.00  0.00     0.240 C 
HETATM   16  N   UNL     1      27.006  40.624  50.336  1.00  0.00    -0.323 N 
HETATM   17  H   UNL     1      26.166  40.144  50.645  1.00  0.00     0.169 HD
HETATM   18  O   UNL     1      28.788  41.857  51.165  1.00  0.00    -0.271 OA
BRANCH  16  19
HETATM   19  C   UNL     1      27.461  40.224  49.063  1.00  0.00     0.068 A 
HETATM   20  C   UNL     1      28.090  38.968  48.960  1.00  0.00     0.095 A 
HETATM   21  C   UNL     1      28.436  38.462  47.703  1.00  0.00     0.039 A 
HETATM   22  C   UNL     1      28.189  39.216  46.556  1.00  0.00     0.003 A 
HETATM   23  C   UNL     1      27.598  40.475  46.661  1.00  0.00     0.002 A 
HETATM   24  C   UNL     1      27.234  40.978  47.911  1.00  0.00     0.032 A 
BRANCH  20  25
HETATM   25  O   UNL     1      28.303  38.295  50.142  1.00  0.00    -0.349 OA
BRANCH  25  26
HETATM   26  C   UNL     1      29.677  38.123  50.503  1.00  0.00     0.171 C 
HETATM   27  C   UNL     1      29.792  36.861  51.338  1.00  0.00     0.034 C 
ENDBRANCH  25  26
ENDBRANCH  20  25
ENDBRANCH  16  19
ENDBRANCH  14  15
ENDBRANCH   1  14
BRANCH  12  28
HETATM   28  C   UNL     1      28.414  46.219  54.971  1.00  0.00     0.252 C 
HETATM   29  N   UNL     1      29.234  45.127  55.162  1.00  0.00    -0.352 N 
HETATM   30  H   UNL     1      29.047  44.261  54.675  1.00  0.00     0.163 HD
HETATM   31  O   UNL     1      28.519  47.265  55.601  1.00  0.00    -0.268 OA
BRANCH  29  32
HETATM   32  C   UNL     1      30.341  45.166  56.093  1.00  0.00     0.084 C 
HETATM   33  C   UNL     1      29.887  45.392  57.531  1.00  0.00     0.025 C 
HETATM   34  C   UNL     1      31.101  44.964  58.338  1.00  0.00     0.002 C 
HETATM   35  C   UNL     1      31.641  43.746  57.596  1.00  0.00     0.002 C 
HETATM   36  C   UNL     1      31.106  43.841  56.165  1.00  0.00     0.025 C 
ENDBRANCH  29  32
ENDBRANCH  12  28
TORSDOF 7
ENDMDL
MODEL 4
REMARK VINA RESULT:      -8.7      2.228      8.464
REMARK  7 active torsions:
REMARK  status: ('A' for Active; 'I' for Inactive)
REMARK    1  A    between atoms: C_2  and  O_3 
REMARK    2  A    between atoms: O_3  and  C_4 
REMARK    3  A    between atoms: C_5  and  N_6 
REMARK       I    between atoms: N_6  and  C_7 
REMARK    4  A    between atoms: C_7  and  C_8 
REMARK    5  A    between atoms: C_8  and  N_9 
REMARK    6  A    between atoms: C_20  and  C_21 
REMARK       I    between atoms: C_21  and  N_22 
REMARK    7  A    between atoms: N_22  and  C_23 
ROOT
HETATM    1  N   UNL     1      25.960  43.174  51.732  1.00  0.00    -0.304 N 
HETATM    2  C   UNL     1      27.047  42.809  52.534  1.00  0.00     0.259 C 
HETATM    3  O   UNL     1      27.687  41.771  52.366  1.00  0.00    -0.270 OA
HETATM    4  C   UNL     1      27.308  43.781  53.700  1.00  0.00     0.141 C 
HETATM    5  C   UNL     1      26.230  43.595  54.782  1.00  0.00     0.057 C 
HETATM    6  C   UNL     1      28.679  43.485  54.319  1.00  0.00     0.057 C 
HETATM    7  O   UNL     1      27.339  45.151  53.300  1.00  0.00    -0.329 OA
HETATM    8  C   UNL     1      26.400  45.494  52.363  1.00  0.00     0.097 A 
HETATM    9  C   UNL     1      25.670  44.566  51.599  1.00  0.00     0.072 A 
HETATM   10  C   UNL     1      26.243  46.870  52.182  1.00  0.00     0.040 A 
HETATM   11  C   UNL     1      25.330  47.354  51.250  1.00  0.00     0.020 A 
HETATM   12  C   UNL     1      24.558  46.455  50.512  1.00  0.00     0.034 A 
HETATM   13  C   UNL     1      24.734  45.069  50.685  1.00  0.00     0.049 A 
ENDROOT
BRANCH   1  14
HETATM   14  C   UNL     1      25.495  42.174  50.774  1.00  0.00     0.235 C 
BRANCH  14  15
HETATM   15  C   UNL     1      26.560  41.832  49.712  1.00  0.00     0.240 C 
HETATM   16  N   UNL     1      26.822  40.474  49.664  1.00  0.00    -0.323 N 
HETATM   17  H   UNL     1      26.622  39.907  50.483  1.00  0.00     0.169 HD
HETATM   18  O   UNL     1      27.128  42.684  49.032  1.00  0.00    -0.271 OA
BRANCH  16  19
HETATM   19  C   UNL     1      27.386  39.755  48.591  1.00  0.00     0.068 A 
HETATM   20  C   UNL     1      28.340  38.766  48.897  1.00  0.00     0.095 A 
HETATM   21  C   UNL     1      28.829  37.931  47.888  1.00  0.00     0.039 A 
HETATM   22  C   UNL     1      28.395  38.100  46.572  1.00  0.00     0.003 A 
HETATM   23  C   UNL     1      27.476  39.101  46.263  1.00  0.00     0.002 A 
HETATM   24  C   UNL     1      26.971  39.928  47.269  1.00  0.00     0.032 A 
BRANCH  20  25
HETATM   25  O   UNL     1      28.718  38.674  50.218  1.00  0.00    -0.349 OA
BRANCH  25  26
HETATM   26  C   UNL     1      29.997  38.073  50.442  1.00  0.00     0.171 C 
HETATM   27  C   UNL     1      29.806  36.888  51.371  1.00  0.00     0.034 C 
ENDBRANCH  25  26
ENDBRANCH  20  25
ENDBRANCH  16  19
ENDBRANCH  14  15
ENDBRANCH   1  14
BRANCH  12  28
HETATM   28  C   UNL     1      23.579  46.917  49.489  1.00  0.00     0.252 C 
HETATM   29  N   UNL     1      23.105  48.204  49.627  1.00  0.00    -0.352 N 
HETATM   30  H   UNL     1      23.368  48.758  50.430  1.00  0.00     0.163 HD
HETATM   31  O   UNL     1      23.223  46.153  48.599  1.00  0.00    -0.268 OA
BRANCH  29  32
HETATM   32  C   UNL     1      22.182  48.776  48.670  1.00  0.00     0.084 C 
HETATM   33  C   UNL     1      20.728  48.637  49.104  1.00  0.00     0.025 C 
HETATM   34  C   UNL     1      20.016  49.652  48.224  1.00  0.00     0.002 C 
HETATM   35  C   UNL     1      20.975  50.836  48.157  1.00  0.00     0.002 C 
HETATM   36  C   UNL     1      22.362  50.288  48.501  1.00  0.00     0.025 C 
ENDBRANCH  29  32
ENDBRANCH  12  28
TORSDOF 7
ENDMDL
MODEL 5
REMARK VINA RESULT:      -8.7      2.359      5.475
REMARK  7 active torsions:
REMARK  status: ('A' for Active; 'I' for Inactive)
REMARK    1  A    between atoms: C_2  and  O_3 
REMARK    2  A    between atoms: O_3  and  C_4 
REMARK    3  A    between atoms: C_5  and  N_6 
REMARK       I    between atoms: N_6  and  C_7 
REMARK    4  A    between atoms: C_7  and  C_8 
REMARK    5  A    between atoms: C_8  and  N_9 
REMARK    6  A    between atoms: C_20  and  C_21 
REMARK       I    between atoms: C_21  and  N_22 
REMARK    7  A    between atoms: N_22  and  C_23 
ROOT
HETATM    1  N   UNL     1      24.330  43.753  50.121  1.00  0.00    -0.304 N 
HETATM    2  C   UNL     1      23.819  43.845  48.821  1.00  0.00     0.259 C 
HETATM    3  O   UNL     1      23.258  44.853  48.391  1.00  0.00    -0.270 OA
HETATM    4  C   UNL     1      23.942  42.539  48.015  1.00  0.00     0.141 C 
HETATM    5  C   UNL     1      22.915  41.514  48.527  1.00  0.00     0.057 C 
HETATM    6  C   UNL     1      23.656  42.820  46.535  1.00  0.00     0.057 C 
HETATM    7  O   UNL     1      25.246  41.961  48.066  1.00  0.00    -0.329 OA
HETATM    8  C   UNL     1      25.854  42.030  49.292  1.00  0.00     0.097 A 
HETATM    9  C   UNL     1      25.422  42.858  50.343  1.00  0.00     0.072 A 
HETATM   10  C   UNL     1      26.991  41.228  49.417  1.00  0.00     0.040 A 
HETATM   11  C   UNL     1      27.711  41.214  50.608  1.00  0.00     0.020 A 
HETATM   12  C   UNL     1      27.276  41.991  51.683  1.00  0.00     0.034 A 
HETATM   13  C   UNL     1      26.140  42.811  51.546  1.00  0.00     0.049 A 
ENDROOT
BRANCH   1  14
HETATM   14  C   UNL     1      24.017  44.857  51.023  1.00  0.00     0.235 C 
BRANCH  14  15
HETATM   15  C   UNL     1      25.081  45.974  50.983  1.00  0.00     0.240 C 
HETATM   16  N   UNL     1      25.357  46.376  49.688  1.00  0.00    -0.323 N 
HETATM   17  H   UNL     1      25.167  45.734  48.923  1.00  0.00     0.169 HD
HETATM   18  O   UNL     1      25.637  46.407  51.990  1.00  0.00    -0.271 OA
BRANCH  16  19
HETATM   19  C   UNL     1      25.923  47.601  49.282  1.00  0.00     0.068 A 
HETATM   20  C   UNL     1      25.053  48.590  48.785  1.00  0.00     0.095 A 
HETATM   21  C   UNL     1      25.540  49.869  48.498  1.00  0.00     0.039 A 
HETATM   22  C   UNL     1      26.894  50.154  48.674  1.00  0.00     0.003 A 
HETATM   23  C   UNL     1      27.763  49.166  49.133  1.00  0.00     0.002 A 
HETATM   24  C   UNL     1      27.280  47.891  49.438  1.00  0.00     0.032 A 
BRANCH  20  25
HETATM   25  O   UNL     1      23.735  48.221  48.635  1.00  0.00    -0.349 OA
BRANCH  25  26
HETATM   26  C   UNL     1      22.798  48.993  49.392  1.00  0.00     0.171 C 
HETATM   27  C   UNL     1      21.411  48.740  48.830  1.00  0.00     0.034 C 
ENDBRANCH  25  26
ENDBRANCH  20  25
ENDBRANCH  16  19
ENDBRANCH  14  15
ENDBRANCH   1  14
BRANCH  12  28
HETATM   28  C   UNL     1      28.017  42.029  52.975  1.00  0.00     0.252 C 
HETATM   29  N   UNL     1      28.368  43.275  53.447  1.00  0.00    -0.352 N 
HETATM   30  H   UNL     1      28.184  44.099  52.891  1.00  0.00     0.163 HD
HETATM   31  O   UNL     1      28.301  40.981  53.545  1.00  0.00    -0.268 OA
BRANCH  29  32
HETATM   32  C   UNL     1      29.054  43.439  54.711  1.00  0.00     0.084 C 
HETATM   33  C   UNL     1      30.556  43.206  54.596  1.00  0.00     0.025 C 
HETATM   34  C   UNL     1      31.092  43.843  55.867  1.00  0.00     0.002 C 
HETATM   35  C   UNL     1      30.244  45.097  56.053  1.00  0.00     0.002 C 
HETATM   36  C   UNL     1      28.955  44.865  55.261  1.00  0.00     0.025 C 
ENDBRANCH  29  32
ENDBRANCH  12  28
TORSDOF 7
ENDMDL
MODEL 6
REMARK VINA RESULT:      -8.6      2.341      7.011
REMARK  7 active torsions:
REMARK  status: ('A' for Active; 'I' for Inactive)
REMARK    1  A    between atoms: C_2  and  O_3 
REMARK    2  A    between atoms: O_3  and  C_4 
REMARK    3  A    between atoms: C_5  and  N_6 
REMARK       I    between atoms: N_6  and  C_7 
REMARK    4  A    between atoms: C_7  and  C_8 
REMARK    5  A    between atoms: C_8  and  N_9 
REMARK    6  A    between atoms: C_20  and  C_21 
REMARK       I    between atoms: C_21  and  N_22 
REMARK    7  A    between atoms: N_22  and  C_23 
ROOT
HETATM    1  N   UNL     1      25.201  45.040  50.782  1.00  0.00    -0.304 N 
HETATM    2  C   UNL     1      24.299  45.871  50.109  1.00  0.00     0.259 C 
HETATM    3  O   UNL     1      23.327  45.442  49.487  1.00  0.00    -0.270 OA
HETATM    4  C   UNL     1      24.688  47.360  50.142  1.00  0.00     0.141 C 
HETATM    5  C   UNL     1      25.878  47.607  49.200  1.00  0.00     0.057 C 
HETATM    6  C   UNL     1      23.504  48.211  49.667  1.00  0.00     0.057 C 
HETATM    7  O   UNL     1      25.018  47.831  51.448  1.00  0.00    -0.329 OA
HETATM    8  C   UNL     1      25.745  46.951  52.206  1.00  0.00     0.097 A 
HETATM    9  C   UNL     1      25.899  45.586  51.902  1.00  0.00     0.072 A 
HETATM   10  C   UNL     1      26.305  47.508  53.358  1.00  0.00     0.040 A 
HETATM   11  C   UNL     1      27.057  46.719  54.223  1.00  0.00     0.020 A 
HETATM   12  C   UNL     1      27.265  45.372  53.920  1.00  0.00     0.034 A 
HETATM   13  C   UNL     1      26.684  44.811  52.768  1.00  0.00     0.049 A 
ENDROOT
BRANCH   1  14
HETATM   14  C   UNL     1      25.042  43.603  50.574  1.00  0.00     0.235 C 
BRANCH  14  15
HETATM   15  C   UNL     1      26.281  42.958  49.920  1.00  0.00     0.240 C 
HETATM   16  N   UNL     1      26.327  41.593  50.141  1.00  0.00    -0.323 N 
HETATM   17  H   UNL     1      25.831  41.207  50.939  1.00  0.00     0.169 HD
HETATM   18  O   UNL     1      27.136  43.606  49.320  1.00  0.00    -0.271 OA
BRANCH  16  19
HETATM   19  C   UNL     1      27.033  40.635  49.385  1.00  0.00     0.068 A 
HETATM   20  C   UNL     1      26.353  40.013  48.321  1.00  0.00     0.095 A 
HETATM   21  C   UNL     1      27.043  39.159  47.455  1.00  0.00     0.039 A 
HETATM   22  C   UNL     1      28.398  38.898  47.666  1.00  0.00     0.003 A 
HETATM   23  C   UNL     1      29.063  39.487  48.740  1.00  0.00     0.002 A 
HETATM   24  C   UNL     1      28.383  40.354  49.598  1.00  0.00     0.032 A 
BRANCH  20  25
HETATM   25  O   UNL     1      25.017  40.320  48.190  1.00  0.00    -0.349 OA
BRANCH  25  26
HETATM   26  C   UNL     1      24.643  40.875  46.925  1.00  0.00     0.171 C 
HETATM   27  C   UNL     1      23.954  42.204  47.178  1.00  0.00     0.034 C 
ENDBRANCH  25  26
ENDBRANCH  20  25
ENDBRANCH  16  19
ENDBRANCH  14  15
ENDBRANCH   1  14
BRANCH  12  28
HETATM   28  C   UNL     1      28.046  44.477  54.819  1.00  0.00     0.252 C 
HETATM   29  N   UNL     1      29.022  45.076  55.587  1.00  0.00    -0.352 N 
HETATM   30  H   UNL     1      29.225  46.059  55.474  1.00  0.00     0.163 HD
HETATM   31  O   UNL     1      27.817  43.273  54.829  1.00  0.00    -0.268 OA
BRANCH  29  32
HETATM   32  C   UNL     1      29.816  44.315  56.528  1.00  0.00     0.084 C 
HETATM   33  C   UNL     1      31.036  43.672  55.879  1.00  0.00     0.025 C 
HETATM   34  C   UNL     1      31.910  43.329  57.073  1.00  0.00     0.002 C 
HETATM   35  C   UNL     1      31.737  44.509  58.023  1.00  0.00     0.002 C 
HETATM   36  C   UNL     1      30.418  45.182  57.638  1.00  0.00     0.025 C 
ENDBRANCH  29  32
ENDBRANCH  12  28
TORSDOF 7
ENDMDL
MODEL 7
REMARK VINA RESULT:      -8.4      3.818      8.542
REMARK  7 active torsions:
REMARK  status: ('A' for Active; 'I' for Inactive)
REMARK    1  A    between atoms: C_2  and  O_3 
REMARK    2  A    between atoms: O_3  and  C_4 
REMARK    3  A    between atoms: C_5  and  N_6 
REMARK       I    between atoms: N_6  and  C_7 
REMARK    4  A    between atoms: C_7  and  C_8 
REMARK    5  A    between atoms: C_8  and  N_9 
REMARK    6  A    between atoms: C_20  and  C_21 
REMARK       I    between atoms: C_21  and  N_22 
REMARK    7  A    between atoms: N_22  and  C_23 
ROOT
HETATM    1  N   UNL     1      23.867  44.439  48.786  1.00  0.00    -0.304 N 
HETATM    2  C   UNL     1      24.659  43.285  48.780  1.00  0.00     0.259 C 
HETATM    3  O   UNL     1      24.436  42.322  48.047  1.00  0.00    -0.270 OA
HETATM    4  C   UNL     1      25.777  43.298  49.839  1.00  0.00     0.141 C 
HETATM    5  C   UNL     1      25.172  43.080  51.236  1.00  0.00     0.057 C 
HETATM    6  C   UNL     1      26.769  42.164  49.553  1.00  0.00     0.057 C 
HETATM    7  O   UNL     1      26.541  44.504  49.842  1.00  0.00    -0.329 OA
HETATM    8  C   UNL     1      25.807  45.645  49.655  1.00  0.00     0.097 A 
HETATM    9  C   UNL     1      24.483  45.666  49.180  1.00  0.00     0.072 A 
HETATM   10  C   UNL     1      26.498  46.827  49.938  1.00  0.00     0.040 A 
HETATM   11  C   UNL     1      25.872  48.059  49.778  1.00  0.00     0.020 A 
HETATM   12  C   UNL     1      24.542  48.105  49.353  1.00  0.00     0.034 A 
HETATM   13  C   UNL     1      23.857  46.913  49.052  1.00  0.00     0.049 A 
ENDROOT
BRANCH   1  14
HETATM   14  C   UNL     1      22.640  44.389  47.996  1.00  0.00     0.235 C 
BRANCH  14  15
HETATM   15  C   UNL     1      21.410  44.891  48.781  1.00  0.00     0.240 C 
HETATM   16  N   UNL     1      20.827  45.990  48.176  1.00  0.00    -0.323 N 
HETATM   17  H   UNL     1      21.390  46.567  47.558  1.00  0.00     0.169 HD
HETATM   18  O   UNL     1      21.039  44.388  49.839  1.00  0.00    -0.271 OA
BRANCH  16  19
HETATM   19  C   UNL     1      19.504  46.448  48.343  1.00  0.00     0.068 A 
HETATM   20  C   UNL     1      18.461  45.571  47.988  1.00  0.00     0.095 A 
HETATM   21  C   UNL     1      17.134  45.919  48.260  1.00  0.00     0.039 A 
HETATM   22  C   UNL     1      16.843  47.148  48.853  1.00  0.00     0.003 A 
HETATM   23  C   UNL     1      17.874  48.031  49.172  1.00  0.00     0.002 A 
HETATM   24  C   UNL     1      19.202  47.682  48.919  1.00  0.00     0.032 A 
BRANCH  20  25
HETATM   25  O   UNL     1      18.836  44.383  47.402  1.00  0.00    -0.349 OA
BRANCH  25  26
HETATM   26  C   UNL     1      18.549  44.280  46.004  1.00  0.00     0.171 C 
HETATM   27  C   UNL     1      19.785  43.744  45.305  1.00  0.00     0.034 C 
ENDBRANCH  25  26
ENDBRANCH  20  25
ENDBRANCH  16  19
ENDBRANCH  14  15
ENDBRANCH   1  14
BRANCH  12  28
HETATM   28  C   UNL     1      23.829  49.397  49.147  1.00  0.00     0.252 C 
HETATM   29  N   UNL     1      22.518  49.451  49.573  1.00  0.00    -0.352 N 
HETATM   30  H   UNL     1      22.069  48.622  49.936  1.00  0.00     0.163 HD
HETATM   31  O   UNL     1      24.405  50.331  48.602  1.00  0.00    -0.268 OA
BRANCH  29  32
HETATM   32  C   UNL     1      21.738  50.664  49.463  1.00  0.00     0.084 C 
HETATM   33  C   UNL     1      21.010  50.774  48.128  1.00  0.00     0.025 C 
HETATM   34  C   UNL     1      19.959  51.835  48.404  1.00  0.00     0.002 C 
HETATM   35  C   UNL     1      19.488  51.544  49.826  1.00  0.00     0.002 C 
HETATM   36  C   UNL     1      20.607  50.740  50.493  1.00  0.00     0.025 C 
ENDBRANCH  29  32
ENDBRANCH  12  28
TORSDOF 7
ENDMDL
MODEL 8
REMARK VINA RESULT:      -8.4      2.397      8.424
REMARK  7 active torsions:
REMARK  status: ('A' for Active; 'I' for Inactive)
REMARK    1  A    between atoms: C_2  and  O_3 
REMARK    2  A    between atoms: O_3  and  C_4 
REMARK    3  A    between atoms: C_5  and  N_6 
REMARK       I    between atoms: N_6  and  C_7 
REMARK    4  A    between atoms: C_7  and  C_8 
REMARK    5  A    between atoms: C_8  and  N_9 
REMARK    6  A    between atoms: C_20  and  C_21 
REMARK       I    between atoms: C_21  and  N_22 
REMARK    7  A    between atoms: N_22  and  C_23 
ROOT
HETATM    1  N   UNL     1      25.457  42.478  50.271  1.00  0.00    -0.304 N 
HETATM    2  C   UNL     1      25.913  41.167  50.097  1.00  0.00     0.259 C 
HETATM    3  O   UNL     1      26.181  40.419  51.037  1.00  0.00    -0.270 OA
HETATM    4  C   UNL     1      26.137  40.781  48.623  1.00  0.00     0.141 C 
HETATM    5  C   UNL     1      27.404  41.473  48.092  1.00  0.00     0.057 C 
HETATM    6  C   UNL     1      26.325  39.263  48.512  1.00  0.00     0.057 C 
HETATM    7  O   UNL     1      25.034  41.109  47.778  1.00  0.00    -0.329 OA
HETATM    8  C   UNL     1      24.441  42.312  48.054  1.00  0.00     0.097 A 
HETATM    9  C   UNL     1      24.646  43.042  49.239  1.00  0.00     0.072 A 
HETATM   10  C   UNL     1      23.560  42.761  47.067  1.00  0.00     0.040 A 
HETATM   11  C   UNL     1      22.881  43.964  47.228  1.00  0.00     0.020 A 
HETATM   12  C   UNL     1      23.102  44.731  48.374  1.00  0.00     0.034 A 
HETATM   13  C   UNL     1      23.976  44.266  49.374  1.00  0.00     0.049 A 
ENDROOT
BRANCH   1  14
HETATM   14  C   UNL     1      25.471  42.996  51.637  1.00  0.00     0.235 C 
BRANCH  14  15
HETATM   15  C   UNL     1      26.799  43.698  51.990  1.00  0.00     0.240 C 
HETATM   16  N   UNL     1      27.040  43.687  53.352  1.00  0.00    -0.323 N 
HETATM   17  H   UNL     1      26.255  43.587  53.989  1.00  0.00     0.169 HD
HETATM   18  O   UNL     1      27.517  44.235  51.149  1.00  0.00    -0.271 OA
BRANCH  16  19
HETATM   19  C   UNL     1      28.285  43.840  53.995  1.00  0.00     0.068 A 
HETATM   20  C   UNL     1      28.412  44.881  54.934  1.00  0.00     0.095 A 
HETATM   21  C   UNL     1      29.577  44.993  55.700  1.00  0.00     0.039 A 
HETATM   22  C   UNL     1      30.625  44.092  55.509  1.00  0.00     0.003 A 
HETATM   23  C   UNL     1      30.514  43.082  54.555  1.00  0.00     0.002 A 
HETATM   24  C   UNL     1      29.346  42.954  53.799  1.00  0.00     0.032 A 
BRANCH  20  25
HETATM   25  O   UNL     1      27.333  45.729  55.052  1.00  0.00    -0.349 OA
BRANCH  25  26
HETATM   26  C   UNL     1      27.631  47.117  54.878  1.00  0.00     0.171 C 
HETATM   27  C   UNL     1      26.321  47.863  54.702  1.00  0.00     0.034 C 
ENDBRANCH  25  26
ENDBRANCH  20  25
ENDBRANCH  16  19
ENDBRANCH  14  15
ENDBRANCH   1  14
BRANCH  12  28
HETATM   28  C   UNL     1      22.389  46.018  48.607  1.00  0.00     0.252 C 
HETATM   29  N   UNL     1      23.176  47.140  48.755  1.00  0.00    -0.352 N 
HETATM   30  H   UNL     1      24.182  47.055  48.772  1.00  0.00     0.163 HD
HETATM   31  O   UNL     1      21.165  46.031  48.680  1.00  0.00    -0.268 OA
BRANCH  29  32
HETATM   32  C   UNL     1      22.594  48.451  48.944  1.00  0.00     0.084 C 
HETATM   33  C   UNL     1      23.641  49.517  49.249  1.00  0.00     0.025 C 
HETATM   34  C   UNL     1      22.894  50.810  48.972  1.00  0.00     0.002 C 
HETATM   35  C   UNL     1      22.047  50.505  47.740  1.00  0.00     0.002 C 
HETATM   36  C   UNL     1      21.901  48.982  47.686  1.00  0.00     0.025 C 
ENDBRANCH  29  32
ENDBRANCH  12  28
TORSDOF 7
ENDMDL
MODEL 9
REMARK VINA RESULT:      -8.4      2.542      8.894
REMARK  7 active torsions:
REMARK  status: ('A' for Active; 'I' for Inactive)
REMARK    1  A    between atoms: C_2  and  O_3 
REMARK    2  A    between atoms: O_3  and  C_4 
REMARK    3  A    between atoms: C_5  and  N_6 
REMARK       I    between atoms: N_6  and  C_7 
REMARK    4  A    between atoms: C_7  and  C_8 
REMARK    5  A    between atoms: C_8  and  N_9 
REMARK    6  A    between atoms: C_20  and  C_21 
REMARK       I    between atoms: C_21  and  N_22 
REMARK    7  A    between atoms: N_22  and  C_23 
ROOT
HETATM    1  N   UNL     1      24.971  45.192  51.615  1.00  0.00    -0.304 N 
HETATM    2  C   UNL     1      25.156  43.805  51.626  1.00  0.00     0.259 C 
HETATM    3  O   UNL     1      25.207  43.142  52.662  1.00  0.00    -0.270 OA
HETATM    4  C   UNL     1      25.382  43.201  50.228  1.00  0.00     0.141 C 
HETATM    5  C   UNL     1      26.794  43.555  49.731  1.00  0.00     0.057 C 
HETATM    6  C   UNL     1      25.258  41.674  50.301  1.00  0.00     0.057 C 
HETATM    7  O   UNL     1      24.423  43.633  49.262  1.00  0.00    -0.329 OA
HETATM    8  C   UNL     1      24.077  44.955  49.353  1.00  0.00     0.097 A 
HETATM    9  C   UNL     1      24.357  45.771  50.463  1.00  0.00     0.072 A 
HETATM   10  C   UNL     1      23.368  45.442  48.252  1.00  0.00     0.040 A 
HETATM   11  C   UNL     1      22.945  46.767  48.221  1.00  0.00     0.020 A 
HETATM   12  C   UNL     1      23.252  47.611  49.290  1.00  0.00     0.034 A 
HETATM   13  C   UNL     1      23.949  47.111  50.405  1.00  0.00     0.049 A 
ENDROOT
BRANCH   1  14
HETATM   14  C   UNL     1      25.012  45.863  52.912  1.00  0.00     0.235 C 
BRANCH  14  15
HETATM   15  C   UNL     1      26.451  46.157  53.381  1.00  0.00     0.240 C 
HETATM   16  N   UNL     1      26.770  45.459  54.532  1.00  0.00    -0.323 N 
HETATM   17  H   UNL     1      26.020  45.145  55.140  1.00  0.00     0.169 HD
HETATM   18  O   UNL     1      27.192  46.956  52.812  1.00  0.00    -0.271 OA
BRANCH  16  19
HETATM   19  C   UNL     1      28.061  45.145  55.004  1.00  0.00     0.068 A 
HETATM   20  C   UNL     1      28.680  43.989  54.490  1.00  0.00     0.095 A 
HETATM   21  C   UNL     1      30.010  43.705  54.817  1.00  0.00     0.039 A 
HETATM   22  C   UNL     1      30.711  44.550  55.679  1.00  0.00     0.003 A 
HETATM   23  C   UNL     1      30.088  45.675  56.215  1.00  0.00     0.002 A 
HETATM   24  C   UNL     1      28.765  45.974  55.878  1.00  0.00     0.032 A 
BRANCH  20  25
HETATM   25  O   UNL     1      27.914  43.208  53.654  1.00  0.00    -0.349 OA
BRANCH  25  26
HETATM   26  C   UNL     1      28.652  42.381  52.750  1.00  0.00     0.171 C 
HETATM   27  C   UNL     1      28.239  40.939  52.983  1.00  0.00     0.034 C 
ENDBRANCH  25  26
ENDBRANCH  20  25
ENDBRANCH  16  19
ENDBRANCH  14  15
ENDBRANCH   1  14
BRANCH  12  28
HETATM   28  C   UNL     1      22.807  49.033  49.319  1.00  0.00     0.252 C 
HETATM   29  N   UNL     1      21.576  49.305  48.763  1.00  0.00    -0.352 N 
HETATM   30  H   UNL     1      21.055  48.572  48.302  1.00  0.00     0.163 HD
HETATM   31  O   UNL     1      23.539  49.890  49.802  1.00  0.00    -0.268 OA
BRANCH  29  32
HETATM   32  C   UNL     1      21.021  50.641  48.771  1.00  0.00     0.084 C 
HETATM   33  C   UNL     1      19.942  50.833  47.711  1.00  0.00     0.025 C 
HETATM   34  C   UNL     1      19.229  52.089  48.182  1.00  0.00     0.002 C 
HETATM   35  C   UNL     1      19.185  51.957  49.700  1.00  0.00     0.002 C 
HETATM   36  C   UNL     1      20.300  50.979  50.079  1.00  0.00     0.025 C 
ENDBRANCH  29  32
ENDBRANCH  12  28
TORSDOF 7
ENDMDL
MODEL 10
REMARK VINA RESULT:      -8.4      2.209      7.367
REMARK  7 active torsions:
REMARK  status: ('A' for Active; 'I' for Inactive)
REMARK    1  A    between atoms: C_2  and  O_3 
REMARK    2  A    between atoms: O_3  and  C_4 
REMARK    3  A    between atoms: C_5  and  N_6 
REMARK       I    between atoms: N_6  and  C_7 
REMARK    4  A    between atoms: C_7  and  C_8 
REMARK    5  A    between atoms: C_8  and  N_9 
REMARK    6  A    between atoms: C_20  and  C_21 
REMARK       I    between atoms: C_21  and  N_22 
REMARK    7  A    between atoms: N_22  and  C_23 
ROOT
HETATM    1  N   UNL     1      25.268  44.941  50.757  1.00  0.00    -0.304 N 
HETATM    2  C   UNL     1      24.340  45.741  50.082  1.00  0.00     0.259 C 
HETATM    3  O   UNL     1      23.394  45.279  49.444  1.00  0.00    -0.270 OA
HETATM    4  C   UNL     1      24.665  47.245  50.136  1.00  0.00     0.141 C 
HETATM    5  C   UNL     1      25.855  47.553  49.212  1.00  0.00     0.057 C 
HETATM    6  C   UNL     1      23.452  48.051  49.656  1.00  0.00     0.057 C 
HETATM    7  O   UNL     1      24.959  47.715  51.452  1.00  0.00    -0.329 OA
HETATM    8  C   UNL     1      25.713  46.857  52.209  1.00  0.00     0.097 A 
HETATM    9  C   UNL     1      25.929  45.504  51.892  1.00  0.00     0.072 A 
HETATM   10  C   UNL     1      26.234  47.424  53.375  1.00  0.00     0.040 A 
HETATM   11  C   UNL     1      27.009  46.658  54.240  1.00  0.00     0.020 A 
HETATM   12  C   UNL     1      27.278  45.325  53.925  1.00  0.00     0.034 A 
HETATM   13  C   UNL     1      26.734  44.753  52.760  1.00  0.00     0.049 A 
ENDROOT
BRANCH   1  14
HETATM   14  C   UNL     1      25.172  43.502  50.532  1.00  0.00     0.235 C 
BRANCH  14  15
HETATM   15  C   UNL     1      26.227  42.988  49.531  1.00  0.00     0.240 C 
HETATM   16  N   UNL     1      25.936  41.710  49.088  1.00  0.00    -0.323 N 
HETATM   17  H   UNL     1      25.350  41.112  49.663  1.00  0.00     0.169 HD
HETATM   18  O   UNL     1      27.222  43.635  49.213  1.00  0.00    -0.271 OA
BRANCH  16  19
HETATM   19  C   UNL     1      26.399  41.095  47.907  1.00  0.00     0.068 A 
HETATM   20  C   UNL     1      27.513  40.240  48.009  1.00  0.00     0.095 A 
HETATM   21  C   UNL     1      27.929  39.498  46.900  1.00  0.00     0.039 A 
HETATM   22  C   UNL     1      27.259  39.630  45.682  1.00  0.00     0.003 A 
HETATM   23  C   UNL     1      26.177  40.502  45.571  1.00  0.00     0.002 A 
HETATM   24  C   UNL     1      25.746  41.233  46.681  1.00  0.00     0.032 A 
BRANCH  20  25
HETATM   25  O   UNL     1      28.119  40.175  49.244  1.00  0.00    -0.349 OA
BRANCH  25  26
HETATM   26  C   UNL     1      28.018  38.911  49.905  1.00  0.00     0.171 C 
HETATM   27  C   UNL     1      29.392  38.541  50.433  1.00  0.00     0.034 C 
ENDBRANCH  25  26
ENDBRANCH  20  25
ENDBRANCH  16  19
ENDBRANCH  14  15
ENDBRANCH   1  14
BRANCH  12  28
HETATM   28  C   UNL     1      28.085  44.454  54.824  1.00  0.00     0.252 C 
HETATM   29  N   UNL     1      29.020  45.085  55.616  1.00  0.00    -0.352 N 
HETATM   30  H   UNL     1      29.179  46.078  55.520  1.00  0.00     0.163 HD
HETATM   31  O   UNL     1      27.911  43.240  54.814  1.00  0.00    -0.268 OA
BRANCH  29  32
HETATM   32  C   UNL     1      29.833  44.347  56.560  1.00  0.00     0.084 C 
HETATM   33  C   UNL     1      31.096  43.777  55.923  1.00  0.00     0.025 C 
HETATM   34  C   UNL     1      31.964  43.457  57.128  1.00  0.00     0.002 C 
HETATM   35  C   UNL     1      31.715  44.610  58.095  1.00  0.00     0.002 C 
HETATM   36  C   UNL     1      30.370  45.223  57.695  1.00  0.00     0.025 C 
ENDBRANCH  29  32
ENDBRANCH  12  28
TORSDOF 7
ENDMDL
