MODEL 1
REMARK VINA RESULT:      -9.7      0.000      0.000
REMARK  4 active torsions:
REMARK  status: ('A' for Active; 'I' for Inactive)
REMARK    1  A    between atoms: C_4  and  C_5 
REMARK    2  A    between atoms: C_6  and  N_7 
REMARK    3  A    between atoms: C_9  and  C_10 
REMARK       I    between atoms: C_10  and  N_11 
REMARK    4  A    between atoms: N_11  and  C_12 
ROOT
HETATM    1  C   UNL     1      28.288  44.539  54.431  1.00  0.00     0.019 A 
HETATM    2  C   UNL     1      27.321  45.434  54.096  1.00  0.00     0.111 A 
HETATM    3  C   UNL     1      27.185  46.715  54.914  1.00  0.00     0.273 A 
HETATM    4  O   UNL     1      26.335  47.572  54.669  1.00  0.00    -0.266 OA
HETATM    5  N   UNL     1      28.042  46.900  55.959  1.00  0.00    -0.321 N 
HETATM    6  C   UNL     1      29.035  45.996  56.318  1.00  0.00     0.046 A 
HETATM    7  C   UNL     1      29.194  44.820  55.578  1.00  0.00     0.006 A 
HETATM    8  C   UNL     1      29.853  46.286  57.412  1.00  0.00     0.032 A 
HETATM    9  C   UNL     1      30.855  45.391  57.781  1.00  0.00     0.026 A 
HETATM   10  C   UNL     1      31.033  44.219  57.051  1.00  0.00     0.035 A 
HETATM   11 CL   UNL     1      32.273  43.115  57.503  1.00  0.00    -0.084 Cl
HETATM   12  C   UNL     1      30.215  43.932  55.956  1.00  0.00     0.038 A 
HETATM   13  H   UNL     1      27.909  47.756  56.480  1.00  0.00     0.169 HD
ENDROOT
BRANCH   2  14
HETATM   14  N   UNL     1      26.381  45.230  53.051  1.00  0.00    -0.375 N 
HETATM   15  C   UNL     1      26.334  46.195  51.937  1.00  0.00     0.137 C 
HETATM   16  C   UNL     1      25.645  45.604  50.701  1.00  0.00     0.096 C 
HETATM   17  C   UNL     1      24.240  45.110  51.091  1.00  0.00     0.017 C 
HETATM   18  C   UNL     1      24.292  44.162  52.289  1.00  0.00     0.021 C 
HETATM   19  C   UNL     1      25.030  44.791  53.465  1.00  0.00     0.123 C 
BRANCH  16  20
HETATM   20  C   UNL     1      26.440  44.517  49.956  1.00  0.00     0.229 C 
HETATM   21  N   UNL     1      25.781  43.302  49.867  1.00  0.00    -0.311 N 
HETATM   22  H   UNL     1      24.825  43.249  50.172  1.00  0.00     0.170 HD
HETATM   23  O   UNL     1      27.597  44.725  49.595  1.00  0.00    -0.273 OA
BRANCH  21  24
HETATM   24  C   UNL     1      26.322  42.122  49.333  1.00  0.00     0.129 A 
HETATM   25  N   UNL     1      27.281  42.160  48.393  1.00  0.00    -0.243 NA
HETATM   26  C   UNL     1      27.766  40.992  47.924  1.00  0.00     0.119 A 
HETATM   27  C   UNL     1      27.327  39.754  48.352  1.00  0.00     0.019 A 
HETATM   28  C   UNL     1      26.335  39.718  49.322  1.00  0.00     0.005 A 
HETATM   29  C   UNL     1      25.829  40.916  49.824  1.00  0.00     0.050 A 
ENDBRANCH  21  24
ENDBRANCH  16  20
ENDBRANCH   2  14
BRANCH   1  30
HETATM   30  C   UNL     1      28.386  43.302  53.615  1.00  0.00    -0.023 A 
HETATM   31  C   UNL     1      29.046  43.320  52.380  1.00  0.00     0.012 A 
HETATM   32  C   UNL     1      29.135  42.158  51.614  1.00  0.00     0.001 A 
HETATM   33  C   UNL     1      28.580  40.969  52.082  1.00  0.00     0.000 A 
HETATM   34  C   UNL     1      27.933  40.938  53.317  1.00  0.00     0.001 A 
HETATM   35  C   UNL     1      27.835  42.101  54.082  1.00  0.00     0.012 A 
ENDBRANCH   1  30
TORSDOF 4
ENDMDL
MODEL 2
REMARK VINA RESULT:      -9.0     12.387     15.012
REMARK  4 active torsions:
REMARK  status: ('A' for Active; 'I' for Inactive)
REMARK    1  A    between atoms: C_4  and  C_5 
REMARK    2  A    between atoms: C_6  and  N_7 
REMARK    3  A    between atoms: C_9  and  C_10 
REMARK       I    between atoms: C_10  and  N_11 
REMARK    4  A    between atoms: N_11  and  C_12 
ROOT
HETATM    1  C   UNL     1      28.000  48.106  40.141  1.00  0.00     0.019 A 
HETATM    2  C   UNL     1      27.468  49.230  39.592  1.00  0.00     0.111 A 
HETATM    3  C   UNL     1      26.077  49.160  38.968  1.00  0.00     0.273 A 
HETATM    4  O   UNL     1      25.530  50.136  38.455  1.00  0.00    -0.266 OA
HETATM    5  N   UNL     1      25.430  47.959  38.983  1.00  0.00    -0.321 N 
HETATM    6  C   UNL     1      25.959  46.799  39.537  1.00  0.00     0.046 A 
HETATM    7  C   UNL     1      27.225  46.836  40.130  1.00  0.00     0.006 A 
HETATM    8  C   UNL     1      25.209  45.622  39.490  1.00  0.00     0.032 A 
HETATM    9  C   UNL     1      25.724  44.452  40.045  1.00  0.00     0.026 A 
HETATM   10  C   UNL     1      26.980  44.472  40.646  1.00  0.00     0.035 A 
HETATM   11 CL   UNL     1      27.616  43.029  41.336  1.00  0.00    -0.084 Cl
HETATM   12  C   UNL     1      27.727  45.651  40.694  1.00  0.00     0.038 A 
HETATM   13  H   UNL     1      24.517  47.956  38.550  1.00  0.00     0.169 HD
ENDROOT
BRANCH   2  14
HETATM   14  N   UNL     1      28.151  50.473  39.513  1.00  0.00    -0.375 N 
HETATM   15  C   UNL     1      27.652  51.611  40.308  1.00  0.00     0.137 C 
HETATM   16  C   UNL     1      28.726  52.691  40.492  1.00  0.00     0.096 C 
HETATM   17  C   UNL     1      29.241  53.136  39.111  1.00  0.00     0.017 C 
HETATM   18  C   UNL     1      29.694  51.942  38.270  1.00  0.00     0.021 C 
HETATM   19  C   UNL     1      28.598  50.888  38.166  1.00  0.00     0.123 C 
BRANCH  16  20
HETATM   20  C   UNL     1      29.886  52.316  41.434  1.00  0.00     0.229 C 
HETATM   21  N   UNL     1      31.128  52.327  40.824  1.00  0.00    -0.311 N 
HETATM   22  H   UNL     1      31.202  52.679  39.885  1.00  0.00     0.170 HD
HETATM   23  O   UNL     1      29.661  51.939  42.581  1.00  0.00    -0.273 OA
BRANCH  21  24
HETATM   24  C   UNL     1      32.331  51.927  41.426  1.00  0.00     0.129 A 
HETATM   25  N   UNL     1      32.503  52.007  42.756  1.00  0.00    -0.243 NA
HETATM   26  C   UNL     1      33.680  51.599  43.276  1.00  0.00     0.119 A 
HETATM   27  C   UNL     1      34.725  51.110  42.516  1.00  0.00     0.019 A 
HETATM   28  C   UNL     1      34.544  51.031  41.141  1.00  0.00     0.005 A 
HETATM   29  C   UNL     1      33.331  51.439  40.588  1.00  0.00     0.050 A 
ENDBRANCH  21  24
ENDBRANCH  16  20
ENDBRANCH   2  14
BRANCH   1  30
HETATM   30  C   UNL     1      29.358  48.213  40.735  1.00  0.00    -0.023 A 
HETATM   31  C   UNL     1      29.518  48.595  42.072  1.00  0.00     0.012 A 
HETATM   32  C   UNL     1      30.793  48.697  42.626  1.00  0.00     0.001 A 
HETATM   33  C   UNL     1      31.916  48.403  41.853  1.00  0.00     0.000 A 
HETATM   34  C   UNL     1      31.766  48.008  40.525  1.00  0.00     0.001 A 
HETATM   35  C   UNL     1      30.491  47.914  39.966  1.00  0.00     0.012 A 
ENDBRANCH   1  30
TORSDOF 4
ENDMDL
MODEL 3
REMARK VINA RESULT:      -8.9      2.436      7.157
REMARK  4 active torsions:
REMARK  status: ('A' for Active; 'I' for Inactive)
REMARK    1  A    between atoms: C_4  and  C_5 
REMARK    2  A    between atoms: C_6  and  N_7 
REMARK    3  A    between atoms: C_9  and  C_10 
REMARK       I    between atoms: C_10  and  N_11 
REMARK    4  A    between atoms: N_11  and  C_12 
ROOT
HETATM    1  C   UNL     1      26.681  42.375  50.904  1.00  0.00     0.019 A 
HETATM    2  C   UNL     1      25.805  43.413  50.854  1.00  0.00     0.111 A 
HETATM    3  C   UNL     1      24.682  43.383  49.821  1.00  0.00     0.273 A 
HETATM    4  O   UNL     1      23.850  44.284  49.719  1.00  0.00    -0.266 OA
HETATM    5  N   UNL     1      24.615  42.310  48.982  1.00  0.00    -0.321 N 
HETATM    6  C   UNL     1      25.504  41.241  49.015  1.00  0.00     0.046 A 
HETATM    7  C   UNL     1      26.534  41.233  49.961  1.00  0.00     0.006 A 
HETATM    8  C   UNL     1      25.344  40.198  48.101  1.00  0.00     0.032 A 
HETATM    9  C   UNL     1      26.224  39.117  48.125  1.00  0.00     0.026 A 
HETATM   10  C   UNL     1      27.251  39.089  49.065  1.00  0.00     0.035 A 
HETATM   11 CL   UNL     1      28.336  37.754  49.099  1.00  0.00    -0.084 Cl
HETATM   12  C   UNL     1      27.407  40.133  49.980  1.00  0.00     0.038 A 
HETATM   13  H   UNL     1      23.863  42.337  48.306  1.00  0.00     0.169 HD
ENDROOT
BRANCH   2  14
HETATM   14  N   UNL     1      25.895  44.565  51.680  1.00  0.00    -0.375 N 
HETATM   15  C   UNL     1      24.878  44.772  52.728  1.00  0.00     0.137 C 
HETATM   16  C   UNL     1      25.362  45.751  53.805  1.00  0.00     0.096 C 
HETATM   17  C   UNL     1      25.777  47.075  53.138  1.00  0.00     0.017 C 
HETATM   18  C   UNL     1      26.781  46.844  52.008  1.00  0.00     0.021 C 
HETATM   19  C   UNL     1      26.258  45.828  51.000  1.00  0.00     0.123 C 
BRANCH  16  20
HETATM   20  C   UNL     1      26.467  45.217  54.736  1.00  0.00     0.229 C 
HETATM   21  N   UNL     1      27.252  46.209  55.299  1.00  0.00    -0.311 N 
HETATM   22  H   UNL     1      26.986  47.169  55.166  1.00  0.00     0.170 HD
HETATM   23  O   UNL     1      26.663  44.009  54.843  1.00  0.00    -0.273 OA
BRANCH  21  24
HETATM   24  C   UNL     1      28.385  45.991  56.098  1.00  0.00     0.129 A 
HETATM   25  N   UNL     1      28.359  46.225  57.421  1.00  0.00    -0.243 NA
HETATM   26  C   UNL     1      29.477  45.988  58.136  1.00  0.00     0.119 A 
HETATM   27  C   UNL     1      30.656  45.524  57.585  1.00  0.00     0.019 A 
HETATM   28  C   UNL     1      30.680  45.284  56.217  1.00  0.00     0.005 A 
HETATM   29  C   UNL     1      29.530  45.515  55.464  1.00  0.00     0.050 A 
ENDBRANCH  21  24
ENDBRANCH  16  20
ENDBRANCH   2  14
BRANCH   1  30
HETATM   30  C   UNL     1      27.763  42.442  51.920  1.00  0.00    -0.023 A 
HETATM   31  C   UNL     1      27.747  41.587  53.028  1.00  0.00     0.012 A 
HETATM   32  C   UNL     1      28.762  41.654  53.982  1.00  0.00     0.001 A 
HETATM   33  C   UNL     1      29.807  42.563  53.827  1.00  0.00     0.000 A 
HETATM   34  C   UNL     1      29.839  43.408  52.719  1.00  0.00     0.001 A 
HETATM   35  C   UNL     1      28.820  43.350  51.768  1.00  0.00     0.012 A 
ENDBRANCH   1  30
TORSDOF 4
ENDMDL
MODEL 4
REMARK VINA RESULT:      -8.7      3.526      6.963
REMARK  4 active torsions:
REMARK  status: ('A' for Active; 'I' for Inactive)
REMARK    1  A    between atoms: C_4  and  C_5 
REMARK    2  A    between atoms: C_6  and  N_7 
REMARK    3  A    between atoms: C_9  and  C_10 
REMARK       I    between atoms: C_10  and  N_11 
REMARK    4  A    between atoms: N_11  and  C_12 
ROOT
HETATM    1  C   UNL     1      26.884  41.750  50.756  1.00  0.00     0.019 A 
HETATM    2  C   UNL     1      27.477  42.134  51.917  1.00  0.00     0.111 A 
HETATM    3  C   UNL     1      28.621  41.293  52.475  1.00  0.00     0.273 A 
HETATM    4  O   UNL     1      29.208  41.579  53.518  1.00  0.00    -0.266 OA
HETATM    5  N   UNL     1      28.993  40.179  51.780  1.00  0.00    -0.321 N 
HETATM    6  C   UNL     1      28.396  39.769  50.593  1.00  0.00     0.046 A 
HETATM    7  C   UNL     1      27.355  40.528  50.049  1.00  0.00     0.006 A 
HETATM    8  C   UNL     1      28.854  38.606  49.970  1.00  0.00     0.032 A 
HETATM    9  C   UNL     1      28.269  38.185  48.778  1.00  0.00     0.026 A 
HETATM   10  C   UNL     1      27.237  38.933  48.218  1.00  0.00     0.035 A 
HETATM   11 CL   UNL     1      26.516  38.417  46.743  1.00  0.00    -0.084 Cl
HETATM   12  C   UNL     1      26.782  40.097  48.841  1.00  0.00     0.038 A 
HETATM   13  H   UNL     1      29.747  39.646  52.191  1.00  0.00     0.169 HD
ENDROOT
BRANCH   2  14
HETATM   14  N   UNL     1      27.063  43.256  52.684  1.00  0.00    -0.375 N 
HETATM   15  C   UNL     1      27.889  44.478  52.661  1.00  0.00     0.137 C 
HETATM   16  C   UNL     1      27.098  45.708  53.123  1.00  0.00     0.096 C 
HETATM   17  C   UNL     1      26.510  45.438  54.519  1.00  0.00     0.017 C 
HETATM   18  C   UNL     1      25.711  44.135  54.550  1.00  0.00     0.021 C 
HETATM   19  C   UNL     1      26.539  42.964  54.036  1.00  0.00     0.123 C 
BRANCH  16  20
HETATM   20  C   UNL     1      26.020  46.207  52.142  1.00  0.00     0.229 C 
HETATM   21  N   UNL     1      26.471  47.176  51.261  1.00  0.00    -0.311 N 
HETATM   22  H   UNL     1      27.453  47.390  51.239  1.00  0.00     0.170 HD
HETATM   23  O   UNL     1      24.855  45.833  52.251  1.00  0.00    -0.273 OA
BRANCH  21  24
HETATM   24  C   UNL     1      25.671  47.868  50.338  1.00  0.00     0.129 A 
HETATM   25  N   UNL     1      24.331  47.778  50.374  1.00  0.00    -0.243 NA
HETATM   26  C   UNL     1      23.618  48.474  49.465  1.00  0.00     0.119 A 
HETATM   27  C   UNL     1      24.187  49.271  48.491  1.00  0.00     0.019 A 
HETATM   28  C   UNL     1      25.572  49.361  48.456  1.00  0.00     0.005 A 
HETATM   29  C   UNL     1      26.325  48.656  49.394  1.00  0.00     0.050 A 
ENDBRANCH  21  24
ENDBRANCH  16  20
ENDBRANCH   2  14
BRANCH   1  30
HETATM   30  C   UNL     1      25.770  42.592  50.247  1.00  0.00    -0.023 A 
HETATM   31  C   UNL     1      26.034  43.691  49.420  1.00  0.00     0.012 A 
HETATM   32  C   UNL     1      24.988  44.481  48.945  1.00  0.00     0.001 A 
HETATM   33  C   UNL     1      23.671  44.171  49.280  1.00  0.00     0.000 A 
HETATM   34  C   UNL     1      23.397  43.070  50.091  1.00  0.00     0.001 A 
HETATM   35  C   UNL     1      24.443  42.283  50.574  1.00  0.00     0.012 A 
ENDBRANCH   1  30
TORSDOF 4
ENDMDL
MODEL 5
REMARK VINA RESULT:      -8.6      2.851      5.432
REMARK  4 active torsions:
REMARK  status: ('A' for Active; 'I' for Inactive)
REMARK    1  A    between atoms: C_4  and  C_5 
REMARK    2  A    between atoms: C_6  and  N_7 
REMARK    3  A    between atoms: C_9  and  C_10 
REMARK       I    between atoms: C_10  and  N_11 
REMARK    4  A    between atoms: N_11  and  C_12 
ROOT
HETATM    1  C   UNL     1      27.534  43.215  51.894  1.00  0.00     0.019 A 
HETATM    2  C   UNL     1      27.704  41.991  51.329  1.00  0.00     0.111 A 
HETATM    3  C   UNL     1      28.676  41.007  51.975  1.00  0.00     0.273 A 
HETATM    4  O   UNL     1      28.879  39.881  51.521  1.00  0.00    -0.266 OA
HETATM    5  N   UNL     1      29.341  41.410  53.095  1.00  0.00    -0.321 N 
HETATM    6  C   UNL     1      29.183  42.658  53.686  1.00  0.00     0.046 A 
HETATM    7  C   UNL     1      28.288  43.576  53.126  1.00  0.00     0.006 A 
HETATM    8  C   UNL     1      29.923  42.966  54.830  1.00  0.00     0.032 A 
HETATM    9  C   UNL     1      29.772  44.212  55.436  1.00  0.00     0.026 A 
HETATM   10  C   UNL     1      28.880  45.134  54.895  1.00  0.00     0.035 A 
HETATM   11 CL   UNL     1      28.689  46.672  55.645  1.00  0.00    -0.084 Cl
HETATM   12  C   UNL     1      28.139  44.824  53.753  1.00  0.00     0.038 A 
HETATM   13  H   UNL     1      29.983  40.731  53.483  1.00  0.00     0.169 HD
ENDROOT
BRANCH   2  14
HETATM   14  N   UNL     1      27.066  41.578  50.129  1.00  0.00    -0.375 N 
HETATM   15  C   UNL     1      25.805  40.816  50.220  1.00  0.00     0.137 C 
HETATM   16  C   UNL     1      25.017  40.863  48.905  1.00  0.00     0.096 C 
HETATM   17  C   UNL     1      25.911  40.360  47.758  1.00  0.00     0.017 C 
HETATM   18  C   UNL     1      27.242  41.110  47.714  1.00  0.00     0.021 C 
HETATM   19  C   UNL     1      27.951  41.064  49.062  1.00  0.00     0.123 C 
BRANCH  16  20
HETATM   20  C   UNL     1      24.375  42.222  48.567  1.00  0.00     0.229 C 
HETATM   21  N   UNL     1      22.991  42.214  48.612  1.00  0.00    -0.311 N 
HETATM   22  H   UNL     1      22.524  41.396  48.963  1.00  0.00     0.170 HD
HETATM   23  O   UNL     1      25.068  43.162  48.187  1.00  0.00    -0.273 OA
BRANCH  21  24
HETATM   24  C   UNL     1      22.161  43.286  48.249  1.00  0.00     0.129 A 
HETATM   25  N   UNL     1      21.654  44.117  49.175  1.00  0.00    -0.243 NA
HETATM   26  C   UNL     1      20.869  45.134  48.763  1.00  0.00     0.119 A 
HETATM   27  C   UNL     1      20.550  45.368  47.439  1.00  0.00     0.019 A 
HETATM   28  C   UNL     1      21.075  44.507  46.485  1.00  0.00     0.005 A 
HETATM   29  C   UNL     1      21.895  43.455  46.892  1.00  0.00     0.050 A 
ENDBRANCH  21  24
ENDBRANCH  16  20
ENDBRANCH   2  14
BRANCH   1  30
HETATM   30  C   UNL     1      26.584  44.147  51.234  1.00  0.00    -0.023 A 
HETATM   31  C   UNL     1      25.238  44.176  51.620  1.00  0.00     0.012 A 
HETATM   32  C   UNL     1      24.347  45.049  50.997  1.00  0.00     0.001 A 
HETATM   33  C   UNL     1      24.797  45.909  49.997  1.00  0.00     0.000 A 
HETATM   34  C   UNL     1      26.138  45.898  49.616  1.00  0.00     0.001 A 
HETATM   35  C   UNL     1      27.030  45.019  50.232  1.00  0.00     0.012 A 
ENDBRANCH   1  30
TORSDOF 4
ENDMDL
MODEL 6
REMARK VINA RESULT:      -8.6      4.659      7.645
REMARK  4 active torsions:
REMARK  status: ('A' for Active; 'I' for Inactive)
REMARK    1  A    between atoms: C_4  and  C_5 
REMARK    2  A    between atoms: C_6  and  N_7 
REMARK    3  A    between atoms: C_9  and  C_10 
REMARK       I    between atoms: C_10  and  N_11 
REMARK    4  A    between atoms: N_11  and  C_12 
ROOT
HETATM    1  C   UNL     1      24.853  45.956  50.968  1.00  0.00     0.019 A 
HETATM    2  C   UNL     1      24.093  44.937  50.485  1.00  0.00     0.111 A 
HETATM    3  C   UNL     1      24.009  43.637  51.280  1.00  0.00     0.273 A 
HETATM    4  O   UNL     1      23.340  42.674  50.907  1.00  0.00    -0.266 OA
HETATM    5  N   UNL     1      24.715  43.554  52.444  1.00  0.00    -0.321 N 
HETATM    6  C   UNL     1      25.500  44.583  52.951  1.00  0.00     0.046 A 
HETATM    7  C   UNL     1      25.584  45.792  52.254  1.00  0.00     0.006 A 
HETATM    8  C   UNL     1      26.186  44.384  54.152  1.00  0.00     0.032 A 
HETATM    9  C   UNL     1      26.972  45.408  54.676  1.00  0.00     0.026 A 
HETATM   10  C   UNL     1      27.061  46.621  53.998  1.00  0.00     0.035 A 
HETATM   11 CL   UNL     1      28.029  47.888  54.645  1.00  0.00    -0.084 Cl
HETATM   12  C   UNL     1      26.373  46.818  52.799  1.00  0.00     0.038 A 
HETATM   13  H   UNL     1      24.640  42.671  52.932  1.00  0.00     0.169 HD
ENDROOT
BRANCH   2  14
HETATM   14  N   UNL     1      23.401  44.985  49.246  1.00  0.00    -0.375 N 
HETATM   15  C   UNL     1      21.931  44.852  49.245  1.00  0.00     0.137 C 
HETATM   16  C   UNL     1      21.312  45.389  47.949  1.00  0.00     0.096 C 
HETATM   17  C   UNL     1      21.954  44.674  46.746  1.00  0.00     0.017 C 
HETATM   18  C   UNL     1      23.479  44.760  46.791  1.00  0.00     0.021 C 
HETATM   19  C   UNL     1      24.026  44.255  48.121  1.00  0.00     0.123 C 
BRANCH  16  20
HETATM   20  C   UNL     1      21.349  46.919  47.782  1.00  0.00     0.229 C 
HETATM   21  N   UNL     1      20.400  47.588  48.537  1.00  0.00    -0.311 N 
HETATM   22  H   UNL     1      19.858  47.066  49.203  1.00  0.00     0.170 HD
HETATM   23  O   UNL     1      22.094  47.440  46.955  1.00  0.00    -0.273 OA
BRANCH  21  24
HETATM   24  C   UNL     1      20.153  48.969  48.492  1.00  0.00     0.129 A 
HETATM   25  N   UNL     1      19.655  49.550  47.388  1.00  0.00    -0.243 NA
HETATM   26  C   UNL     1      19.431  50.881  47.409  1.00  0.00     0.119 A 
HETATM   27  C   UNL     1      19.692  51.684  48.502  1.00  0.00     0.019 A 
HETATM   28  C   UNL     1      20.208  51.080  49.641  1.00  0.00     0.005 A 
HETATM   29  C   UNL     1      20.437  49.705  49.640  1.00  0.00     0.050 A 
ENDBRANCH  21  24
ENDBRANCH  16  20
ENDBRANCH   2  14
BRANCH   1  30
HETATM   30  C   UNL     1      24.913  47.204  50.164  1.00  0.00    -0.023 A 
HETATM   31  C   UNL     1      23.768  47.991  49.993  1.00  0.00     0.012 A 
HETATM   32  C   UNL     1      23.826  49.161  49.236  1.00  0.00     0.001 A 
HETATM   33  C   UNL     1      25.030  49.559  48.657  1.00  0.00     0.000 A 
HETATM   34  C   UNL     1      26.179  48.789  48.834  1.00  0.00     0.001 A 
HETATM   35  C   UNL     1      26.121  47.613  49.584  1.00  0.00     0.012 A 
ENDBRANCH   1  30
TORSDOF 4
ENDMDL
MODEL 7
REMARK VINA RESULT:      -8.5      8.703     11.761
REMARK  4 active torsions:
REMARK  status: ('A' for Active; 'I' for Inactive)
REMARK    1  A    between atoms: C_4  and  C_5 
REMARK    2  A    between atoms: C_6  and  N_7 
REMARK    3  A    between atoms: C_9  and  C_10 
REMARK       I    between atoms: C_10  and  N_11 
REMARK    4  A    between atoms: N_11  and  C_12 
ROOT
HETATM    1  C   UNL     1      20.919  47.922  48.583  1.00  0.00     0.019 A 
HETATM    2  C   UNL     1      21.077  49.193  49.040  1.00  0.00     0.111 A 
HETATM    3  C   UNL     1      22.413  49.594  49.658  1.00  0.00     0.273 A 
HETATM    4  O   UNL     1      22.631  50.726  50.090  1.00  0.00    -0.266 OA
HETATM    5  N   UNL     1      23.392  48.648  49.733  1.00  0.00    -0.321 N 
HETATM    6  C   UNL     1      23.248  47.343  49.275  1.00  0.00     0.046 A 
HETATM    7  C   UNL     1      22.041  46.950  48.689  1.00  0.00     0.006 A 
HETATM    8  C   UNL     1      24.318  46.455  49.410  1.00  0.00     0.032 A 
HETATM    9  C   UNL     1      24.189  45.145  48.951  1.00  0.00     0.026 A 
HETATM   10  C   UNL     1      22.997  44.739  48.359  1.00  0.00     0.035 A 
HETATM   11 CL   UNL     1      22.838  43.123  47.788  1.00  0.00    -0.084 Cl
HETATM   12  C   UNL     1      21.930  45.629  48.223  1.00  0.00     0.038 A 
HETATM   13  H   UNL     1      24.256  48.954  50.160  1.00  0.00     0.169 HD
ENDROOT
BRANCH   2  14
HETATM   14  N   UNL     1      20.049  50.173  49.025  1.00  0.00    -0.375 N 
HETATM   15  C   UNL     1      20.287  51.443  48.312  1.00  0.00     0.137 C 
HETATM   16  C   UNL     1      18.974  52.164  47.982  1.00  0.00     0.096 C 
HETATM   17  C   UNL     1      18.170  52.374  49.278  1.00  0.00     0.017 C 
HETATM   18  C   UNL     1      17.987  51.063  50.043  1.00  0.00     0.021 C 
HETATM   19  C   UNL     1      19.323  50.376  50.297  1.00  0.00     0.123 C 
BRANCH  16  20
HETATM   20  C   UNL     1      18.116  51.506  46.885  1.00  0.00     0.229 C 
HETATM   21  N   UNL     1      16.753  51.615  47.100  1.00  0.00    -0.311 N 
HETATM   22  H   UNL     1      16.427  52.193  47.855  1.00  0.00     0.170 HD
HETATM   23  O   UNL     1      18.644  50.856  45.985  1.00  0.00    -0.273 OA
BRANCH  21  24
HETATM   24  C   UNL     1      15.756  51.018  46.311  1.00  0.00     0.129 A 
HETATM   25  N   UNL     1      15.321  51.601  45.182  1.00  0.00    -0.243 NA
HETATM   26  C   UNL     1      14.367  50.974  44.463  1.00  0.00     0.119 A 
HETATM   27  C   UNL     1      13.805  49.765  44.826  1.00  0.00     0.019 A 
HETATM   28  C   UNL     1      14.256  49.165  45.994  1.00  0.00     0.005 A 
HETATM   29  C   UNL     1      15.248  49.795  46.744  1.00  0.00     0.050 A 
ENDBRANCH  21  24
ENDBRANCH  16  20
ENDBRANCH   2  14
BRANCH   1  30
HETATM   30  C   UNL     1      19.603  47.567  47.992  1.00  0.00    -0.023 A 
HETATM   31  C   UNL     1      19.401  47.657  46.609  1.00  0.00     0.012 A 
HETATM   32  C   UNL     1      18.164  47.326  46.057  1.00  0.00     0.001 A 
HETATM   33  C   UNL     1      17.127  46.889  46.879  1.00  0.00     0.000 A 
HETATM   34  C   UNL     1      17.322  46.783  48.255  1.00  0.00     0.001 A 
HETATM   35  C   UNL     1      18.557  47.123  48.812  1.00  0.00     0.012 A 
ENDBRANCH   1  30
TORSDOF 4
ENDMDL
MODEL 8
REMARK VINA RESULT:      -8.3      1.877      2.654
REMARK  4 active torsions:
REMARK  status: ('A' for Active; 'I' for Inactive)
REMARK    1  A    between atoms: C_4  and  C_5 
REMARK    2  A    between atoms: C_6  and  N_7 
REMARK    3  A    between atoms: C_9  and  C_10 
REMARK       I    between atoms: C_10  and  N_11 
REMARK    4  A    between atoms: N_11  and  C_12 
ROOT
HETATM    1  C   UNL     1      27.137  44.921  53.468  1.00  0.00     0.019 A 
HETATM    2  C   UNL     1      26.278  45.366  52.513  1.00  0.00     0.111 A 
HETATM    3  C   UNL     1      25.653  46.749  52.669  1.00  0.00     0.273 A 
HETATM    4  O   UNL     1      24.870  47.220  51.844  1.00  0.00    -0.266 OA
HETATM    5  N   UNL     1      25.980  47.478  53.774  1.00  0.00    -0.321 N 
HETATM    6  C   UNL     1      26.853  47.038  54.763  1.00  0.00     0.046 A 
HETATM    7  C   UNL     1      27.454  45.781  54.641  1.00  0.00     0.006 A 
HETATM    8  C   UNL     1      27.110  47.867  55.858  1.00  0.00     0.032 A 
HETATM    9  C   UNL     1      27.987  47.442  56.854  1.00  0.00     0.026 A 
HETATM   10  C   UNL     1      28.600  46.196  56.744  1.00  0.00     0.035 A 
HETATM   11 CL   UNL     1      29.685  45.672  57.973  1.00  0.00    -0.084 Cl
HETATM   12  C   UNL     1      28.343  45.370  55.648  1.00  0.00     0.038 A 
HETATM   13  H   UNL     1      25.534  48.382  53.843  1.00  0.00     0.169 HD
ENDROOT
BRANCH   2  14
HETATM   14  N   UNL     1      25.880  44.598  51.387  1.00  0.00    -0.375 N 
HETATM   15  C   UNL     1      26.811  44.463  50.251  1.00  0.00     0.137 C 
HETATM   16  C   UNL     1      26.459  43.261  49.366  1.00  0.00     0.096 C 
HETATM   17  C   UNL     1      24.997  43.386  48.899  1.00  0.00     0.017 C 
HETATM   18  C   UNL     1      24.047  43.592  50.078  1.00  0.00     0.021 C 
HETATM   19  C   UNL     1      24.480  44.771  50.941  1.00  0.00     0.123 C 
BRANCH  16  20
HETATM   20  C   UNL     1      26.738  41.878  49.986  1.00  0.00     0.229 C 
HETATM   21  N   UNL     1      27.586  41.087  49.230  1.00  0.00    -0.311 N 
HETATM   22  H   UNL     1      28.038  41.492  48.429  1.00  0.00     0.170 HD
HETATM   23  O   UNL     1      26.144  41.518  51.000  1.00  0.00    -0.273 OA
BRANCH  21  24
HETATM   24  C   UNL     1      27.919  39.753  49.514  1.00  0.00     0.129 A 
HETATM   25  N   UNL     1      29.147  39.421  49.947  1.00  0.00    -0.243 NA
HETATM   26  C   UNL     1      29.404  38.123  50.210  1.00  0.00     0.119 A 
HETATM   27  C   UNL     1      28.476  37.111  50.054  1.00  0.00     0.019 A 
HETATM   28  C   UNL     1      27.209  37.458  49.605  1.00  0.00     0.005 A 
HETATM   29  C   UNL     1      26.923  38.796  49.336  1.00  0.00     0.050 A 
ENDBRANCH  21  24
ENDBRANCH  16  20
ENDBRANCH   2  14
BRANCH   1  30
HETATM   30  C   UNL     1      27.722  43.568  53.284  1.00  0.00    -0.023 A 
HETATM   31  C   UNL     1      28.887  43.398  52.526  1.00  0.00     0.012 A 
HETATM   32  C   UNL     1      29.433  42.127  52.353  1.00  0.00     0.001 A 
HETATM   33  C   UNL     1      28.829  41.020  52.946  1.00  0.00     0.000 A 
HETATM   34  C   UNL     1      27.677  41.181  53.714  1.00  0.00     0.001 A 
HETATM   35  C   UNL     1      27.123  42.451  53.883  1.00  0.00     0.012 A 
ENDBRANCH   1  30
TORSDOF 4
ENDMDL
MODEL 9
REMARK VINA RESULT:      -8.2      2.700      4.462
REMARK  4 active torsions:
REMARK  status: ('A' for Active; 'I' for Inactive)
REMARK    1  A    between atoms: C_4  and  C_5 
REMARK    2  A    between atoms: C_6  and  N_7 
REMARK    3  A    between atoms: C_9  and  C_10 
REMARK       I    between atoms: C_10  and  N_11 
REMARK    4  A    between atoms: N_11  and  C_12 
ROOT
HETATM    1  C   UNL     1      27.019  44.808  53.133  1.00  0.00     0.019 A 
HETATM    2  C   UNL     1      26.188  45.048  52.084  1.00  0.00     0.111 A 
HETATM    3  C   UNL     1      25.420  46.366  52.036  1.00  0.00     0.273 A 
HETATM    4  O   UNL     1      24.653  46.654  51.118  1.00  0.00    -0.266 OA
HETATM    5  N   UNL     1      25.597  47.246  53.063  1.00  0.00    -0.321 N 
HETATM    6  C   UNL     1      26.439  47.017  54.146  1.00  0.00     0.046 A 
HETATM    7  C   UNL     1      27.168  45.825  54.210  1.00  0.00     0.006 A 
HETATM    8  C   UNL     1      26.537  47.987  55.146  1.00  0.00     0.032 A 
HETATM    9  C   UNL     1      27.380  47.774  56.234  1.00  0.00     0.026 A 
HETATM   10  C   UNL     1      28.120  46.596  56.310  1.00  0.00     0.035 A 
HETATM   11 CL   UNL     1      29.164  46.333  57.652  1.00  0.00    -0.084 Cl
HETATM   12  C   UNL     1      28.021  45.628  55.308  1.00  0.00     0.038 A 
HETATM   13  H   UNL     1      25.060  48.100  52.997  1.00  0.00     0.169 HD
ENDROOT
BRANCH   2  14
HETATM   14  N   UNL     1      25.946  44.119  51.037  1.00  0.00    -0.375 N 
HETATM   15  C   UNL     1      24.808  43.188  51.161  1.00  0.00     0.137 C 
HETATM   16  C   UNL     1      24.398  42.608  49.802  1.00  0.00     0.096 C 
HETATM   17  C   UNL     1      25.619  41.938  49.147  1.00  0.00     0.017 C 
HETATM   18  C   UNL     1      26.814  42.889  49.083  1.00  0.00     0.021 C 
HETATM   19  C   UNL     1      27.139  43.465  50.456  1.00  0.00     0.123 C 
BRANCH  16  20
HETATM   20  C   UNL     1      23.711  43.596  48.841  1.00  0.00     0.229 C 
HETATM   21  N   UNL     1      22.953  44.562  49.479  1.00  0.00    -0.311 N 
HETATM   22  H   UNL     1      22.997  44.627  50.481  1.00  0.00     0.170 HD
HETATM   23  O   UNL     1      23.769  43.426  47.625  1.00  0.00    -0.273 OA
BRANCH  21  24
HETATM   24  C   UNL     1      22.146  45.516  48.838  1.00  0.00     0.129 A 
HETATM   25  N   UNL     1      22.648  46.697  48.440  1.00  0.00    -0.243 NA
HETATM   26  C   UNL     1      21.825  47.568  47.822  1.00  0.00     0.119 A 
HETATM   27  C   UNL     1      20.488  47.318  47.579  1.00  0.00     0.019 A 
HETATM   28  C   UNL     1      19.972  46.097  47.992  1.00  0.00     0.005 A 
HETATM   29  C   UNL     1      20.811  45.181  48.624  1.00  0.00     0.050 A 
ENDBRANCH  21  24
ENDBRANCH  16  20
ENDBRANCH   2  14
BRANCH   1  30
HETATM   30  C   UNL     1      27.746  43.513  53.146  1.00  0.00    -0.023 A 
HETATM   31  C   UNL     1      29.068  43.439  52.689  1.00  0.00     0.012 A 
HETATM   32  C   UNL     1      29.748  42.221  52.700  1.00  0.00     0.001 A 
HETATM   33  C   UNL     1      29.119  41.075  53.181  1.00  0.00     0.000 A 
HETATM   34  C   UNL     1      27.808  41.142  53.652  1.00  0.00     0.001 A 
HETATM   35  C   UNL     1      27.122  42.357  53.634  1.00  0.00     0.012 A 
ENDBRANCH   1  30
TORSDOF 4
ENDMDL
MODEL 10
REMARK VINA RESULT:      -8.1      7.553     11.239
REMARK  4 active torsions:
REMARK  status: ('A' for Active; 'I' for Inactive)
REMARK    1  A    between atoms: C_4  and  C_5 
REMARK    2  A    between atoms: C_6  and  N_7 
REMARK    3  A    between atoms: C_9  and  C_10 
REMARK       I    between atoms: C_10  and  N_11 
REMARK    4  A    between atoms: N_11  and  C_12 
ROOT
HETATM    1  C   UNL     1      21.875  47.057  48.475  1.00  0.00     0.019 A 
HETATM    2  C   UNL     1      20.894  46.299  47.917  1.00  0.00     0.111 A 
HETATM    3  C   UNL     1      21.119  44.797  47.765  1.00  0.00     0.273 A 
HETATM    4  O   UNL     1      20.276  44.047  47.272  1.00  0.00    -0.266 OA
HETATM    5  N   UNL     1      22.307  44.282  48.191  1.00  0.00    -0.321 N 
HETATM    6  C   UNL     1      23.323  45.042  48.761  1.00  0.00     0.046 A 
HETATM    7  C   UNL     1      23.141  46.418  48.928  1.00  0.00     0.006 A 
HETATM    8  C   UNL     1      24.504  44.408  49.156  1.00  0.00     0.032 A 
HETATM    9  C   UNL     1      25.529  45.156  49.733  1.00  0.00     0.026 A 
HETATM   10  C   UNL     1      25.361  46.526  49.913  1.00  0.00     0.035 A 
HETATM   11 CL   UNL     1      26.625  47.450  50.628  1.00  0.00    -0.084 Cl
HETATM   12  C   UNL     1      24.179  47.157  49.519  1.00  0.00     0.038 A 
HETATM   13  H   UNL     1      22.418  43.285  48.061  1.00  0.00     0.169 HD
ENDROOT
BRANCH   2  14
HETATM   14  N   UNL     1      19.676  46.826  47.413  1.00  0.00    -0.375 N 
HETATM   15  C   UNL     1      18.405  46.199  47.821  1.00  0.00     0.137 C 
HETATM   16  C   UNL     1      17.211  47.135  47.599  1.00  0.00     0.096 C 
HETATM   17  C   UNL     1      17.184  47.584  46.127  1.00  0.00     0.017 C 
HETATM   18  C   UNL     1      18.527  48.172  45.694  1.00  0.00     0.021 C 
HETATM   19  C   UNL     1      19.674  47.211  45.984  1.00  0.00     0.123 C 
BRANCH  16  20
HETATM   20  C   UNL     1      17.127  48.338  48.558  1.00  0.00     0.229 C 
HETATM   21  N   UNL     1      16.611  49.483  47.976  1.00  0.00    -0.311 N 
HETATM   22  H   UNL     1      16.231  49.423  47.047  1.00  0.00     0.170 HD
HETATM   23  O   UNL     1      17.597  48.267  49.691  1.00  0.00    -0.273 OA
BRANCH  21  24
HETATM   24  C   UNL     1      16.523  50.740  48.595  1.00  0.00     0.129 A 
HETATM   25  N   UNL     1      15.384  51.150  49.177  1.00  0.00    -0.243 NA
HETATM   26  C   UNL     1      15.365  52.365  49.763  1.00  0.00     0.119 A 
HETATM   27  C   UNL     1      16.451  53.218  49.793  1.00  0.00     0.019 A 
HETATM   28  C   UNL     1      17.626  52.792  49.189  1.00  0.00     0.005 A 
HETATM   29  C   UNL     1      17.667  51.535  48.587  1.00  0.00     0.050 A 
ENDBRANCH  21  24
ENDBRANCH  16  20
ENDBRANCH   2  14
BRANCH   1  30
HETATM   30  C   UNL     1      21.623  48.516  48.601  1.00  0.00    -0.023 A 
HETATM   31  C   UNL     1      20.827  49.008  49.643  1.00  0.00     0.012 A 
HETATM   32  C   UNL     1      20.588  50.377  49.759  1.00  0.00     0.001 A 
HETATM   33  C   UNL     1      21.155  51.264  48.845  1.00  0.00     0.000 A 
HETATM   34  C   UNL     1      21.961  50.784  47.814  1.00  0.00     0.001 A 
HETATM   35  C   UNL     1      22.193  49.414  47.690  1.00  0.00     0.012 A 
ENDBRANCH   1  30
TORSDOF 4
ENDMDL
