MODEL 1
REMARK VINA RESULT:      -8.4      0.000      0.000
REMARK  6 active torsions:
REMARK  status: ('A' for Active; 'I' for Inactive)
REMARK    1  A    between atoms: C_2  and  N_3 
REMARK    2  A    between atoms: C_2  and  C_18 
REMARK    3  A    between atoms: N_3  and  C_6 
REMARK    4  A    between atoms: C_6  and  C_7 
REMARK    5  A    between atoms: C_10  and  N_11 
REMARK       I    between atoms: N_11  and  C_12 
REMARK    6  A    between atoms: C_12  and  O_13 
ROOT
HETATM    1  N   UNL     1      27.145  45.206  50.967  1.00  0.00    -0.063 N 
HETATM    2  H   UNL     1      27.259  45.314  49.952  1.00  0.00     0.278 HD
HETATM    3  H   UNL     1      27.953  45.699  51.373  1.00  0.00     0.278 HD
ENDROOT
BRANCH   1   4
HETATM    4  C   UNL     1      25.891  45.889  51.426  1.00  0.00     0.216 C 
HETATM    5  C   UNL     1      24.755  44.870  51.505  1.00  0.00     0.045 C 
BRANCH   4   6
HETATM    6  C   UNL     1      25.547  47.040  50.512  1.00  0.00    -0.009 A 
HETATM    7  C   UNL     1      26.559  47.838  49.983  1.00  0.00     0.126 A 
HETATM    8  N   UNL     1      26.384  48.868  49.140  1.00  0.00    -0.259 NA
HETATM    9  C   UNL     1      25.100  49.156  48.800  1.00  0.00     0.074 A 
HETATM   10  C   UNL     1      24.016  48.426  49.284  1.00  0.00     0.034 A 
HETATM   11  C   UNL     1      24.691  50.206  47.930  1.00  0.00     0.040 A 
HETATM   12  S   UNL     1      22.531  49.036  48.671  1.00  0.00    -0.100 SA
HETATM   13  C   UNL     1      24.226  47.346  50.158  1.00  0.00     0.032 A 
HETATM   14  C   UNL     1      23.325  50.256  47.772  1.00  0.00     0.053 A 
ENDBRANCH   4   6
ENDBRANCH   1   4
BRANCH   1  15
HETATM   15  C   UNL     1      27.284  43.765  51.318  1.00  0.00     0.271 C 
BRANCH  15  16
HETATM   16  C   UNL     1      28.185  43.604  52.508  1.00  0.00    -0.033 A 
HETATM   17  C   UNL     1      27.881  44.231  53.723  1.00  0.00     0.011 A 
HETATM   18  C   UNL     1      28.749  44.131  54.819  1.00  0.00     0.030 A 
HETATM   19  C   UNL     1      29.938  43.409  54.725  1.00  0.00     0.036 A 
HETATM   20  C   UNL     1      30.236  42.777  53.510  1.00  0.00     0.030 A 
HETATM   21  C   UNL     1      29.376  42.876  52.410  1.00  0.00     0.011 A 
BRANCH  19  22
HETATM   22  N   UNL     1      30.874  43.255  55.759  1.00  0.00    -0.303 N 
HETATM   23  C   UNL     1      31.243  44.060  56.803  1.00  0.00     0.364 C 
HETATM   24  O   UNL     1      32.101  43.681  57.594  1.00  0.00    -0.238 OA
HETATM   25  H   UNL     1      31.412  42.396  55.778  1.00  0.00     0.171 HD
BRANCH  23  26
HETATM   26  O   UNL     1      30.621  45.262  56.871  1.00  0.00    -0.309 OA
HETATM   27  C   UNL     1      30.489  45.777  58.198  1.00  0.00     0.215 C 
ENDBRANCH  23  26
ENDBRANCH  19  22
ENDBRANCH  15  16
ENDBRANCH   1  15
TORSDOF 6
ENDMDL
MODEL 2
REMARK VINA RESULT:      -8.3      4.167      7.964
REMARK  6 active torsions:
REMARK  status: ('A' for Active; 'I' for Inactive)
REMARK    1  A    between atoms: C_2  and  N_3 
REMARK    2  A    between atoms: C_2  and  C_18 
REMARK    3  A    between atoms: N_3  and  C_6 
REMARK    4  A    between atoms: C_6  and  C_7 
REMARK    5  A    between atoms: C_10  and  N_11 
REMARK       I    between atoms: N_11  and  C_12 
REMARK    6  A    between atoms: C_12  and  O_13 
ROOT
HETATM    1  N   UNL     1      26.824  41.295  52.043  1.00  0.00    -0.063 N 
HETATM    2  H   UNL     1      26.701  40.374  52.481  1.00  0.00     0.278 HD
HETATM    3  H   UNL     1      26.310  41.944  52.656  1.00  0.00     0.278 HD
ENDROOT
BRANCH   1   4
HETATM    4  C   UNL     1      28.272  41.683  52.043  1.00  0.00     0.216 C 
HETATM    5  C   UNL     1      29.129  40.455  52.349  1.00  0.00     0.045 C 
BRANCH   4   6
HETATM    6  C   UNL     1      28.524  42.799  53.027  1.00  0.00    -0.009 A 
HETATM    7  C   UNL     1      27.686  43.912  53.050  1.00  0.00     0.126 A 
HETATM    8  N   UNL     1      27.787  44.952  53.893  1.00  0.00    -0.259 NA
HETATM    9  C   UNL     1      28.815  44.908  54.781  1.00  0.00     0.074 A 
HETATM   10  C   UNL     1      29.715  43.846  54.832  1.00  0.00     0.034 A 
HETATM   11  C   UNL     1      29.110  45.906  55.754  1.00  0.00     0.040 A 
HETATM   12  S   UNL     1      30.895  44.088  56.058  1.00  0.00    -0.100 SA
HETATM   13  C   UNL     1      29.582  42.765  53.945  1.00  0.00     0.032 A 
HETATM   14  C   UNL     1      30.212  45.588  56.514  1.00  0.00     0.053 A 
ENDBRANCH   4   6
ENDBRANCH   1   4
BRANCH   1  15
HETATM   15  C   UNL     1      26.135  41.295  50.722  1.00  0.00     0.271 C 
BRANCH  15  16
HETATM   16  C   UNL     1      25.541  42.647  50.446  1.00  0.00    -0.033 A 
HETATM   17  C   UNL     1      26.081  43.474  49.453  1.00  0.00     0.011 A 
HETATM   18  C   UNL     1      25.567  44.759  49.232  1.00  0.00     0.030 A 
HETATM   19  C   UNL     1      24.509  45.246  49.998  1.00  0.00     0.036 A 
HETATM   20  C   UNL     1      23.966  44.413  50.986  1.00  0.00     0.030 A 
HETATM   21  C   UNL     1      24.477  43.130  51.214  1.00  0.00     0.011 A 
BRANCH  19  22
HETATM   22  N   UNL     1      23.928  46.516  49.859  1.00  0.00    -0.303 N 
HETATM   23  C   UNL     1      24.396  47.781  50.100  1.00  0.00     0.364 C 
HETATM   24  O   UNL     1      23.676  48.750  49.884  1.00  0.00    -0.238 OA
HETATM   25  H   UNL     1      22.973  46.559  49.522  1.00  0.00     0.171 HD
BRANCH  23  26
HETATM   26  O   UNL     1      25.656  47.861  50.592  1.00  0.00    -0.309 OA
HETATM   27  C   UNL     1      26.624  48.319  49.646  1.00  0.00     0.215 C 
ENDBRANCH  23  26
ENDBRANCH  19  22
ENDBRANCH  15  16
ENDBRANCH   1  15
TORSDOF 6
ENDMDL
MODEL 3
REMARK VINA RESULT:      -8.2      8.264     12.271
REMARK  6 active torsions:
REMARK  status: ('A' for Active; 'I' for Inactive)
REMARK    1  A    between atoms: C_2  and  N_3 
REMARK    2  A    between atoms: C_2  and  C_18 
REMARK    3  A    between atoms: N_3  and  C_6 
REMARK    4  A    between atoms: C_6  and  C_7 
REMARK    5  A    between atoms: C_10  and  N_11 
REMARK       I    between atoms: N_11  and  C_12 
REMARK    6  A    between atoms: C_12  and  O_13 
ROOT
HETATM    1  N   UNL     1      20.747  49.049  49.931  1.00  0.00    -0.063 N 
HETATM    2  H   UNL     1      19.806  48.659  50.060  1.00  0.00     0.278 HD
HETATM    3  H   UNL     1      21.313  48.612  50.672  1.00  0.00     0.278 HD
ENDROOT
BRANCH   1   4
HETATM    4  C   UNL     1      21.305  48.639  48.601  1.00  0.00     0.216 C 
HETATM    5  C   UNL     1      21.016  47.157  48.362  1.00  0.00     0.045 C 
BRANCH   4   6
HETATM    6  C   UNL     1      22.781  48.940  48.527  1.00  0.00    -0.009 A 
HETATM    7  C   UNL     1      23.247  49.948  47.685  1.00  0.00     0.126 A 
HETATM    8  N   UNL     1      24.528  50.328  47.552  1.00  0.00    -0.259 NA
HETATM    9  C   UNL     1      25.438  49.647  48.298  1.00  0.00     0.074 A 
HETATM   10  C   UNL     1      25.076  48.616  49.161  1.00  0.00     0.034 A 
HETATM   11  C   UNL     1      26.842  49.881  48.304  1.00  0.00     0.040 A 
HETATM   12  S   UNL     1      26.451  47.958  49.956  1.00  0.00    -0.100 SA
HETATM   13  C   UNL     1      23.728  48.242  49.289  1.00  0.00     0.032 A 
HETATM   14  C   UNL     1      27.512  49.036  49.159  1.00  0.00     0.053 A 
ENDBRANCH   4   6
ENDBRANCH   1   4
BRANCH   1  15
HETATM   15  C   UNL     1      20.705  50.512  50.212  1.00  0.00     0.271 C 
BRANCH  15  16
HETATM   16  C   UNL     1      19.441  51.110  49.662  1.00  0.00    -0.033 A 
HETATM   17  C   UNL     1      19.492  52.164  48.742  1.00  0.00     0.011 A 
HETATM   18  C   UNL     1      18.316  52.763  48.271  1.00  0.00     0.030 A 
HETATM   19  C   UNL     1      17.067  52.326  48.711  1.00  0.00     0.036 A 
HETATM   20  C   UNL     1      17.019  51.266  49.627  1.00  0.00     0.030 A 
HETATM   21  C   UNL     1      18.190  50.666  50.104  1.00  0.00     0.011 A 
BRANCH  19  22
HETATM   22  N   UNL     1      15.835  52.862  48.306  1.00  0.00    -0.303 N 
HETATM   23  C   UNL     1      15.004  53.801  48.859  1.00  0.00     0.364 C 
HETATM   24  O   UNL     1      13.963  54.108  48.288  1.00  0.00    -0.238 OA
HETATM   25  H   UNL     1      15.436  52.514  47.441  1.00  0.00     0.171 HD
BRANCH  23  26
HETATM   26  O   UNL     1      15.407  54.320  50.043  1.00  0.00    -0.309 OA
HETATM   27  C   UNL     1      14.572  53.969  51.148  1.00  0.00     0.215 C 
ENDBRANCH  23  26
ENDBRANCH  19  22
ENDBRANCH  15  16
ENDBRANCH   1  15
TORSDOF 6
ENDMDL
MODEL 4
REMARK VINA RESULT:      -8.2      4.589      8.841
REMARK  6 active torsions:
REMARK  status: ('A' for Active; 'I' for Inactive)
REMARK    1  A    between atoms: C_2  and  N_3 
REMARK    2  A    between atoms: C_2  and  C_18 
REMARK    3  A    between atoms: N_3  and  C_6 
REMARK    4  A    between atoms: C_6  and  C_7 
REMARK    5  A    between atoms: C_10  and  N_11 
REMARK       I    between atoms: N_11  and  C_12 
REMARK    6  A    between atoms: C_12  and  O_13 
ROOT
HETATM    1  N   UNL     1      28.513  43.711  51.828  1.00  0.00    -0.063 N 
HETATM    2  H   UNL     1      28.308  44.636  52.224  1.00  0.00     0.278 HD
HETATM    3  H   UNL     1      29.247  43.885  51.127  1.00  0.00     0.278 HD
ENDROOT
BRANCH   1   4
HETATM    4  C   UNL     1      29.067  42.802  52.884  1.00  0.00     0.216 C 
HETATM    5  C   UNL     1      28.069  41.680  53.166  1.00  0.00     0.045 C 
BRANCH   4   6
HETATM    6  C   UNL     1      29.402  43.580  54.133  1.00  0.00    -0.009 A 
HETATM    7  C   UNL     1      28.706  44.748  54.436  1.00  0.00     0.126 A 
HETATM    8  N   UNL     1      28.891  45.509  55.526  1.00  0.00    -0.259 NA
HETATM    9  C   UNL     1      29.859  45.101  56.388  1.00  0.00     0.074 A 
HETATM   10  C   UNL     1      30.619  43.954  56.170  1.00  0.00     0.034 A 
HETATM   11  C   UNL     1      30.223  45.762  57.595  1.00  0.00     0.040 A 
HETATM   12  S   UNL     1      31.755  43.710  57.437  1.00  0.00    -0.100 SA
HETATM   13  C   UNL     1      30.400  43.168  55.026  1.00  0.00     0.032 A 
HETATM   14  C   UNL     1      31.238  45.115  58.263  1.00  0.00     0.053 A 
ENDBRANCH   4   6
ENDBRANCH   1   4
BRANCH   1  15
HETATM   15  C   UNL     1      27.309  43.224  51.095  1.00  0.00     0.271 C 
BRANCH  15  16
HETATM   16  C   UNL     1      26.371  44.364  50.822  1.00  0.00    -0.033 A 
HETATM   17  C   UNL     1      26.178  45.373  51.773  1.00  0.00     0.011 A 
HETATM   18  C   UNL     1      25.260  46.408  51.546  1.00  0.00     0.030 A 
HETATM   19  C   UNL     1      24.514  46.455  50.369  1.00  0.00     0.036 A 
HETATM   20  C   UNL     1      24.715  45.447  49.415  1.00  0.00     0.030 A 
HETATM   21  C   UNL     1      25.627  44.410  49.638  1.00  0.00     0.011 A 
BRANCH  19  22
HETATM   22  N   UNL     1      23.569  47.442  50.051  1.00  0.00    -0.303 N 
HETATM   23  C   UNL     1      23.648  48.605  49.331  1.00  0.00     0.364 C 
HETATM   24  O   UNL     1      22.651  49.304  49.188  1.00  0.00    -0.238 OA
HETATM   25  H   UNL     1      22.627  47.317  50.404  1.00  0.00     0.171 HD
BRANCH  23  26
HETATM   26  O   UNL     1      24.871  48.908  48.833  1.00  0.00    -0.309 OA
HETATM   27  C   UNL     1      24.894  50.081  48.017  1.00  0.00     0.215 C 
ENDBRANCH  23  26
ENDBRANCH  19  22
ENDBRANCH  15  16
ENDBRANCH   1  15
TORSDOF 6
ENDMDL
MODEL 5
REMARK VINA RESULT:      -8.1      8.359     12.396
REMARK  6 active torsions:
REMARK  status: ('A' for Active; 'I' for Inactive)
REMARK    1  A    between atoms: C_2  and  N_3 
REMARK    2  A    between atoms: C_2  and  C_18 
REMARK    3  A    between atoms: N_3  and  C_6 
REMARK    4  A    between atoms: C_6  and  C_7 
REMARK    5  A    between atoms: C_10  and  N_11 
REMARK       I    between atoms: N_11  and  C_12 
REMARK    6  A    between atoms: C_12  and  O_13 
ROOT
HETATM    1  N   UNL     1      20.650  49.072  50.012  1.00  0.00    -0.063 N 
HETATM    2  H   UNL     1      19.719  48.665  50.164  1.00  0.00     0.278 HD
HETATM    3  H   UNL     1      21.246  48.631  50.727  1.00  0.00     0.278 HD
ENDROOT
BRANCH   1   4
HETATM    4  C   UNL     1      21.170  48.693  48.658  1.00  0.00     0.216 C 
HETATM    5  C   UNL     1      20.858  47.222  48.385  1.00  0.00     0.045 C 
BRANCH   4   6
HETATM    6  C   UNL     1      22.648  48.979  48.556  1.00  0.00    -0.009 A 
HETATM    7  C   UNL     1      23.109  49.981  47.705  1.00  0.00     0.126 A 
HETATM    8  N   UNL     1      24.391  50.348  47.548  1.00  0.00    -0.259 NA
HETATM    9  C   UNL     1      25.308  49.658  48.277  1.00  0.00     0.074 A 
HETATM   10  C   UNL     1      24.951  48.631  49.149  1.00  0.00     0.034 A 
HETATM   11  C   UNL     1      26.714  49.878  48.257  1.00  0.00     0.040 A 
HETATM   12  S   UNL     1      26.333  47.960  49.918  1.00  0.00    -0.100 SA
HETATM   13  C   UNL     1      23.601  48.271  49.302  1.00  0.00     0.032 A 
HETATM   14  C   UNL     1      27.391  49.027  49.101  1.00  0.00     0.053 A 
ENDBRANCH   4   6
ENDBRANCH   1   4
BRANCH   1  15
HETATM   15  C   UNL     1      20.595  50.529  50.319  1.00  0.00     0.271 C 
BRANCH  15  16
HETATM   16  C   UNL     1      19.398  51.154  49.660  1.00  0.00    -0.033 A 
HETATM   17  C   UNL     1      18.101  50.799  50.051  1.00  0.00     0.011 A 
HETATM   18  C   UNL     1      16.983  51.336  49.399  1.00  0.00     0.030 A 
HETATM   19  C   UNL     1      17.135  52.233  48.343  1.00  0.00     0.036 A 
HETATM   20  C   UNL     1      18.434  52.592  47.958  1.00  0.00     0.030 A 
HETATM   21  C   UNL     1      19.555  52.057  48.602  1.00  0.00     0.011 A 
BRANCH  19  22
HETATM   22  N   UNL     1      16.082  52.820  47.623  1.00  0.00    -0.303 N 
HETATM   23  C   UNL     1      15.359  52.408  46.536  1.00  0.00     0.364 C 
HETATM   24  O   UNL     1      14.463  53.119  46.093  1.00  0.00    -0.238 OA
HETATM   25  H   UNL     1      15.761  53.732  47.927  1.00  0.00     0.171 HD
BRANCH  23  26
HETATM   26  O   UNL     1      15.716  51.213  46.007  1.00  0.00    -0.309 OA
HETATM   27  C   UNL     1      16.434  51.311  44.776  1.00  0.00     0.215 C 
ENDBRANCH  23  26
ENDBRANCH  19  22
ENDBRANCH  15  16
ENDBRANCH   1  15
TORSDOF 6
ENDMDL
MODEL 6
REMARK VINA RESULT:      -7.7      3.477      4.912
REMARK  6 active torsions:
REMARK  status: ('A' for Active; 'I' for Inactive)
REMARK    1  A    between atoms: C_2  and  N_3 
REMARK    2  A    between atoms: C_2  and  C_18 
REMARK    3  A    between atoms: N_3  and  C_6 
REMARK    4  A    between atoms: C_6  and  C_7 
REMARK    5  A    between atoms: C_10  and  N_11 
REMARK       I    between atoms: N_11  and  C_12 
REMARK    6  A    between atoms: C_12  and  O_13 
ROOT
HETATM    1  N   UNL     1      28.951  41.241  51.710  1.00  0.00    -0.063 N 
HETATM    2  H   UNL     1      29.813  40.793  51.375  1.00  0.00     0.278 HD
HETATM    3  H   UNL     1      29.090  42.244  51.522  1.00  0.00     0.278 HD
ENDROOT
BRANCH   1   4
HETATM    4  C   UNL     1      27.773  40.765  50.915  1.00  0.00     0.216 C 
HETATM    5  C   UNL     1      28.261  40.091  49.633  1.00  0.00     0.045 C 
BRANCH   4   6
HETATM    6  C   UNL     1      26.832  41.907  50.623  1.00  0.00    -0.009 A 
HETATM    7  C   UNL     1      25.456  41.688  50.588  1.00  0.00     0.126 A 
HETATM    8  N   UNL     1      24.519  42.624  50.368  1.00  0.00    -0.259 NA
HETATM    9  C   UNL     1      24.971  43.886  50.142  1.00  0.00     0.074 A 
HETATM   10  C   UNL     1      26.326  44.207  50.144  1.00  0.00     0.034 A 
HETATM   11  C   UNL     1      24.153  45.022  49.881  1.00  0.00     0.040 A 
HETATM   12  S   UNL     1      26.571  45.879  49.827  1.00  0.00    -0.100 SA
HETATM   13  C   UNL     1      27.288  43.212  50.385  1.00  0.00     0.032 A 
HETATM   14  C   UNL     1      24.891  46.168  49.691  1.00  0.00     0.053 A 
ENDBRANCH   4   6
ENDBRANCH   1   4
BRANCH   1  15
HETATM   15  C   UNL     1      28.867  41.076  53.189  1.00  0.00     0.271 C 
BRANCH  15  16
HETATM   16  C   UNL     1      28.522  42.385  53.839  1.00  0.00    -0.033 A 
HETATM   17  C   UNL     1      27.191  42.708  54.130  1.00  0.00     0.011 A 
HETATM   18  C   UNL     1      26.859  43.953  54.683  1.00  0.00     0.030 A 
HETATM   19  C   UNL     1      27.846  44.900  54.952  1.00  0.00     0.036 A 
HETATM   20  C   UNL     1      29.178  44.571  54.667  1.00  0.00     0.030 A 
HETATM   21  C   UNL     1      29.515  43.331  54.111  1.00  0.00     0.011 A 
BRANCH  19  22
HETATM   22  N   UNL     1      27.616  46.173  55.498  1.00  0.00    -0.303 N 
HETATM   23  C   UNL     1      27.198  47.356  54.949  1.00  0.00     0.364 C 
HETATM   24  O   UNL     1      27.065  48.346  55.661  1.00  0.00    -0.238 OA
HETATM   25  H   UNL     1      27.785  46.292  56.491  1.00  0.00     0.171 HD
BRANCH  23  26
HETATM   26  O   UNL     1      26.973  47.339  53.613  1.00  0.00    -0.309 OA
HETATM   27  C   UNL     1      25.595  47.206  53.256  1.00  0.00     0.215 C 
ENDBRANCH  23  26
ENDBRANCH  19  22
ENDBRANCH  15  16
ENDBRANCH   1  15
TORSDOF 6
ENDMDL
MODEL 7
REMARK VINA RESULT:      -7.6      5.070      8.279
REMARK  6 active torsions:
REMARK  status: ('A' for Active; 'I' for Inactive)
REMARK    1  A    between atoms: C_2  and  N_3 
REMARK    2  A    between atoms: C_2  and  C_18 
REMARK    3  A    between atoms: N_3  and  C_6 
REMARK    4  A    between atoms: C_6  and  C_7 
REMARK    5  A    between atoms: C_10  and  N_11 
REMARK       I    between atoms: N_11  and  C_12 
REMARK    6  A    between atoms: C_12  and  O_13 
ROOT
HETATM    1  N   UNL     1      27.296  44.825  52.309  1.00  0.00    -0.063 N 
HETATM    2  H   UNL     1      27.772  45.553  51.763  1.00  0.00     0.278 HD
HETATM    3  H   UNL     1      27.948  44.028  52.303  1.00  0.00     0.278 HD
ENDROOT
BRANCH   1   4
HETATM    4  C   UNL     1      27.106  45.275  53.726  1.00  0.00     0.216 C 
HETATM    5  C   UNL     1      26.887  46.787  53.756  1.00  0.00     0.045 C 
BRANCH   4   6
HETATM    6  C   UNL     1      28.282  44.863  54.577  1.00  0.00    -0.009 A 
HETATM    7  C   UNL     1      29.100  43.809  54.175  1.00  0.00     0.126 A 
HETATM    8  N   UNL     1      30.188  43.369  54.828  1.00  0.00    -0.259 NA
HETATM    9  C   UNL     1      30.491  44.005  55.990  1.00  0.00     0.074 A 
HETATM   10  C   UNL     1      29.729  45.062  56.485  1.00  0.00     0.034 A 
HETATM   11  C   UNL     1      31.590  43.695  56.840  1.00  0.00     0.040 A 
HETATM   12  S   UNL     1      30.369  45.648  57.969  1.00  0.00    -0.100 SA
HETATM   13  C   UNL     1      28.600  45.510  55.779  1.00  0.00     0.032 A 
HETATM   14  C   UNL     1      31.644  44.509  57.949  1.00  0.00     0.053 A 
ENDBRANCH   4   6
ENDBRANCH   1   4
BRANCH   1  15
HETATM   15  C   UNL     1      26.070  44.399  51.576  1.00  0.00     0.271 C 
BRANCH  15  16
HETATM   16  C   UNL     1      26.154  42.940  51.227  1.00  0.00    -0.033 A 
HETATM   17  C   UNL     1      27.150  42.129  51.785  1.00  0.00     0.011 A 
HETATM   18  C   UNL     1      27.268  40.782  51.418  1.00  0.00     0.030 A 
HETATM   19  C   UNL     1      26.398  40.218  50.486  1.00  0.00     0.036 A 
HETATM   20  C   UNL     1      25.397  41.030  49.935  1.00  0.00     0.030 A 
HETATM   21  C   UNL     1      25.277  42.377  50.294  1.00  0.00     0.011 A 
BRANCH  19  22
HETATM   22  N   UNL     1      26.436  38.884  50.049  1.00  0.00    -0.303 N 
HETATM   23  C   UNL     1      27.448  38.091  49.576  1.00  0.00     0.364 C 
HETATM   24  O   UNL     1      27.217  36.928  49.262  1.00  0.00    -0.238 OA
HETATM   25  H   UNL     1      25.566  38.364  50.062  1.00  0.00     0.171 HD
BRANCH  23  26
HETATM   26  O   UNL     1      28.663  38.683  49.474  1.00  0.00    -0.309 OA
HETATM   27  C   UNL     1      29.719  37.959  50.108  1.00  0.00     0.215 C 
ENDBRANCH  23  26
ENDBRANCH  19  22
ENDBRANCH  15  16
ENDBRANCH   1  15
TORSDOF 6
ENDMDL
MODEL 8
REMARK VINA RESULT:      -7.6      2.805      4.596
REMARK  6 active torsions:
REMARK  status: ('A' for Active; 'I' for Inactive)
REMARK    1  A    between atoms: C_2  and  N_3 
REMARK    2  A    between atoms: C_2  and  C_18 
REMARK    3  A    between atoms: N_3  and  C_6 
REMARK    4  A    between atoms: C_6  and  C_7 
REMARK    5  A    between atoms: C_10  and  N_11 
REMARK       I    between atoms: N_11  and  C_12 
REMARK    6  A    between atoms: C_12  and  O_13 
ROOT
HETATM    1  N   UNL     1      26.297  47.285  51.211  1.00  0.00    -0.063 N 
HETATM    2  H   UNL     1      27.181  46.769  51.301  1.00  0.00     0.278 HD
HETATM    3  H   UNL     1      26.573  48.277  51.216  1.00  0.00     0.278 HD
ENDROOT
BRANCH   1   4
HETATM    4  C   UNL     1      25.647  46.977  49.895  1.00  0.00     0.216 C 
HETATM    5  C   UNL     1      24.214  47.507  49.897  1.00  0.00     0.045 C 
BRANCH   4   6
HETATM    6  C   UNL     1      25.695  45.495  49.612  1.00  0.00    -0.009 A 
HETATM    7  C   UNL     1      26.882  44.788  49.790  1.00  0.00     0.126 A 
HETATM    8  N   UNL     1      27.044  43.469  49.600  1.00  0.00    -0.259 NA
HETATM    9  C   UNL     1      25.948  42.783  49.178  1.00  0.00     0.074 A 
HETATM   10  C   UNL     1      24.718  43.399  48.959  1.00  0.00     0.034 A 
HETATM   11  C   UNL     1      25.902  41.386  48.909  1.00  0.00     0.040 A 
HETATM   12  S   UNL     1      23.539  42.265  48.431  1.00  0.00    -0.100 SA
HETATM   13  C   UNL     1      24.572  44.780  49.174  1.00  0.00     0.032 A 
HETATM   14  C   UNL     1      24.656  40.971  48.496  1.00  0.00     0.053 A 
ENDBRANCH   4   6
ENDBRANCH   1   4
BRANCH   1  15
HETATM   15  C   UNL     1      25.474  47.048  52.431  1.00  0.00     0.271 C 
BRANCH  15  16
HETATM   16  C   UNL     1      26.363  46.790  53.614  1.00  0.00    -0.033 A 
HETATM   17  C   UNL     1      26.917  45.522  53.827  1.00  0.00     0.011 A 
HETATM   18  C   UNL     1      27.699  45.261  54.961  1.00  0.00     0.030 A 
HETATM   19  C   UNL     1      27.940  46.258  55.905  1.00  0.00     0.036 A 
HETATM   20  C   UNL     1      27.390  47.528  55.686  1.00  0.00     0.030 A 
HETATM   21  C   UNL     1      26.605  47.793  54.558  1.00  0.00     0.011 A 
BRANCH  19  22
HETATM   22  N   UNL     1      28.702  46.097  57.073  1.00  0.00    -0.303 N 
HETATM   23  C   UNL     1      30.008  45.746  57.288  1.00  0.00     0.364 C 
HETATM   24  O   UNL     1      30.445  45.684  58.432  1.00  0.00    -0.238 OA
HETATM   25  H   UNL     1      28.236  46.256  57.960  1.00  0.00     0.171 HD
BRANCH  23  26
HETATM   26  O   UNL     1      30.735  45.470  56.178  1.00  0.00    -0.309 OA
HETATM   27  C   UNL     1      31.062  44.087  56.024  1.00  0.00     0.215 C 
ENDBRANCH  23  26
ENDBRANCH  19  22
ENDBRANCH  15  16
ENDBRANCH   1  15
TORSDOF 6
ENDMDL
MODEL 9
REMARK VINA RESULT:      -7.5      4.015      5.030
REMARK  6 active torsions:
REMARK  status: ('A' for Active; 'I' for Inactive)
REMARK    1  A    between atoms: C_2  and  N_3 
REMARK    2  A    between atoms: C_2  and  C_18 
REMARK    3  A    between atoms: N_3  and  C_6 
REMARK    4  A    between atoms: C_6  and  C_7 
REMARK    5  A    between atoms: C_10  and  N_11 
REMARK       I    between atoms: N_11  and  C_12 
REMARK    6  A    between atoms: C_12  and  O_13 
ROOT
HETATM    1  N   UNL     1      25.721  44.811  50.268  1.00  0.00    -0.063 N 
HETATM    2  H   UNL     1      24.887  44.958  49.686  1.00  0.00     0.278 HD
HETATM    3  H   UNL     1      26.413  44.394  49.629  1.00  0.00     0.278 HD
ENDROOT
BRANCH   1   4
HETATM    4  C   UNL     1      26.254  46.125  50.757  1.00  0.00     0.216 C 
HETATM    5  C   UNL     1      26.054  46.226  52.268  1.00  0.00     0.045 C 
BRANCH   4   6
HETATM    6  C   UNL     1      25.596  47.270  50.027  1.00  0.00    -0.009 A 
HETATM    7  C   UNL     1      26.373  48.288  49.478  1.00  0.00     0.126 A 
HETATM    8  N   UNL     1      25.910  49.340  48.785  1.00  0.00    -0.259 NA
HETATM    9  C   UNL     1      24.561  49.414  48.632  1.00  0.00     0.074 A 
HETATM   10  C   UNL     1      23.696  48.454  49.152  1.00  0.00     0.034 A 
HETATM   11  C   UNL     1      23.863  50.445  47.942  1.00  0.00     0.040 A 
HETATM   12  S   UNL     1      22.059  48.830  48.791  1.00  0.00    -0.100 SA
HETATM   13  C   UNL     1      24.206  47.356  49.867  1.00  0.00     0.032 A 
HETATM   14  C   UNL     1      22.500  50.253  47.951  1.00  0.00     0.053 A 
ENDBRANCH   4   6
ENDBRANCH   1   4
BRANCH   1  15
HETATM   15  C   UNL     1      25.408  43.791  51.308  1.00  0.00     0.271 C 
BRANCH  15  16
HETATM   16  C   UNL     1      26.339  42.619  51.184  1.00  0.00    -0.033 A 
HETATM   17  C   UNL     1      25.914  41.432  50.574  1.00  0.00     0.011 A 
HETATM   18  C   UNL     1      26.760  40.317  50.508  1.00  0.00     0.030 A 
HETATM   19  C   UNL     1      28.043  40.361  51.050  1.00  0.00     0.036 A 
HETATM   20  C   UNL     1      28.469  41.553  51.653  1.00  0.00     0.030 A 
HETATM   21  C   UNL     1      27.627  42.669  51.726  1.00  0.00     0.011 A 
BRANCH  19  22
HETATM   22  N   UNL     1      28.962  39.300  51.041  1.00  0.00    -0.303 N 
HETATM   23  C   UNL     1      29.567  38.607  50.026  1.00  0.00     0.364 C 
HETATM   24  O   UNL     1      30.358  37.706  50.289  1.00  0.00    -0.238 OA
HETATM   25  H   UNL     1      29.264  38.936  51.937  1.00  0.00     0.171 HD
BRANCH  23  26
HETATM   26  O   UNL     1      29.218  38.974  48.770  1.00  0.00    -0.309 OA
HETATM   27  C   UNL     1      28.832  37.884  47.930  1.00  0.00     0.215 C 
ENDBRANCH  23  26
ENDBRANCH  19  22
ENDBRANCH  15  16
ENDBRANCH   1  15
TORSDOF 6
ENDMDL
MODEL 10
REMARK VINA RESULT:      -7.5      5.193      9.587
REMARK  6 active torsions:
REMARK  status: ('A' for Active; 'I' for Inactive)
REMARK    1  A    between atoms: C_2  and  N_3 
REMARK    2  A    between atoms: C_2  and  C_18 
REMARK    3  A    between atoms: N_3  and  C_6 
REMARK    4  A    between atoms: C_6  and  C_7 
REMARK    5  A    between atoms: C_10  and  N_11 
REMARK       I    between atoms: N_11  and  C_12 
REMARK    6  A    between atoms: C_12  and  O_13 
ROOT
HETATM    1  N   UNL     1      25.418  45.302  52.231  1.00  0.00    -0.063 N 
HETATM    2  H   UNL     1      25.670  44.312  52.124  1.00  0.00     0.278 HD
HETATM    3  H   UNL     1      24.393  45.321  52.133  1.00  0.00     0.278 HD
ENDROOT
BRANCH   1   4
HETATM    4  C   UNL     1      25.776  45.784  53.605  1.00  0.00     0.216 C 
HETATM    5  C   UNL     1      25.889  47.308  53.598  1.00  0.00     0.045 C 
BRANCH   4   6
HETATM    6  C   UNL     1      27.049  45.131  54.084  1.00  0.00    -0.009 A 
HETATM    7  C   UNL     1      27.417  43.879  53.596  1.00  0.00     0.126 A 
HETATM    8  N   UNL     1      28.535  43.209  53.921  1.00  0.00    -0.259 NA
HETATM    9  C   UNL     1      29.357  43.812  54.821  1.00  0.00     0.074 A 
HETATM   10  C   UNL     1      29.074  45.058  55.376  1.00  0.00     0.034 A 
HETATM   11  C   UNL     1      30.583  43.276  55.307  1.00  0.00     0.040 A 
HETATM   12  S   UNL     1      30.303  45.544  56.474  1.00  0.00    -0.100 SA
HETATM   13  C   UNL     1      27.902  45.743  55.013  1.00  0.00     0.032 A 
HETATM   14  C   UNL     1      31.200  44.112  56.211  1.00  0.00     0.053 A 
ENDBRANCH   4   6
ENDBRANCH   1   4
BRANCH   1  15
HETATM   15  C   UNL     1      25.987  46.070  51.088  1.00  0.00     0.271 C 
BRANCH  15  16
HETATM   16  C   UNL     1      24.888  46.526  50.171  1.00  0.00    -0.033 A 
HETATM   17  C   UNL     1      24.717  47.885  49.882  1.00  0.00     0.011 A 
HETATM   18  C   UNL     1      23.658  48.320  49.074  1.00  0.00     0.030 A 
HETATM   19  C   UNL     1      22.746  47.409  48.541  1.00  0.00     0.036 A 
HETATM   20  C   UNL     1      22.924  46.048  48.826  1.00  0.00     0.030 A 
HETATM   21  C   UNL     1      23.977  45.608  49.636  1.00  0.00     0.011 A 
BRANCH  19  22
HETATM   22  N   UNL     1      21.652  47.743  47.728  1.00  0.00    -0.303 N 
HETATM   23  C   UNL     1      20.449  48.342  47.992  1.00  0.00     0.364 C 
HETATM   24  O   UNL     1      19.649  48.533  47.082  1.00  0.00    -0.238 OA
HETATM   25  H   UNL     1      21.714  47.510  46.744  1.00  0.00     0.171 HD
BRANCH  23  26
HETATM   26  O   UNL     1      20.225  48.671  49.287  1.00  0.00    -0.309 OA
HETATM   27  C   UNL     1      19.010  48.140  49.822  1.00  0.00     0.215 C 
ENDBRANCH  23  26
ENDBRANCH  19  22
ENDBRANCH  15  16
ENDBRANCH   1  15
TORSDOF 6
ENDMDL
