MODEL 1
REMARK VINA RESULT:      -8.9      0.000      0.000
REMARK  7 active torsions:
REMARK  status: ('A' for Active; 'I' for Inactive)
REMARK    1  A    between atoms: C_2  and  C_3 
REMARK    2  A    between atoms: C_6  and  C_7 
REMARK       I    between atoms: C_7  and  N_8 
REMARK    3  A    between atoms: C_14  and  C_15 
REMARK       I    between atoms: C_15  and  N_16 
REMARK    4  A    between atoms: N_16  and  C_17 
REMARK    5  A    between atoms: C_17  and  C_18 
REMARK       I    between atoms: N_25  and  C_26 
REMARK    6  A    between atoms: C_26  and  C_27 
REMARK    7  A    between atoms: C_30  and  O_31 
ROOT
HETATM    1  C   UNL     1      14.796  53.747  48.585  1.00  0.00     0.253 C 
HETATM    2  N   UNL     1      15.440  52.500  48.522  1.00  0.00    -0.348 N 
HETATM    3  C   UNL     1      16.136  51.914  49.662  1.00  0.00     0.131 C 
HETATM    4  C   UNL     1      16.279  50.409  49.569  1.00  0.00     0.081 C 
HETATM    5  C   UNL     1      16.813  49.897  48.224  1.00  0.00     0.142 C 
HETATM    6  O   UNL     1      16.378  48.504  48.207  1.00  0.00    -0.358 OA
HETATM    7  C   UNL     1      17.511  47.655  48.047  1.00  0.00     0.206 C 
HETATM    8  C   UNL     1      18.714  48.473  48.462  1.00  0.00     0.206 C 
HETATM    9  N   UNL     1      18.282  49.826  48.132  1.00  0.00    -0.300 N 
HETATM   10  C   UNL     1      19.074  50.962  48.190  1.00  0.00     0.257 C 
HETATM   11  O   UNL     1      18.648  52.104  48.059  1.00  0.00    -0.267 OA
HETATM   12  C   UNL     1      16.090  50.564  47.049  1.00  0.00     0.081 C 
HETATM   13  C   UNL     1      15.847  52.062  47.189  1.00  0.00     0.131 C 
HETATM   14  O   UNL     1      14.218  54.262  47.630  1.00  0.00    -0.267 OA
ENDROOT
BRANCH   8  15
HETATM   15  C   UNL     1      19.921  47.799  47.807  1.00  0.00     0.243 C 
HETATM   16  N   UNL     1      20.951  47.420  48.623  1.00  0.00    -0.354 N 
HETATM   17  H   UNL     1      20.883  47.468  49.636  1.00  0.00     0.162 HD
HETATM   18  O   UNL     1      20.002  47.734  46.579  1.00  0.00    -0.271 OA
BRANCH  16  19
HETATM   19  C   UNL     1      22.141  46.796  48.079  1.00  0.00     0.181 C 
BRANCH  19  20
HETATM   20  C   UNL     1      23.047  46.227  49.146  1.00  0.00     0.051 A 
HETATM   21  N   UNL     1      22.936  44.905  49.445  1.00  0.00    -0.264 NA
HETATM   22  C   UNL     1      23.749  44.424  50.412  1.00  0.00     0.117 A 
HETATM   23  C   UNL     1      24.665  45.197  51.108  1.00  0.00     0.019 A 
HETATM   24  C   UNL     1      24.755  46.549  50.801  1.00  0.00     0.003 A 
HETATM   25  C   UNL     1      23.933  47.076  49.809  1.00  0.00     0.029 A 
ENDBRANCH  19  20
ENDBRANCH  16  19
ENDBRANCH   8  15
BRANCH  10  26
HETATM   26  C   UNL     1      20.537  50.856  48.344  1.00  0.00     0.032 A 
HETATM   27  C   UNL     1      21.054  50.882  49.642  1.00  0.00     0.020 A 
HETATM   28  C   UNL     1      22.424  50.733  49.848  1.00  0.00     0.038 A 
HETATM   29  C   UNL     1      23.284  50.529  48.767  1.00  0.00     0.068 A 
HETATM   30  C   UNL     1      22.760  50.479  47.471  1.00  0.00     0.038 A 
HETATM   31  C   UNL     1      21.384  50.629  47.257  1.00  0.00     0.020 A 
BRANCH  29  32
HETATM   32  O   UNL     1      24.599  50.388  49.111  1.00  0.00    -0.356 OA
HETATM   33  C   UNL     1      25.497  50.005  48.078  1.00  0.00     0.210 C 
ENDBRANCH  29  32
ENDBRANCH  10  26
BRANCH   1  34
HETATM   34  C   UNL     1      14.804  54.507  49.858  1.00  0.00     0.032 A 
HETATM   35  C   UNL     1      15.328  55.802  49.911  1.00  0.00     0.017 A 
HETATM   36  C   UNL     1      15.315  56.510  51.113  1.00  0.00     0.008 A 
HETATM   37  C   UNL     1      14.742  55.947  52.264  1.00  0.00    -0.059 A 
HETATM   38  C   UNL     1      14.182  54.663  52.188  1.00  0.00     0.008 A 
HETATM   39  C   UNL     1      14.208  53.946  50.989  1.00  0.00     0.017 A 
BRANCH  37  40
HETATM   40  C   UNL     1      14.717  56.720  53.561  1.00  0.00     0.034 C 
HETATM   41  C   UNL     1      16.093  56.828  54.201  1.00  0.00     0.010 C 
ENDBRANCH  37  40
ENDBRANCH   1  34
TORSDOF 7
ENDMDL
MODEL 2
REMARK VINA RESULT:      -8.7      2.116      3.133
REMARK  7 active torsions:
REMARK  status: ('A' for Active; 'I' for Inactive)
REMARK    1  A    between atoms: C_2  and  C_3 
REMARK    2  A    between atoms: C_6  and  C_7 
REMARK       I    between atoms: C_7  and  N_8 
REMARK    3  A    between atoms: C_14  and  C_15 
REMARK       I    between atoms: C_15  and  N_16 
REMARK    4  A    between atoms: N_16  and  C_17 
REMARK    5  A    between atoms: C_17  and  C_18 
REMARK       I    between atoms: N_25  and  C_26 
REMARK    6  A    between atoms: C_26  and  C_27 
REMARK    7  A    between atoms: C_30  and  O_31 
ROOT
HETATM    1  C   UNL     1      14.354  54.465  48.468  1.00  0.00     0.253 C 
HETATM    2  N   UNL     1      14.885  53.164  48.457  1.00  0.00    -0.348 N 
HETATM    3  C   UNL     1      15.398  52.512  49.658  1.00  0.00     0.131 C 
HETATM    4  C   UNL     1      15.412  51.001  49.559  1.00  0.00     0.081 C 
HETATM    5  C   UNL     1      16.040  50.448  48.273  1.00  0.00     0.142 C 
HETATM    6  O   UNL     1      15.484  49.100  48.190  1.00  0.00    -0.358 OA
HETATM    7  C   UNL     1      16.546  48.151  48.141  1.00  0.00     0.206 C 
HETATM    8  C   UNL     1      17.766  48.854  48.694  1.00  0.00     0.206 C 
HETATM    9  N   UNL     1      17.497  50.242  48.338  1.00  0.00    -0.300 N 
HETATM   10  C   UNL     1      18.379  51.301  48.496  1.00  0.00     0.257 C 
HETATM   11  O   UNL     1      18.075  52.477  48.336  1.00  0.00    -0.267 OA
HETATM   12  C   UNL     1      15.512  51.182  47.036  1.00  0.00     0.081 C 
HETATM   13  C   UNL     1      15.391  52.696  47.169  1.00  0.00     0.131 C 
HETATM   14  O   UNL     1      13.931  55.034  47.464  1.00  0.00    -0.267 OA
ENDROOT
BRANCH   8  15
HETATM   15  C   UNL     1      18.971  48.074  48.163  1.00  0.00     0.243 C 
HETATM   16  N   UNL     1      19.023  47.836  46.817  1.00  0.00    -0.354 N 
HETATM   17  H   UNL     1      18.361  48.253  46.169  1.00  0.00     0.162 HD
HETATM   18  O   UNL     1      19.778  47.572  48.947  1.00  0.00    -0.271 OA
BRANCH  16  19
HETATM   19  C   UNL     1      20.119  47.085  46.237  1.00  0.00     0.181 C 
BRANCH  19  20
HETATM   20  C   UNL     1      19.690  45.736  45.705  1.00  0.00     0.051 A 
HETATM   21  N   UNL     1      19.032  45.695  44.514  1.00  0.00    -0.264 NA
HETATM   22  C   UNL     1      18.649  44.477  44.068  1.00  0.00     0.117 A 
HETATM   23  C   UNL     1      18.878  43.295  44.753  1.00  0.00     0.019 A 
HETATM   24  C   UNL     1      19.536  43.357  45.974  1.00  0.00     0.003 A 
HETATM   25  C   UNL     1      19.946  44.594  46.462  1.00  0.00     0.029 A 
ENDBRANCH  19  20
ENDBRANCH  16  19
ENDBRANCH   8  15
BRANCH  10  26
HETATM   26  C   UNL     1      19.801  51.060  48.804  1.00  0.00     0.032 A 
HETATM   27  C   UNL     1      20.677  50.900  47.728  1.00  0.00     0.020 A 
HETATM   28  C   UNL     1      22.039  50.722  47.961  1.00  0.00     0.038 A 
HETATM   29  C   UNL     1      22.541  50.730  49.263  1.00  0.00     0.068 A 
HETATM   30  C   UNL     1      21.664  50.915  50.337  1.00  0.00     0.038 A 
HETATM   31  C   UNL     1      20.294  51.093  50.110  1.00  0.00     0.020 A 
BRANCH  29  32
HETATM   32  O   UNL     1      23.894  50.556  49.347  1.00  0.00    -0.356 OA
HETATM   33  C   UNL     1      24.515  49.826  48.297  1.00  0.00     0.210 C 
ENDBRANCH  29  32
ENDBRANCH  10  26
BRANCH   1  34
HETATM   34  C   UNL     1      14.293  55.216  49.745  1.00  0.00     0.032 A 
HETATM   35  C   UNL     1      13.291  54.947  50.682  1.00  0.00     0.017 A 
HETATM   36  C   UNL     1      13.256  55.653  51.886  1.00  0.00     0.008 A 
HETATM   37  C   UNL     1      14.244  56.604  52.182  1.00  0.00    -0.059 A 
HETATM   38  C   UNL     1      15.268  56.835  51.251  1.00  0.00     0.008 A 
HETATM   39  C   UNL     1      15.296  56.141  50.038  1.00  0.00     0.017 A 
BRANCH  37  40
HETATM   40  C   UNL     1      14.212  57.357  53.490  1.00  0.00     0.034 C 
HETATM   41  C   UNL     1      15.603  57.735  53.978  1.00  0.00     0.010 C 
ENDBRANCH  37  40
ENDBRANCH   1  34
TORSDOF 7
ENDMDL
MODEL 3
REMARK VINA RESULT:      -8.5     13.300     19.759
REMARK  7 active torsions:
REMARK  status: ('A' for Active; 'I' for Inactive)
REMARK    1  A    between atoms: C_2  and  C_3 
REMARK    2  A    between atoms: C_6  and  C_7 
REMARK       I    between atoms: C_7  and  N_8 
REMARK    3  A    between atoms: C_14  and  C_15 
REMARK       I    between atoms: C_15  and  N_16 
REMARK    4  A    between atoms: N_16  and  C_17 
REMARK    5  A    between atoms: C_17  and  C_18 
REMARK       I    between atoms: N_25  and  C_26 
REMARK    6  A    between atoms: C_26  and  C_27 
REMARK    7  A    between atoms: C_30  and  O_31 
ROOT
HETATM    1  C   UNL     1      40.417  52.151  43.050  1.00  0.00     0.253 C 
HETATM    2  N   UNL     1      39.313  52.410  42.221  1.00  0.00    -0.348 N 
HETATM    3  C   UNL     1      38.149  53.165  42.672  1.00  0.00     0.131 C 
HETATM    4  C   UNL     1      37.358  53.781  41.537  1.00  0.00     0.081 C 
HETATM    5  C   UNL     1      37.028  52.819  40.388  1.00  0.00     0.142 C 
HETATM    6  O   UNL     1      36.757  53.720  39.272  1.00  0.00    -0.358 OA
HETATM    7  C   UNL     1      35.449  53.470  38.766  1.00  0.00     0.206 C 
HETATM    8  C   UNL     1      34.699  52.756  39.869  1.00  0.00     0.206 C 
HETATM    9  N   UNL     1      35.778  52.059  40.561  1.00  0.00    -0.300 N 
HETATM   10  C   UNL     1      35.617  51.138  41.584  1.00  0.00     0.257 C 
HETATM   11  O   UNL     1      36.540  50.685  42.251  1.00  0.00    -0.267 OA
HETATM   12  C   UNL     1      38.261  52.012  39.968  1.00  0.00     0.081 C 
HETATM   13  C   UNL     1      39.122  51.482  41.108  1.00  0.00     0.131 C 
HETATM   14  O   UNL     1      41.399  51.503  42.691  1.00  0.00    -0.267 OA
ENDROOT
BRANCH   8  15
HETATM   15  C   UNL     1      33.541  52.029  39.182  1.00  0.00     0.243 C 
HETATM   16  N   UNL     1      32.273  52.332  39.596  1.00  0.00    -0.354 N 
HETATM   17  H   UNL     1      32.084  53.089  40.245  1.00  0.00     0.162 HD
HETATM   18  O   UNL     1      33.769  51.114  38.389  1.00  0.00    -0.271 OA
BRANCH  16  19
HETATM   19  C   UNL     1      31.123  51.670  39.012  1.00  0.00     0.181 C 
BRANCH  19  20
HETATM   20  C   UNL     1      29.875  51.810  39.854  1.00  0.00     0.051 A 
HETATM   21  N   UNL     1      28.746  51.176  39.438  1.00  0.00    -0.264 NA
HETATM   22  C   UNL     1      27.641  51.327  40.203  1.00  0.00     0.117 A 
HETATM   23  C   UNL     1      27.599  52.089  41.360  1.00  0.00     0.019 A 
HETATM   24  C   UNL     1      28.756  52.742  41.762  1.00  0.00     0.003 A 
HETATM   25  C   UNL     1      29.912  52.606  40.998  1.00  0.00     0.029 A 
ENDBRANCH  19  20
ENDBRANCH  16  19
ENDBRANCH   8  15
BRANCH  10  26
HETATM   26  C   UNL     1      34.289  50.573  41.890  1.00  0.00     0.032 A 
HETATM   27  C   UNL     1      33.961  49.344  41.313  1.00  0.00     0.020 A 
HETATM   28  C   UNL     1      32.742  48.739  41.610  1.00  0.00     0.038 A 
HETATM   29  C   UNL     1      31.853  49.341  42.504  1.00  0.00     0.068 A 
HETATM   30  C   UNL     1      32.196  50.559  43.098  1.00  0.00     0.038 A 
HETATM   31  C   UNL     1      33.420  51.172  42.803  1.00  0.00     0.020 A 
BRANCH  29  32
HETATM   32  O   UNL     1      30.701  48.636  42.712  1.00  0.00    -0.356 OA
HETATM   33  C   UNL     1      29.831  48.482  41.599  1.00  0.00     0.210 C 
ENDBRANCH  29  32
ENDBRANCH  10  26
BRANCH   1  34
HETATM   34  C   UNL     1      40.422  52.669  44.439  1.00  0.00     0.032 A 
HETATM   35  C   UNL     1      39.793  51.958  45.466  1.00  0.00     0.017 A 
HETATM   36  C   UNL     1      39.820  52.452  46.771  1.00  0.00     0.008 A 
HETATM   37  C   UNL     1      40.508  53.638  47.070  1.00  0.00    -0.059 A 
HETATM   38  C   UNL     1      41.170  54.319  46.038  1.00  0.00     0.008 A 
HETATM   39  C   UNL     1      41.132  53.836  44.727  1.00  0.00     0.017 A 
BRANCH  37  40
HETATM   40  C   UNL     1      40.546  54.163  48.484  1.00  0.00     0.034 C 
HETATM   41  C   UNL     1      39.307  53.781  49.281  1.00  0.00     0.010 C 
ENDBRANCH  37  40
ENDBRANCH   1  34
TORSDOF 7
ENDMDL
MODEL 4
REMARK VINA RESULT:      -8.4      3.908      9.829
REMARK  7 active torsions:
REMARK  status: ('A' for Active; 'I' for Inactive)
REMARK    1  A    between atoms: C_2  and  C_3 
REMARK    2  A    between atoms: C_6  and  C_7 
REMARK       I    between atoms: C_7  and  N_8 
REMARK    3  A    between atoms: C_14  and  C_15 
REMARK       I    between atoms: C_15  and  N_16 
REMARK    4  A    between atoms: N_16  and  C_17 
REMARK    5  A    between atoms: C_17  and  C_18 
REMARK       I    between atoms: N_25  and  C_26 
REMARK    6  A    between atoms: C_26  and  C_27 
REMARK    7  A    between atoms: C_30  and  O_31 
ROOT
HETATM    1  C   UNL     1      25.425  48.418  49.143  1.00  0.00     0.253 C 
HETATM    2  N   UNL     1      24.162  49.015  48.993  1.00  0.00    -0.348 N 
HETATM    3  C   UNL     1      22.994  48.588  49.756  1.00  0.00     0.131 C 
HETATM    4  C   UNL     1      21.922  49.653  49.856  1.00  0.00     0.081 C 
HETATM    5  C   UNL     1      21.547  50.314  48.523  1.00  0.00     0.142 C 
HETATM    6  O   UNL     1      20.938  51.574  48.942  1.00  0.00    -0.358 OA
HETATM    7  C   UNL     1      19.616  51.659  48.415  1.00  0.00     0.206 C 
HETATM    8  C   UNL     1      19.203  50.244  48.079  1.00  0.00     0.206 C 
HETATM    9  N   UNL     1      20.487  49.624  47.770  1.00  0.00    -0.300 N 
HETATM   10  C   UNL     1      20.663  48.346  47.263  1.00  0.00     0.257 C 
HETATM   11  O   UNL     1      21.752  47.792  47.159  1.00  0.00    -0.267 OA
HETATM   12  C   UNL     1      22.796  50.711  47.730  1.00  0.00     0.081 C 
HETATM   13  C   UNL     1      23.923  49.685  47.717  1.00  0.00     0.131 C 
HETATM   14  O   UNL     1      26.416  48.755  48.497  1.00  0.00    -0.267 OA
ENDROOT
BRANCH   8  15
HETATM   15  C   UNL     1      18.071  50.373  47.057  1.00  0.00     0.243 C 
HETATM   16  N   UNL     1      18.291  51.174  45.971  1.00  0.00    -0.354 N 
HETATM   17  H   UNL     1      19.203  51.577  45.774  1.00  0.00     0.162 HD
HETATM   18  O   UNL     1      16.967  49.879  47.292  1.00  0.00    -0.271 OA
BRANCH  16  19
HETATM   19  C   UNL     1      17.262  51.368  44.969  1.00  0.00     0.181 C 
BRANCH  19  20
HETATM   20  C   UNL     1      17.825  51.616  43.588  1.00  0.00     0.051 A 
HETATM   21  N   UNL     1      17.353  52.679  42.883  1.00  0.00    -0.264 NA
HETATM   22  C   UNL     1      17.864  52.870  41.647  1.00  0.00     0.117 A 
HETATM   23  C   UNL     1      18.818  52.049  41.068  1.00  0.00     0.019 A 
HETATM   24  C   UNL     1      19.278  50.959  41.795  1.00  0.00     0.003 A 
HETATM   25  C   UNL     1      18.774  50.734  43.072  1.00  0.00     0.029 A 
ENDBRANCH  19  20
ENDBRANCH  16  19
ENDBRANCH   8  15
BRANCH  10  26
HETATM   26  C   UNL     1      19.521  47.579  46.731  1.00  0.00     0.032 A 
HETATM   27  C   UNL     1      19.292  47.631  45.354  1.00  0.00     0.020 A 
HETATM   28  C   UNL     1      18.259  46.885  44.791  1.00  0.00     0.038 A 
HETATM   29  C   UNL     1      17.465  46.061  45.591  1.00  0.00     0.068 A 
HETATM   30  C   UNL     1      17.712  45.992  46.966  1.00  0.00     0.038 A 
HETATM   31  C   UNL     1      18.749  46.741  47.538  1.00  0.00     0.020 A 
BRANCH  29  32
HETATM   32  O   UNL     1      16.497  45.378  44.910  1.00  0.00    -0.356 OA
HETATM   33  C   UNL     1      16.682  43.976  44.763  1.00  0.00     0.210 C 
ENDBRANCH  29  32
ENDBRANCH  10  26
BRANCH   1  34
HETATM   34  C   UNL     1      25.599  47.316  50.119  1.00  0.00     0.032 A 
HETATM   35  C   UNL     1      25.984  47.587  51.436  1.00  0.00     0.017 A 
HETATM   36  C   UNL     1      26.129  46.540  52.347  1.00  0.00     0.008 A 
HETATM   37  C   UNL     1      25.853  45.218  51.964  1.00  0.00    -0.059 A 
HETATM   38  C   UNL     1      25.427  44.965  50.652  1.00  0.00     0.008 A 
HETATM   39  C   UNL     1      25.296  46.010  49.732  1.00  0.00     0.017 A 
BRANCH  37  40
HETATM   40  C   UNL     1      25.998  44.090  52.955  1.00  0.00     0.034 C 
HETATM   41  C   UNL     1      25.316  44.388  54.282  1.00  0.00     0.010 C 
ENDBRANCH  37  40
ENDBRANCH   1  34
TORSDOF 7
ENDMDL
MODEL 5
REMARK VINA RESULT:      -8.3      4.082      9.502
REMARK  7 active torsions:
REMARK  status: ('A' for Active; 'I' for Inactive)
REMARK    1  A    between atoms: C_2  and  C_3 
REMARK    2  A    between atoms: C_6  and  C_7 
REMARK       I    between atoms: C_7  and  N_8 
REMARK    3  A    between atoms: C_14  and  C_15 
REMARK       I    between atoms: C_15  and  N_16 
REMARK    4  A    between atoms: N_16  and  C_17 
REMARK    5  A    between atoms: C_17  and  C_18 
REMARK       I    between atoms: N_25  and  C_26 
REMARK    6  A    between atoms: C_26  and  C_27 
REMARK    7  A    between atoms: C_30  and  O_31 
ROOT
HETATM    1  C   UNL     1      20.665  50.105  49.474  1.00  0.00     0.253 C 
HETATM    2  N   UNL     1      19.675  49.680  48.571  1.00  0.00    -0.348 N 
HETATM    3  C   UNL     1      19.990  49.156  47.247  1.00  0.00     0.131 C 
HETATM    4  C   UNL     1      18.893  48.284  46.672  1.00  0.00     0.081 C 
HETATM    5  C   UNL     1      17.485  48.890  46.748  1.00  0.00     0.142 C 
HETATM    6  O   UNL     1      16.618  47.721  46.632  1.00  0.00    -0.358 OA
HETATM    7  C   UNL     1      15.740  47.889  45.522  1.00  0.00     0.206 C 
HETATM    8  C   UNL     1      16.378  48.933  44.633  1.00  0.00     0.206 C 
HETATM    9  N   UNL     1      17.117  49.737  45.600  1.00  0.00    -0.300 N 
HETATM   10  C   UNL     1      17.780  50.923  45.324  1.00  0.00     0.257 C 
HETATM   11  O   UNL     1      18.521  51.496  46.115  1.00  0.00    -0.267 OA
HETATM   12  C   UNL     1      17.204  49.469  48.138  1.00  0.00     0.081 C 
HETATM   13  C   UNL     1      18.347  50.256  48.768  1.00  0.00     0.131 C 
HETATM   14  O   UNL     1      20.417  50.563  50.588  1.00  0.00    -0.267 OA
ENDROOT
BRANCH   8  15
HETATM   15  C   UNL     1      15.245  49.495  43.773  1.00  0.00     0.243 C 
HETATM   16  N   UNL     1      14.138  49.971  44.421  1.00  0.00    -0.354 N 
HETATM   17  H   UNL     1      14.104  50.065  45.432  1.00  0.00     0.162 HD
HETATM   18  O   UNL     1      15.288  49.388  42.546  1.00  0.00    -0.271 OA
BRANCH  16  19
HETATM   19  C   UNL     1      13.011  50.499  43.678  1.00  0.00     0.181 C 
BRANCH  19  20
HETATM   20  C   UNL     1      13.000  52.010  43.623  1.00  0.00     0.051 A 
HETATM   21  N   UNL     1      12.911  52.607  42.403  1.00  0.00    -0.264 NA
HETATM   22  C   UNL     1      12.915  53.959  42.381  1.00  0.00     0.117 A 
HETATM   23  C   UNL     1      13.014  54.751  43.514  1.00  0.00     0.019 A 
HETATM   24  C   UNL     1      13.119  54.125  44.749  1.00  0.00     0.003 A 
HETATM   25  C   UNL     1      13.116  52.735  44.808  1.00  0.00     0.029 A 
ENDBRANCH  19  20
ENDBRANCH  16  19
ENDBRANCH   8  15
BRANCH  10  26
HETATM   26  C   UNL     1      17.567  51.628  44.046  1.00  0.00     0.032 A 
HETATM   27  C   UNL     1      16.735  52.750  44.057  1.00  0.00     0.020 A 
HETATM   28  C   UNL     1      16.541  53.484  42.889  1.00  0.00     0.038 A 
HETATM   29  C   UNL     1      17.195  53.122  41.709  1.00  0.00     0.068 A 
HETATM   30  C   UNL     1      18.046  52.012  41.708  1.00  0.00     0.038 A 
HETATM   31  C   UNL     1      18.245  51.270  42.879  1.00  0.00     0.020 A 
BRANCH  29  32
HETATM   32  O   UNL     1      16.924  53.933  40.643  1.00  0.00    -0.356 OA
HETATM   33  C   UNL     1      16.761  53.301  39.380  1.00  0.00     0.210 C 
ENDBRANCH  29  32
ENDBRANCH  10  26
BRANCH   1  34
HETATM   34  C   UNL     1      22.093  50.012  49.086  1.00  0.00     0.032 A 
HETATM   35  C   UNL     1      22.737  51.093  48.478  1.00  0.00     0.017 A 
HETATM   36  C   UNL     1      24.086  50.995  48.133  1.00  0.00     0.008 A 
HETATM   37  C   UNL     1      24.813  49.831  48.427  1.00  0.00    -0.059 A 
HETATM   38  C   UNL     1      24.165  48.769  49.075  1.00  0.00     0.008 A 
HETATM   39  C   UNL     1      22.811  48.859  49.408  1.00  0.00     0.017 A 
BRANCH  37  40
HETATM   40  C   UNL     1      26.275  49.732  48.064  1.00  0.00     0.034 C 
HETATM   41  C   UNL     1      27.079  48.953  49.095  1.00  0.00     0.010 C 
ENDBRANCH  37  40
ENDBRANCH   1  34
TORSDOF 7
ENDMDL
MODEL 6
REMARK VINA RESULT:      -8.3     12.467     16.297
REMARK  7 active torsions:
REMARK  status: ('A' for Active; 'I' for Inactive)
REMARK    1  A    between atoms: C_2  and  C_3 
REMARK    2  A    between atoms: C_6  and  C_7 
REMARK       I    between atoms: C_7  and  N_8 
REMARK    3  A    between atoms: C_14  and  C_15 
REMARK       I    between atoms: C_15  and  N_16 
REMARK    4  A    between atoms: N_16  and  C_17 
REMARK    5  A    between atoms: C_17  and  C_18 
REMARK       I    between atoms: N_25  and  C_26 
REMARK    6  A    between atoms: C_26  and  C_27 
REMARK    7  A    between atoms: C_30  and  O_31 
ROOT
HETATM    1  C   UNL     1      26.178  46.995  40.789  1.00  0.00     0.253 C 
HETATM    2  N   UNL     1      27.047  47.932  40.205  1.00  0.00    -0.348 N 
HETATM    3  C   UNL     1      28.351  47.566  39.664  1.00  0.00     0.131 C 
HETATM    4  C   UNL     1      28.872  48.551  38.638  1.00  0.00     0.081 C 
HETATM    5  C   UNL     1      28.802  50.023  39.068  1.00  0.00     0.142 C 
HETATM    6  O   UNL     1      28.854  50.739  37.797  1.00  0.00    -0.358 OA
HETATM    7  C   UNL     1      29.958  51.641  37.805  1.00  0.00     0.206 C 
HETATM    8  C   UNL     1      30.901  51.145  38.878  1.00  0.00     0.206 C 
HETATM    9  N   UNL     1      29.981  50.503  39.811  1.00  0.00    -0.300 N 
HETATM   10  C   UNL     1      30.318  49.995  41.055  1.00  0.00     0.257 C 
HETATM   11  O   UNL     1      29.564  49.324  41.751  1.00  0.00    -0.267 OA
HETATM   12  C   UNL     1      27.435  50.362  39.670  1.00  0.00     0.081 C 
HETATM   13  C   UNL     1      26.856  49.320  40.620  1.00  0.00     0.131 C 
HETATM   14  O   UNL     1      25.082  47.288  41.263  1.00  0.00    -0.267 OA
ENDROOT
BRANCH   8  15
HETATM   15  C   UNL     1      31.769  52.347  39.257  1.00  0.00     0.243 C 
HETATM   16  N   UNL     1      33.111  52.258  39.007  1.00  0.00    -0.354 N 
HETATM   17  H   UNL     1      33.512  51.485  38.485  1.00  0.00     0.162 HD
HETATM   18  O   UNL     1      31.282  53.289  39.885  1.00  0.00    -0.271 OA
BRANCH  16  19
HETATM   19  C   UNL     1      34.005  53.344  39.357  1.00  0.00     0.181 C 
BRANCH  19  20
HETATM   20  C   UNL     1      35.395  52.868  39.715  1.00  0.00     0.051 A 
HETATM   21  N   UNL     1      36.174  53.678  40.482  1.00  0.00    -0.264 NA
HETATM   22  C   UNL     1      37.416  53.234  40.777  1.00  0.00     0.117 A 
HETATM   23  C   UNL     1      37.930  52.024  40.338  1.00  0.00     0.019 A 
HETATM   24  C   UNL     1      37.127  51.216  39.543  1.00  0.00     0.003 A 
HETATM   25  C   UNL     1      35.842  51.643  39.222  1.00  0.00     0.029 A 
ENDBRANCH  19  20
ENDBRANCH  16  19
ENDBRANCH   8  15
BRANCH  10  26
HETATM   26  C   UNL     1      31.623  50.305  41.670  1.00  0.00     0.032 A 
HETATM   27  C   UNL     1      32.731  49.573  41.237  1.00  0.00     0.020 A 
HETATM   28  C   UNL     1      33.996  49.860  41.746  1.00  0.00     0.038 A 
HETATM   29  C   UNL     1      34.170  50.894  42.667  1.00  0.00     0.068 A 
HETATM   30  C   UNL     1      33.062  51.641  43.080  1.00  0.00     0.038 A 
HETATM   31  C   UNL     1      31.788  51.357  42.573  1.00  0.00     0.020 A 
BRANCH  29  32
HETATM   32  O   UNL     1      35.462  51.074  43.075  1.00  0.00    -0.356 OA
HETATM   33  C   UNL     1      35.744  52.255  43.814  1.00  0.00     0.210 C 
ENDBRANCH  29  32
ENDBRANCH  10  26
BRANCH   1  34
HETATM   34  C   UNL     1      26.582  45.570  40.856  1.00  0.00     0.032 A 
HETATM   35  C   UNL     1      27.116  44.928  39.734  1.00  0.00     0.017 A 
HETATM   36  C   UNL     1      27.505  43.591  39.817  1.00  0.00     0.008 A 
HETATM   37  C   UNL     1      27.402  42.893  41.031  1.00  0.00    -0.059 A 
HETATM   38  C   UNL     1      26.903  43.560  42.159  1.00  0.00     0.008 A 
HETATM   39  C   UNL     1      26.498  44.895  42.075  1.00  0.00     0.017 A 
BRANCH  37  40
HETATM   40  C   UNL     1      27.835  41.450  41.121  1.00  0.00     0.034 C 
HETATM   41  C   UNL     1      28.427  41.104  42.480  1.00  0.00     0.010 C 
ENDBRANCH  37  40
ENDBRANCH   1  34
TORSDOF 7
ENDMDL
MODEL 7
REMARK VINA RESULT:      -8.1      2.937      9.703
REMARK  7 active torsions:
REMARK  status: ('A' for Active; 'I' for Inactive)
REMARK    1  A    between atoms: C_2  and  C_3 
REMARK    2  A    between atoms: C_6  and  C_7 
REMARK       I    between atoms: C_7  and  N_8 
REMARK    3  A    between atoms: C_14  and  C_15 
REMARK       I    between atoms: C_15  and  N_16 
REMARK    4  A    between atoms: N_16  and  C_17 
REMARK    5  A    between atoms: C_17  and  C_18 
REMARK       I    between atoms: N_25  and  C_26 
REMARK    6  A    between atoms: C_26  and  C_27 
REMARK    7  A    between atoms: C_30  and  O_31 
ROOT
HETATM    1  C   UNL     1      23.297  49.205  49.204  1.00  0.00     0.253 C 
HETATM    2  N   UNL     1      21.969  49.662  49.183  1.00  0.00    -0.348 N 
HETATM    3  C   UNL     1      20.828  48.779  49.402  1.00  0.00     0.131 C 
HETATM    4  C   UNL     1      19.586  49.509  49.868  1.00  0.00     0.081 C 
HETATM    5  C   UNL     1      19.222  50.750  49.041  1.00  0.00     0.142 C 
HETATM    6  O   UNL     1      18.372  51.513  49.950  1.00  0.00    -0.358 OA
HETATM    7  C   UNL     1      17.107  51.744  49.336  1.00  0.00     0.206 C 
HETATM    8  C   UNL     1      16.972  50.707  48.243  1.00  0.00     0.206 C 
HETATM    9  N   UNL     1      18.365  50.481  47.873  1.00  0.00    -0.300 N 
HETATM   10  C   UNL     1      18.801  49.709  46.807  1.00  0.00     0.257 C 
HETATM   11  O   UNL     1      19.974  49.409  46.611  1.00  0.00    -0.267 OA
HETATM   12  C   UNL     1      20.450  51.632  48.794  1.00  0.00     0.081 C 
HETATM   13  C   UNL     1      21.732  50.893  48.432  1.00  0.00     0.131 C 
HETATM   14  O   UNL     1      24.269  49.933  49.008  1.00  0.00    -0.267 OA
ENDROOT
BRANCH   8  15
HETATM   15  C   UNL     1      15.929  51.261  47.271  1.00  0.00     0.243 C 
HETATM   16  N   UNL     1      16.023  52.583  46.933  1.00  0.00    -0.354 N 
HETATM   17  H   UNL     1      16.814  53.157  47.212  1.00  0.00     0.162 HD
HETATM   18  O   UNL     1      14.973  50.565  46.927  1.00  0.00    -0.271 OA
BRANCH  16  19
HETATM   19  C   UNL     1      15.060  53.191  46.036  1.00  0.00     0.181 C 
BRANCH  19  20
HETATM   20  C   UNL     1      15.483  53.122  44.586  1.00  0.00     0.051 A 
HETATM   21  N   UNL     1      14.602  52.608  43.685  1.00  0.00    -0.264 NA
HETATM   22  C   UNL     1      15.010  52.546  42.397  1.00  0.00     0.117 A 
HETATM   23  C   UNL     1      16.257  52.961  41.959  1.00  0.00     0.019 A 
HETATM   24  C   UNL     1      17.149  53.469  42.895  1.00  0.00     0.003 A 
HETATM   25  C   UNL     1      16.761  53.548  44.229  1.00  0.00     0.029 A 
ENDBRANCH  19  20
ENDBRANCH  16  19
ENDBRANCH   8  15
BRANCH  10  26
HETATM   26  C   UNL     1      17.858  49.249  45.771  1.00  0.00     0.032 A 
HETATM   27  C   UNL     1      17.746  50.020  44.611  1.00  0.00     0.020 A 
HETATM   28  C   UNL     1      16.909  49.604  43.578  1.00  0.00     0.038 A 
HETATM   29  C   UNL     1      16.199  48.406  43.681  1.00  0.00     0.068 A 
HETATM   30  C   UNL     1      16.332  47.626  44.834  1.00  0.00     0.038 A 
HETATM   31  C   UNL     1      17.171  48.038  45.876  1.00  0.00     0.020 A 
BRANCH  29  32
HETATM   32  O   UNL     1      15.426  48.114  42.593  1.00  0.00    -0.356 OA
HETATM   33  C   UNL     1      15.412  46.760  42.159  1.00  0.00     0.210 C 
ENDBRANCH  29  32
ENDBRANCH  10  26
BRANCH   1  34
HETATM   34  C   UNL     1      23.570  47.772  49.470  1.00  0.00     0.032 A 
HETATM   35  C   UNL     1      23.011  46.779  48.660  1.00  0.00     0.017 A 
HETATM   36  C   UNL     1      23.290  45.435  48.914  1.00  0.00     0.008 A 
HETATM   37  C   UNL     1      24.161  45.073  49.952  1.00  0.00    -0.059 A 
HETATM   38  C   UNL     1      24.749  46.081  50.731  1.00  0.00     0.008 A 
HETATM   39  C   UNL     1      24.459  47.427  50.489  1.00  0.00     0.017 A 
BRANCH  37  40
HETATM   40  C   UNL     1      24.471  43.620  50.217  1.00  0.00     0.034 C 
HETATM   41  C   UNL     1      25.212  43.412  51.529  1.00  0.00     0.010 C 
ENDBRANCH  37  40
ENDBRANCH   1  34
TORSDOF 7
ENDMDL
MODEL 8
REMARK VINA RESULT:      -8.0      2.487      4.974
REMARK  7 active torsions:
REMARK  status: ('A' for Active; 'I' for Inactive)
REMARK    1  A    between atoms: C_2  and  C_3 
REMARK    2  A    between atoms: C_6  and  C_7 
REMARK       I    between atoms: C_7  and  N_8 
REMARK    3  A    between atoms: C_14  and  C_15 
REMARK       I    between atoms: C_15  and  N_16 
REMARK    4  A    between atoms: N_16  and  C_17 
REMARK    5  A    between atoms: C_17  and  C_18 
REMARK       I    between atoms: N_25  and  C_26 
REMARK    6  A    between atoms: C_26  and  C_27 
REMARK    7  A    between atoms: C_30  and  O_31 
ROOT
HETATM    1  C   UNL     1      16.039  52.399  49.351  1.00  0.00     0.253 C 
HETATM    2  N   UNL     1      17.305  51.822  49.155  1.00  0.00    -0.348 N 
HETATM    3  C   UNL     1      17.917  51.693  47.837  1.00  0.00     0.131 C 
HETATM    4  C   UNL     1      19.425  51.562  47.886  1.00  0.00     0.081 C 
HETATM    5  C   UNL     1      19.946  50.519  48.883  1.00  0.00     0.142 C 
HETATM    6  O   UNL     1      21.326  50.940  49.108  1.00  0.00    -0.358 OA
HETATM    7  C   UNL     1      22.208  49.869  48.784  1.00  0.00     0.206 C 
HETATM    8  C   UNL     1      21.429  48.937  47.883  1.00  0.00     0.206 C 
HETATM    9  N   UNL     1      20.061  49.153  48.342  1.00  0.00    -0.300 N 
HETATM   10  C   UNL     1      18.950  48.433  47.933  1.00  0.00     0.257 C 
HETATM   11  O   UNL     1      17.795  48.733  48.214  1.00  0.00    -0.267 OA
HETATM   12  C   UNL     1      19.253  50.655  50.243  1.00  0.00     0.081 C 
HETATM   13  C   UNL     1      17.749  50.897  50.195  1.00  0.00     0.131 C 
HETATM   14  O   UNL     1      15.503  52.502  50.453  1.00  0.00    -0.267 OA
ENDROOT
BRANCH   8  15
HETATM   15  C   UNL     1      22.135  47.584  47.973  1.00  0.00     0.243 C 
HETATM   16  N   UNL     1      22.597  47.195  49.200  1.00  0.00    -0.354 N 
HETATM   17  H   UNL     1      22.384  47.714  50.046  1.00  0.00     0.162 HD
HETATM   18  O   UNL     1      22.390  46.949  46.947  1.00  0.00    -0.271 OA
BRANCH  16  19
HETATM   19  C   UNL     1      23.299  45.937  49.366  1.00  0.00     0.181 C 
BRANCH  19  20
HETATM   20  C   UNL     1      24.292  45.964  50.505  1.00  0.00     0.051 A 
HETATM   21  N   UNL     1      24.374  44.872  51.312  1.00  0.00    -0.264 NA
HETATM   22  C   UNL     1      25.261  44.927  52.331  1.00  0.00     0.117 A 
HETATM   23  C   UNL     1      26.067  46.022  52.596  1.00  0.00     0.019 A 
HETATM   24  C   UNL     1      25.960  47.135  51.772  1.00  0.00     0.003 A 
HETATM   25  C   UNL     1      25.057  47.111  50.713  1.00  0.00     0.029 A 
ENDBRANCH  19  20
ENDBRANCH  16  19
ENDBRANCH   8  15
BRANCH  10  26
HETATM   26  C   UNL     1      19.101  47.178  47.173  1.00  0.00     0.032 A 
HETATM   27  C   UNL     1      19.084  45.980  47.893  1.00  0.00     0.020 A 
HETATM   28  C   UNL     1      19.170  44.763  47.220  1.00  0.00     0.038 A 
HETATM   29  C   UNL     1      19.246  44.730  45.826  1.00  0.00     0.068 A 
HETATM   30  C   UNL     1      19.237  45.930  45.108  1.00  0.00     0.038 A 
HETATM   31  C   UNL     1      19.152  47.156  45.778  1.00  0.00     0.020 A 
BRANCH  29  32
HETATM   32  O   UNL     1      19.314  43.472  45.296  1.00  0.00    -0.356 OA
HETATM   33  C   UNL     1      18.354  43.140  44.301  1.00  0.00     0.210 C 
ENDBRANCH  29  32
ENDBRANCH  10  26
BRANCH   1  34
HETATM   34  C   UNL     1      15.286  52.916  48.183  1.00  0.00     0.032 A 
HETATM   35  C   UNL     1      15.276  52.213  46.975  1.00  0.00     0.017 A 
HETATM   36  C   UNL     1      14.550  52.704  45.889  1.00  0.00     0.008 A 
HETATM   37  C   UNL     1      13.794  53.880  46.013  1.00  0.00    -0.059 A 
HETATM   38  C   UNL     1      13.778  54.554  47.243  1.00  0.00     0.008 A 
HETATM   39  C   UNL     1      14.518  54.072  48.327  1.00  0.00     0.017 A 
BRANCH  37  40
HETATM   40  C   UNL     1      12.999  54.403  44.841  1.00  0.00     0.034 C 
HETATM   41  C   UNL     1      11.687  53.656  44.648  1.00  0.00     0.010 C 
ENDBRANCH  37  40
ENDBRANCH   1  34
TORSDOF 7
ENDMDL
MODEL 9
REMARK VINA RESULT:      -7.8      2.792      9.697
REMARK  7 active torsions:
REMARK  status: ('A' for Active; 'I' for Inactive)
REMARK    1  A    between atoms: C_2  and  C_3 
REMARK    2  A    between atoms: C_6  and  C_7 
REMARK       I    between atoms: C_7  and  N_8 
REMARK    3  A    between atoms: C_14  and  C_15 
REMARK       I    between atoms: C_15  and  N_16 
REMARK    4  A    between atoms: N_16  and  C_17 
REMARK    5  A    between atoms: C_17  and  C_18 
REMARK       I    between atoms: N_25  and  C_26 
REMARK    6  A    between atoms: C_26  and  C_27 
REMARK    7  A    between atoms: C_30  and  O_31 
ROOT
HETATM    1  C   UNL     1      22.867  45.079  49.382  1.00  0.00     0.253 C 
HETATM    2  N   UNL     1      21.920  45.378  48.388  1.00  0.00    -0.348 N 
HETATM    3  C   UNL     1      22.075  46.496  47.463  1.00  0.00     0.131 C 
HETATM    4  C   UNL     1      21.280  46.331  46.185  1.00  0.00     0.081 C 
HETATM    5  C   UNL     1      19.812  45.932  46.390  1.00  0.00     0.142 C 
HETATM    6  O   UNL     1      19.445  45.357  45.099  1.00  0.00    -0.358 OA
HETATM    7  C   UNL     1      18.325  46.061  44.567  1.00  0.00     0.206 C 
HETATM    8  C   UNL     1      18.289  47.396  45.276  1.00  0.00     0.206 C 
HETATM    9  N   UNL     1      18.885  47.064  46.566  1.00  0.00    -0.300 N 
HETATM   10  C   UNL     1      18.968  47.914  47.658  1.00  0.00     0.257 C 
HETATM   11  O   UNL     1      19.609  47.667  48.673  1.00  0.00    -0.267 OA
HETATM   12  C   UNL     1      19.682  44.785  47.397  1.00  0.00     0.081 C 
HETATM   13  C   UNL     1      20.565  44.893  48.635  1.00  0.00     0.131 C 
HETATM   14  O   UNL     1      22.745  44.150  50.178  1.00  0.00    -0.267 OA
ENDROOT
BRANCH   8  15
HETATM   15  C   UNL     1      16.855  47.907  45.127  1.00  0.00     0.243 C 
HETATM   16  N   UNL     1      16.677  49.112  44.503  1.00  0.00    -0.354 N 
HETATM   17  H   UNL     1      17.442  49.601  44.048  1.00  0.00     0.162 HD
HETATM   18  O   UNL     1      15.925  47.311  45.674  1.00  0.00    -0.271 OA
BRANCH  16  19
HETATM   19  C   UNL     1      15.352  49.677  44.342  1.00  0.00     0.181 C 
BRANCH  19  20
HETATM   20  C   UNL     1      15.325  51.175  44.546  1.00  0.00     0.051 A 
HETATM   21  N   UNL     1      14.179  51.737  45.019  1.00  0.00    -0.264 NA
HETATM   22  C   UNL     1      14.177  53.080  45.179  1.00  0.00     0.117 A 
HETATM   23  C   UNL     1      15.257  53.897  44.884  1.00  0.00     0.019 A 
HETATM   24  C   UNL     1      16.413  53.308  44.388  1.00  0.00     0.003 A 
HETATM   25  C   UNL     1      16.449  51.928  44.212  1.00  0.00     0.029 A 
ENDBRANCH  19  20
ENDBRANCH  16  19
ENDBRANCH   8  15
BRANCH  10  26
HETATM   26  C   UNL     1      18.202  49.174  47.695  1.00  0.00     0.032 A 
HETATM   27  C   UNL     1      16.941  49.146  48.297  1.00  0.00     0.020 A 
HETATM   28  C   UNL     1      16.197  50.319  48.405  1.00  0.00     0.038 A 
HETATM   29  C   UNL     1      16.714  51.530  47.942  1.00  0.00     0.068 A 
HETATM   30  C   UNL     1      17.986  51.558  47.362  1.00  0.00     0.038 A 
HETATM   31  C   UNL     1      18.739  50.383  47.249  1.00  0.00     0.020 A 
BRANCH  29  32
HETATM   32  O   UNL     1      15.885  52.602  48.121  1.00  0.00    -0.356 OA
HETATM   33  C   UNL     1      15.740  53.089  49.449  1.00  0.00     0.210 C 
ENDBRANCH  29  32
ENDBRANCH  10  26
BRANCH   1  34
HETATM   34  C   UNL     1      24.085  45.916  49.503  1.00  0.00     0.032 A 
HETATM   35  C   UNL     1      25.355  45.332  49.477  1.00  0.00     0.017 A 
HETATM   36  C   UNL     1      26.492  46.135  49.578  1.00  0.00     0.008 A 
HETATM   37  C   UNL     1      26.373  47.531  49.664  1.00  0.00    -0.059 A 
HETATM   38  C   UNL     1      25.094  48.107  49.647  1.00  0.00     0.008 A 
HETATM   39  C   UNL     1      23.953  47.304  49.562  1.00  0.00     0.017 A 
BRANCH  37  40
HETATM   40  C   UNL     1      27.604  48.398  49.759  1.00  0.00     0.034 C 
HETATM   41  C   UNL     1      27.504  49.649  48.898  1.00  0.00     0.010 C 
ENDBRANCH  37  40
ENDBRANCH   1  34
TORSDOF 7
ENDMDL
MODEL 10
REMARK VINA RESULT:      -7.7      2.428     10.014
REMARK  7 active torsions:
REMARK  status: ('A' for Active; 'I' for Inactive)
REMARK    1  A    between atoms: C_2  and  C_3 
REMARK    2  A    between atoms: C_6  and  C_7 
REMARK       I    between atoms: C_7  and  N_8 
REMARK    3  A    between atoms: C_14  and  C_15 
REMARK       I    between atoms: C_15  and  N_16 
REMARK    4  A    between atoms: N_16  and  C_17 
REMARK    5  A    between atoms: C_17  and  C_18 
REMARK       I    between atoms: N_25  and  C_26 
REMARK    6  A    between atoms: C_26  and  C_27 
REMARK    7  A    between atoms: C_30  and  O_31 
ROOT
HETATM    1  C   UNL     1      23.100  49.282  49.323  1.00  0.00     0.253 C 
HETATM    2  N   UNL     1      21.748  49.664  49.300  1.00  0.00    -0.348 N 
HETATM    3  C   UNL     1      20.656  48.696  49.272  1.00  0.00     0.131 C 
HETATM    4  C   UNL     1      19.345  49.256  49.782  1.00  0.00     0.081 C 
HETATM    5  C   UNL     1      18.949  50.611  49.180  1.00  0.00     0.142 C 
HETATM    6  O   UNL     1      18.002  51.140  50.157  1.00  0.00    -0.358 OA
HETATM    7  C   UNL     1      16.760  51.417  49.514  1.00  0.00     0.206 C 
HETATM    8  C   UNL     1      16.754  50.602  48.239  1.00  0.00     0.206 C 
HETATM    9  N   UNL     1      18.177  50.526  47.927  1.00  0.00    -0.300 N 
HETATM   10  C   UNL     1      18.721  49.995  46.768  1.00  0.00     0.257 C 
HETATM   11  O   UNL     1      19.919  49.801  46.598  1.00  0.00    -0.267 OA
HETATM   12  C   UNL     1      20.128  51.589  49.186  1.00  0.00     0.081 C 
HETATM   13  C   UNL     1      21.474  51.001  48.778  1.00  0.00     0.131 C 
HETATM   14  O   UNL     1      24.032  50.085  49.332  1.00  0.00    -0.267 OA
ENDROOT
BRANCH   8  15
HETATM   15  C   UNL     1      15.733  51.275  47.321  1.00  0.00     0.243 C 
HETATM   16  N   UNL     1      15.724  52.643  47.284  1.00  0.00    -0.354 N 
HETATM   17  H   UNL     1      16.435  53.200  47.749  1.00  0.00     0.162 HD
HETATM   18  O   UNL     1      14.873  50.601  46.751  1.00  0.00    -0.271 OA
BRANCH  16  19
HETATM   19  C   UNL     1      14.772  53.358  46.457  1.00  0.00     0.181 C 
BRANCH  19  20
HETATM   20  C   UNL     1      14.107  54.504  47.185  1.00  0.00     0.051 A 
HETATM   21  N   UNL     1      13.791  55.620  46.473  1.00  0.00    -0.264 NA
HETATM   22  C   UNL     1      13.209  56.634  47.151  1.00  0.00     0.117 A 
HETATM   23  C   UNL     1      12.931  56.600  48.508  1.00  0.00     0.019 A 
HETATM   24  C   UNL     1      13.273  55.460  49.222  1.00  0.00     0.003 A 
HETATM   25  C   UNL     1      13.873  54.396  48.555  1.00  0.00     0.029 A 
ENDBRANCH  19  20
ENDBRANCH  16  19
ENDBRANCH   8  15
BRANCH  10  26
HETATM   26  C   UNL     1      17.868  49.693  45.603  1.00  0.00     0.032 A 
HETATM   27  C   UNL     1      17.767  50.666  44.605  1.00  0.00     0.020 A 
HETATM   28  C   UNL     1      17.018  50.411  43.459  1.00  0.00     0.038 A 
HETATM   29  C   UNL     1      16.386  49.178  43.286  1.00  0.00     0.068 A 
HETATM   30  C   UNL     1      16.510  48.198  44.276  1.00  0.00     0.038 A 
HETATM   31  C   UNL     1      17.261  48.447  45.431  1.00  0.00     0.020 A 
BRANCH  29  32
HETATM   32  O   UNL     1      15.695  49.059  42.113  1.00  0.00    -0.356 OA
HETATM   33  C   UNL     1      14.764  50.089  41.808  1.00  0.00     0.210 C 
ENDBRANCH  29  32
ENDBRANCH  10  26
BRANCH   1  34
HETATM   34  C   UNL     1      23.450  47.842  49.333  1.00  0.00     0.032 A 
HETATM   35  C   UNL     1      24.352  47.335  50.273  1.00  0.00     0.017 A 
HETATM   36  C   UNL     1      24.660  45.974  50.279  1.00  0.00     0.008 A 
HETATM   37  C   UNL     1      24.040  45.100  49.373  1.00  0.00    -0.059 A 
HETATM   38  C   UNL     1      23.105  45.614  48.462  1.00  0.00     0.008 A 
HETATM   39  C   UNL     1      22.807  46.979  48.444  1.00  0.00     0.017 A 
BRANCH  37  40
HETATM   40  C   UNL     1      24.365  43.626  49.389  1.00  0.00     0.034 C 
HETATM   41  C   UNL     1      24.158  42.999  50.760  1.00  0.00     0.010 C 
ENDBRANCH  37  40
ENDBRANCH   1  34
TORSDOF 7
ENDMDL
