MODEL 1
REMARK VINA RESULT:      -8.2      0.000      0.000
REMARK  3 active torsions:
REMARK  status: ('A' for Active; 'I' for Inactive)
REMARK    1  A    between atoms: C_6  and  N_7 
REMARK       I    between atoms: N_7  and  C_8 
REMARK    2  A    between atoms: C_8  and  C_9 
REMARK    3  A    between atoms: C_9  and  C_10 
ROOT
HETATM    1  C   UNL     1      26.285  45.113  51.124  1.00  0.00     0.286 C 
HETATM    2  N   UNL     1      26.731  45.349  52.565  1.00  0.00    -0.056 N 
HETATM    3  H   UNL     1      27.692  45.753  52.523  1.00  0.00     0.278 HD
HETATM    4  H   UNL     1      26.155  46.082  52.999  1.00  0.00     0.278 HD
HETATM    5  C   UNL     1      26.730  44.095  53.402  1.00  0.00     0.209 C 
HETATM    6  C   UNL     1      27.621  43.025  52.720  1.00  0.00     0.115 C 
HETATM    7  N   UNL     1      27.265  42.833  51.314  1.00  0.00    -0.353 N 
HETATM    8  C   UNL     1      26.892  43.851  50.476  1.00  0.00     0.249 C 
HETATM    9  O   UNL     1      26.961  43.712  49.260  1.00  0.00    -0.271 OA
HETATM   10  C   UNL     1      27.198  44.431  54.817  1.00  0.00     0.035 C 
HETATM   11  C   UNL     1      28.692  44.740  54.903  1.00  0.00     0.002 C 
HETATM   12  C   UNL     1      29.530  43.631  54.278  1.00  0.00     0.002 C 
HETATM   13  C   UNL     1      29.118  43.351  52.837  1.00  0.00     0.027 C 
HETATM   14  H   UNL     1      27.655  42.026  50.829  1.00  0.00     0.163 HD
ENDROOT
BRANCH   1  15
HETATM   15  C   UNL     1      26.578  46.338  50.249  1.00  0.00     0.146 C 
BRANCH  15  16
HETATM   16  C   UNL     1      25.424  47.307  50.378  1.00  0.00     0.224 C 
HETATM   17  N   UNL     1      24.987  47.854  49.199  1.00  0.00    -0.327 N 
HETATM   18  H   UNL     1      25.531  47.679  48.359  1.00  0.00     0.169 HD
HETATM   19  O   UNL     1      25.018  47.555  51.515  1.00  0.00    -0.273 OA
BRANCH  17  20
HETATM   20  C   UNL     1      23.920  48.767  49.037  1.00  0.00     0.036 A 
HETATM   21  C   UNL     1      22.579  48.444  49.259  1.00  0.00     0.053 A 
HETATM   22  C   UNL     1      21.585  49.409  49.075  1.00  0.00     0.036 A 
HETATM   23  C   UNL     1      21.913  50.699  48.668  1.00  0.00     0.024 A 
HETATM   24 CL   UNL     1      19.937  48.995  49.352  1.00  0.00    -0.084 Cl
HETATM   25  C   UNL     1      23.246  51.028  48.437  1.00  0.00     0.004 A 
HETATM   26  C   UNL     1      24.243  50.065  48.615  1.00  0.00     0.029 A 
ENDBRANCH  17  20
ENDBRANCH  15  16
ENDBRANCH   1  15
TORSDOF 3
ENDMDL
MODEL 2
REMARK VINA RESULT:      -8.1      1.668      1.969
REMARK  3 active torsions:
REMARK  status: ('A' for Active; 'I' for Inactive)
REMARK    1  A    between atoms: C_6  and  N_7 
REMARK       I    between atoms: N_7  and  C_8 
REMARK    2  A    between atoms: C_8  and  C_9 
REMARK    3  A    between atoms: C_9  and  C_10 
ROOT
HETATM    1  C   UNL     1      25.133  45.657  51.991  1.00  0.00     0.286 C 
HETATM    2  N   UNL     1      25.925  46.627  52.863  1.00  0.00    -0.056 N 
HETATM    3  H   UNL     1      26.911  46.605  52.523  1.00  0.00     0.278 HD
HETATM    4  H   UNL     1      25.610  47.591  52.698  1.00  0.00     0.278 HD
HETATM    5  C   UNL     1      25.873  46.287  54.332  1.00  0.00     0.209 C 
HETATM    6  C   UNL     1      26.371  44.832  54.536  1.00  0.00     0.115 C 
HETATM    7  N   UNL     1      25.681  43.890  53.657  1.00  0.00    -0.353 N 
HETATM    8  C   UNL     1      25.330  44.172  52.362  1.00  0.00     0.249 C 
HETATM    9  O   UNL     1      25.098  43.266  51.569  1.00  0.00    -0.271 OA
HETATM   10  C   UNL     1      26.701  47.304  55.116  1.00  0.00     0.035 C 
HETATM   11  C   UNL     1      28.207  47.143  54.917  1.00  0.00     0.002 C 
HETATM   12  C   UNL     1      28.659  45.714  55.191  1.00  0.00     0.002 C 
HETATM   13  C   UNL     1      27.890  44.703  54.347  1.00  0.00     0.027 C 
HETATM   14  H   UNL     1      25.793  42.894  53.842  1.00  0.00     0.163 HD
ENDROOT
BRANCH   1  15
HETATM   15  C   UNL     1      25.450  45.867  50.506  1.00  0.00     0.146 C 
BRANCH  15  16
HETATM   16  C   UNL     1      25.155  47.307  50.152  1.00  0.00     0.224 C 
HETATM   17  N   UNL     1      23.924  47.529  49.588  1.00  0.00    -0.327 N 
HETATM   18  H   UNL     1      23.361  46.722  49.335  1.00  0.00     0.169 HD
HETATM   19  O   UNL     1      26.048  48.133  50.349  1.00  0.00    -0.273 OA
BRANCH  17  20
HETATM   20  C   UNL     1      23.394  48.776  49.183  1.00  0.00     0.036 A 
HETATM   21  C   UNL     1      22.197  49.307  49.670  1.00  0.00     0.053 A 
HETATM   22  C   UNL     1      21.744  50.549  49.216  1.00  0.00     0.036 A 
HETATM   23  C   UNL     1      22.473  51.271  48.275  1.00  0.00     0.024 A 
HETATM   24 CL   UNL     1      20.266  51.188  49.824  1.00  0.00    -0.084 Cl
HETATM   25  C   UNL     1      23.663  50.746  47.780  1.00  0.00     0.004 A 
HETATM   26  C   UNL     1      24.118  49.502  48.228  1.00  0.00     0.029 A 
ENDBRANCH  17  20
ENDBRANCH  15  16
ENDBRANCH   1  15
TORSDOF 3
ENDMDL
MODEL 3
REMARK VINA RESULT:      -8.1      5.347      8.160
REMARK  3 active torsions:
REMARK  status: ('A' for Active; 'I' for Inactive)
REMARK    1  A    between atoms: C_6  and  N_7 
REMARK       I    between atoms: N_7  and  C_8 
REMARK    2  A    between atoms: C_8  and  C_9 
REMARK    3  A    between atoms: C_9  and  C_10 
ROOT
HETATM    1  C   UNL     1      26.427  43.298  52.294  1.00  0.00     0.286 C 
HETATM    2  N   UNL     1      27.322  42.369  51.478  1.00  0.00    -0.056 N 
HETATM    3  H   UNL     1      27.682  42.925  50.672  1.00  0.00     0.278 HD
HETATM    4  H   UNL     1      28.158  42.116  52.018  1.00  0.00     0.278 HD
HETATM    5  C   UNL     1      26.606  41.137  50.982  1.00  0.00     0.209 C 
HETATM    6  C   UNL     1      25.363  41.565  50.159  1.00  0.00     0.115 C 
HETATM    7  N   UNL     1      24.526  42.516  50.890  1.00  0.00    -0.353 N 
HETATM    8  C   UNL     1      25.023  43.512  51.690  1.00  0.00     0.249 C 
HETATM    9  O   UNL     1      24.332  44.483  51.975  1.00  0.00    -0.271 OA
HETATM   10  C   UNL     1      27.578  40.281  50.171  1.00  0.00     0.035 C 
HETATM   11  C   UNL     1      27.926  40.882  48.811  1.00  0.00     0.002 C 
HETATM   12  C   UNL     1      26.674  41.227  48.013  1.00  0.00     0.002 C 
HETATM   13  C   UNL     1      25.741  42.149  48.790  1.00  0.00     0.027 C 
HETATM   14  H   UNL     1      23.595  42.712  50.524  1.00  0.00     0.163 HD
ENDROOT
BRANCH   1  15
HETATM   15  C   UNL     1      27.105  44.654  52.524  1.00  0.00     0.146 C 
BRANCH  15  16
HETATM   16  C   UNL     1      27.675  44.674  53.924  1.00  0.00     0.224 C 
HETATM   17  N   UNL     1      29.000  44.333  54.020  1.00  0.00    -0.327 N 
HETATM   18  H   UNL     1      29.463  43.976  53.190  1.00  0.00     0.169 HD
HETATM   19  O   UNL     1      26.901  44.940  54.846  1.00  0.00    -0.273 OA
BRANCH  17  20
HETATM   20  C   UNL     1      29.777  44.289  55.201  1.00  0.00     0.036 A 
HETATM   21  C   UNL     1      29.816  45.319  56.145  1.00  0.00     0.053 A 
HETATM   22  C   UNL     1      30.613  45.194  57.286  1.00  0.00     0.036 A 
HETATM   23  C   UNL     1      31.376  44.050  57.499  1.00  0.00     0.024 A 
HETATM   24 CL   UNL     1      30.651  46.472  58.438  1.00  0.00    -0.084 Cl
HETATM   25  C   UNL     1      31.348  43.022  56.561  1.00  0.00     0.004 A 
HETATM   26  C   UNL     1      30.557  43.144  55.415  1.00  0.00     0.029 A 
ENDBRANCH  17  20
ENDBRANCH  15  16
ENDBRANCH   1  15
TORSDOF 3
ENDMDL
MODEL 4
REMARK VINA RESULT:      -8.0      3.725      7.946
REMARK  3 active torsions:
REMARK  status: ('A' for Active; 'I' for Inactive)
REMARK    1  A    between atoms: C_6  and  N_7 
REMARK       I    between atoms: N_7  and  C_8 
REMARK    2  A    between atoms: C_8  and  C_9 
REMARK    3  A    between atoms: C_9  and  C_10 
ROOT
HETATM    1  C   UNL     1      25.668  45.097  52.050  1.00  0.00     0.286 C 
HETATM    2  N   UNL     1      25.584  46.519  51.501  1.00  0.00    -0.056 N 
HETATM    3  H   UNL     1      24.630  46.875  51.726  1.00  0.00     0.278 HD
HETATM    4  H   UNL     1      26.224  47.136  52.016  1.00  0.00     0.278 HD
HETATM    5  C   UNL     1      25.833  46.601  50.016  1.00  0.00     0.209 C 
HETATM    6  C   UNL     1      24.837  45.668  49.280  1.00  0.00     0.115 C 
HETATM    7  N   UNL     1      24.841  44.316  49.835  1.00  0.00    -0.353 N 
HETATM    8  C   UNL     1      24.962  44.041  51.173  1.00  0.00     0.249 C 
HETATM    9  O   UNL     1      24.600  42.959  51.621  1.00  0.00    -0.271 OA
HETATM   10  C   UNL     1      25.717  48.055  49.563  1.00  0.00     0.035 C 
HETATM   11  C   UNL     1      24.282  48.578  49.564  1.00  0.00     0.002 C 
HETATM   12  C   UNL     1      23.352  47.663  48.775  1.00  0.00     0.002 C 
HETATM   13  C   UNL     1      23.406  46.225  49.280  1.00  0.00     0.027 C 
HETATM   14  H   UNL     1      24.371  43.581  49.308  1.00  0.00     0.163 HD
ENDROOT
BRANCH   1  15
HETATM   15  C   UNL     1      25.128  45.027  53.483  1.00  0.00     0.146 C 
BRANCH  15  16
HETATM   16  C   UNL     1      26.228  44.513  54.385  1.00  0.00     0.224 C 
HETATM   17  N   UNL     1      27.439  45.141  54.244  1.00  0.00    -0.327 N 
HETATM   18  H   UNL     1      27.550  45.801  53.480  1.00  0.00     0.169 HD
HETATM   19  O   UNL     1      25.960  43.558  55.117  1.00  0.00    -0.273 OA
BRANCH  17  20
HETATM   20  C   UNL     1      28.620  44.870  54.973  1.00  0.00     0.036 A 
HETATM   21  C   UNL     1      29.032  45.603  56.088  1.00  0.00     0.053 A 
HETATM   22  C   UNL     1      30.216  45.266  56.751  1.00  0.00     0.036 A 
HETATM   23  C   UNL     1      30.999  44.203  56.311  1.00  0.00     0.024 A 
HETATM   24 CL   UNL     1      30.710  46.181  58.123  1.00  0.00    -0.084 Cl
HETATM   25  C   UNL     1      30.600  43.472  55.196  1.00  0.00     0.004 A 
HETATM   26  C   UNL     1      29.419  43.807  54.527  1.00  0.00     0.029 A 
ENDBRANCH  17  20
ENDBRANCH  15  16
ENDBRANCH   1  15
TORSDOF 3
ENDMDL
MODEL 5
REMARK VINA RESULT:      -8.0      5.120      7.829
REMARK  3 active torsions:
REMARK  status: ('A' for Active; 'I' for Inactive)
REMARK    1  A    between atoms: C_6  and  N_7 
REMARK       I    between atoms: N_7  and  C_8 
REMARK    2  A    between atoms: C_8  and  C_9 
REMARK    3  A    between atoms: C_9  and  C_10 
ROOT
HETATM    1  C   UNL     1      27.646  41.471  50.189  1.00  0.00     0.286 C 
HETATM    2  N   UNL     1      27.619  42.976  50.441  1.00  0.00    -0.056 N 
HETATM    3  H   UNL     1      27.467  43.111  51.464  1.00  0.00     0.278 HD
HETATM    4  H   UNL     1      28.544  43.384  50.255  1.00  0.00     0.278 HD
HETATM    5  C   UNL     1      26.547  43.692  49.658  1.00  0.00     0.209 C 
HETATM    6  C   UNL     1      25.170  43.057  49.980  1.00  0.00     0.115 C 
HETATM    7  N   UNL     1      25.188  41.603  49.820  1.00  0.00    -0.353 N 
HETATM    8  C   UNL     1      26.252  40.811  50.167  1.00  0.00     0.249 C 
HETATM    9  O   UNL     1      26.095  39.611  50.361  1.00  0.00    -0.271 OA
HETATM   10  C   UNL     1      26.594  45.184  49.984  1.00  0.00     0.035 C 
HETATM   11  C   UNL     1      26.085  45.514  51.385  1.00  0.00     0.002 C 
HETATM   12  C   UNL     1      24.702  44.923  51.633  1.00  0.00     0.002 C 
HETATM   13  C   UNL     1      24.674  43.419  51.387  1.00  0.00     0.027 C 
HETATM   14  H   UNL     1      24.295  41.111  49.820  1.00  0.00     0.163 HD
ENDROOT
BRANCH   1  15
HETATM   15  C   UNL     1      28.542  40.758  51.210  1.00  0.00     0.146 C 
BRANCH  15  16
HETATM   16  C   UNL     1      28.488  41.524  52.512  1.00  0.00     0.224 C 
HETATM   17  N   UNL     1      29.555  42.353  52.747  1.00  0.00    -0.327 N 
HETATM   18  H   UNL     1      30.348  42.303  52.113  1.00  0.00     0.169 HD
HETATM   19  O   UNL     1      27.533  41.303  53.260  1.00  0.00    -0.273 OA
BRANCH  17  20
HETATM   20  C   UNL     1      29.743  43.189  53.872  1.00  0.00     0.036 A 
HETATM   21  C   UNL     1      30.702  42.958  54.861  1.00  0.00     0.053 A 
HETATM   22  C   UNL     1      30.820  43.837  55.941  1.00  0.00     0.036 A 
HETATM   23  C   UNL     1      29.989  44.948  56.049  1.00  0.00     0.024 A 
HETATM   24 CL   UNL     1      32.006  43.537  57.153  1.00  0.00    -0.084 Cl
HETATM   25  C   UNL     1      29.026  45.181  55.072  1.00  0.00     0.004 A 
HETATM   26  C   UNL     1      28.900  44.303  53.991  1.00  0.00     0.029 A 
ENDBRANCH  17  20
ENDBRANCH  15  16
ENDBRANCH   1  15
TORSDOF 3
ENDMDL
MODEL 6
REMARK VINA RESULT:      -7.9      4.389      7.459
REMARK  3 active torsions:
REMARK  status: ('A' for Active; 'I' for Inactive)
REMARK    1  A    between atoms: C_6  and  N_7 
REMARK       I    between atoms: N_7  and  C_8 
REMARK    2  A    between atoms: C_8  and  C_9 
REMARK    3  A    between atoms: C_9  and  C_10 
ROOT
HETATM    1  C   UNL     1      27.689  41.620  50.645  1.00  0.00     0.286 C 
HETATM    2  N   UNL     1      27.649  43.139  50.785  1.00  0.00    -0.056 N 
HETATM    3  H   UNL     1      27.369  43.346  51.769  1.00  0.00     0.278 HD
HETATM    4  H   UNL     1      28.595  43.529  50.693  1.00  0.00     0.278 HD
HETATM    5  C   UNL     1      26.696  43.801  49.823  1.00  0.00     0.209 C 
HETATM    6  C   UNL     1      25.281  43.195  50.008  1.00  0.00     0.115 C 
HETATM    7  N   UNL     1      25.300  41.734  49.954  1.00  0.00    -0.353 N 
HETATM    8  C   UNL     1      26.301  40.965  50.489  1.00  0.00     0.249 C 
HETATM    9  O   UNL     1      26.106  39.782  50.745  1.00  0.00    -0.271 OA
HETATM   10  C   UNL     1      26.719  45.313  50.048  1.00  0.00     0.035 C 
HETATM   11  C   UNL     1      26.038  45.743  51.346  1.00  0.00     0.002 C 
HETATM   12  C   UNL     1      24.628  45.176  51.454  1.00  0.00     0.002 C 
HETATM   13  C   UNL     1      24.613  43.658  51.311  1.00  0.00     0.027 C 
HETATM   14  H   UNL     1      24.409  41.247  49.872  1.00  0.00     0.163 HD
ENDROOT
BRANCH   1  15
HETATM   15  C   UNL     1      28.437  40.978  51.820  1.00  0.00     0.146 C 
BRANCH  15  16
HETATM   16  C   UNL     1      28.343  41.903  53.012  1.00  0.00     0.224 C 
HETATM   17  N   UNL     1      29.489  42.597  53.304  1.00  0.00    -0.327 N 
HETATM   18  H   UNL     1      30.336  42.357  52.797  1.00  0.00     0.169 HD
HETATM   19  O   UNL     1      27.280  41.915  53.637  1.00  0.00    -0.273 OA
BRANCH  17  20
HETATM   20  C   UNL     1      29.665  43.535  54.347  1.00  0.00     0.036 A 
HETATM   21  C   UNL     1      28.868  44.670  54.516  1.00  0.00     0.053 A 
HETATM   22  C   UNL     1      29.111  45.547  55.576  1.00  0.00     0.036 A 
HETATM   23  C   UNL     1      30.147  45.306  56.475  1.00  0.00     0.024 A 
HETATM   24 CL   UNL     1      28.120  46.941  55.770  1.00  0.00    -0.084 Cl
HETATM   25  C   UNL     1      30.950  44.182  56.310  1.00  0.00     0.004 A 
HETATM   26  C   UNL     1      30.714  43.304  55.248  1.00  0.00     0.029 A 
ENDBRANCH  17  20
ENDBRANCH  15  16
ENDBRANCH   1  15
TORSDOF 3
ENDMDL
MODEL 7
REMARK VINA RESULT:      -7.8     11.330     13.640
REMARK  3 active torsions:
REMARK  status: ('A' for Active; 'I' for Inactive)
REMARK    1  A    between atoms: C_6  and  N_7 
REMARK       I    between atoms: N_7  and  C_8 
REMARK    2  A    between atoms: C_8  and  C_9 
REMARK    3  A    between atoms: C_9  and  C_10 
ROOT
HETATM    1  C   UNL     1      29.132  48.766  40.047  1.00  0.00     0.286 C 
HETATM    2  N   UNL     1      29.206  50.022  39.183  1.00  0.00    -0.056 N 
HETATM    3  H   UNL     1      30.026  50.574  39.518  1.00  0.00     0.278 HD
HETATM    4  H   UNL     1      29.435  49.773  38.213  1.00  0.00     0.278 HD
HETATM    5  C   UNL     1      27.955  50.862  39.244  1.00  0.00     0.209 C 
HETATM    6  C   UNL     1      27.657  51.229  40.721  1.00  0.00     0.115 C 
HETATM    7  N   UNL     1      27.655  50.050  41.587  1.00  0.00    -0.353 N 
HETATM    8  C   UNL     1      28.525  49.000  41.447  1.00  0.00     0.249 C 
HETATM    9  O   UNL     1      28.731  48.235  42.383  1.00  0.00    -0.271 OA
HETATM   10  C   UNL     1      28.130  52.095  38.359  1.00  0.00     0.035 C 
HETATM   11  C   UNL     1      29.100  53.123  38.938  1.00  0.00     0.002 C 
HETATM   12  C   UNL     1      28.731  53.500  40.367  1.00  0.00     0.002 C 
HETATM   13  C   UNL     1      28.636  52.276  41.272  1.00  0.00     0.027 C 
HETATM   14  H   UNL     1      27.285  50.152  42.531  1.00  0.00     0.163 HD
ENDROOT
BRANCH   1  15
HETATM   15  C   UNL     1      30.510  48.108  40.182  1.00  0.00     0.146 C 
BRANCH  15  16
HETATM   16  C   UNL     1      31.516  49.174  40.555  1.00  0.00     0.224 C 
HETATM   17  N   UNL     1      31.781  49.282  41.897  1.00  0.00    -0.327 N 
HETATM   18  H   UNL     1      31.208  48.746  42.542  1.00  0.00     0.169 HD
HETATM   19  O   UNL     1      31.963  49.874  39.644  1.00  0.00    -0.273 OA
BRANCH  17  20
HETATM   20  C   UNL     1      32.688  50.179  42.508  1.00  0.00     0.036 A 
HETATM   21  C   UNL     1      34.010  50.352  42.092  1.00  0.00     0.053 A 
HETATM   22  C   UNL     1      34.840  51.261  42.754  1.00  0.00     0.036 A 
HETATM   23  C   UNL     1      34.366  52.001  43.833  1.00  0.00     0.024 A 
HETATM   24 CL   UNL     1      36.467  51.462  42.229  1.00  0.00    -0.084 Cl
HETATM   25  C   UNL     1      33.053  51.829  44.259  1.00  0.00     0.004 A 
HETATM   26  C   UNL     1      32.219  50.918  43.603  1.00  0.00     0.029 A 
ENDBRANCH  17  20
ENDBRANCH  15  16
ENDBRANCH   1  15
TORSDOF 3
ENDMDL
MODEL 8
REMARK VINA RESULT:      -7.8      3.236      8.390
REMARK  3 active torsions:
REMARK  status: ('A' for Active; 'I' for Inactive)
REMARK    1  A    between atoms: C_6  and  N_7 
REMARK       I    between atoms: N_7  and  C_8 
REMARK    2  A    between atoms: C_8  and  C_9 
REMARK    3  A    between atoms: C_9  and  C_10 
ROOT
HETATM    1  C   UNL     1      22.541  48.768  49.170  1.00  0.00     0.286 C 
HETATM    2  N   UNL     1      21.125  48.349  49.557  1.00  0.00    -0.056 N 
HETATM    3  H   UNL     1      20.830  47.614  48.878  1.00  0.00     0.278 HD
HETATM    4  H   UNL     1      21.132  47.877  50.470  1.00  0.00     0.278 HD
HETATM    5  C   UNL     1      20.141  49.491  49.547  1.00  0.00     0.209 C 
HETATM    6  C   UNL     1      20.152  50.162  48.149  1.00  0.00     0.115 C 
HETATM    7  N   UNL     1      21.507  50.507  47.719  1.00  0.00    -0.353 N 
HETATM    8  C   UNL     1      22.605  49.724  47.960  1.00  0.00     0.249 C 
HETATM    9  O   UNL     1      23.622  49.855  47.287  1.00  0.00    -0.271 OA
HETATM   10  C   UNL     1      18.758  48.971  49.934  1.00  0.00     0.035 C 
HETATM   11  C   UNL     1      18.103  48.121  48.847  1.00  0.00     0.002 C 
HETATM   12  C   UNL     1      18.080  48.846  47.507  1.00  0.00     0.002 C 
HETATM   13  C   UNL     1      19.473  49.294  47.079  1.00  0.00     0.027 C 
HETATM   14  H   UNL     1      21.610  51.119  46.910  1.00  0.00     0.163 HD
ENDROOT
BRANCH   1  15
HETATM   15  C   UNL     1      23.428  47.544  48.913  1.00  0.00     0.146 C 
BRANCH  15  16
HETATM   16  C   UNL     1      24.538  47.533  49.940  1.00  0.00     0.224 C 
HETATM   17  N   UNL     1      24.448  46.543  50.885  1.00  0.00    -0.327 N 
HETATM   18  H   UNL     1      23.602  45.981  50.911  1.00  0.00     0.169 HD
HETATM   19  O   UNL     1      25.383  48.428  49.870  1.00  0.00    -0.273 OA
BRANCH  17  20
HETATM   20  C   UNL     1      25.358  46.298  51.940  1.00  0.00     0.036 A 
HETATM   21  C   UNL     1      25.559  47.170  53.012  1.00  0.00     0.053 A 
HETATM   22  C   UNL     1      26.479  46.850  54.013  1.00  0.00     0.036 A 
HETATM   23  C   UNL     1      27.209  45.666  53.957  1.00  0.00     0.024 A 
HETATM   24 CL   UNL     1      26.716  47.937  55.328  1.00  0.00    -0.084 Cl
HETATM   25  C   UNL     1      27.020  44.795  52.889  1.00  0.00     0.004 A 
HETATM   26  C   UNL     1      26.103  45.112  51.882  1.00  0.00     0.029 A 
ENDBRANCH  17  20
ENDBRANCH  15  16
ENDBRANCH   1  15
TORSDOF 3
ENDMDL
MODEL 9
REMARK VINA RESULT:      -7.7      4.599      7.013
REMARK  3 active torsions:
REMARK  status: ('A' for Active; 'I' for Inactive)
REMARK    1  A    between atoms: C_6  and  N_7 
REMARK       I    between atoms: N_7  and  C_8 
REMARK    2  A    between atoms: C_8  and  C_9 
REMARK    3  A    between atoms: C_9  and  C_10 
ROOT
HETATM    1  C   UNL     1      24.511  43.595  50.740  1.00  0.00     0.286 C 
HETATM    2  N   UNL     1      25.349  42.407  51.203  1.00  0.00    -0.056 N 
HETATM    3  H   UNL     1      26.328  42.749  51.310  1.00  0.00     0.278 HD
HETATM    4  H   UNL     1      25.065  42.118  52.147  1.00  0.00     0.278 HD
HETATM    5  C   UNL     1      25.307  41.241  50.247  1.00  0.00     0.209 C 
HETATM    6  C   UNL     1      25.758  41.716  48.842  1.00  0.00     0.115 C 
HETATM    7  N   UNL     1      25.023  42.902  48.405  1.00  0.00    -0.353 N 
HETATM    8  C   UNL     1      24.662  43.927  49.241  1.00  0.00     0.249 C 
HETATM    9  O   UNL     1      24.388  45.032  48.787  1.00  0.00    -0.271 OA
HETATM   10  C   UNL     1      26.181  40.111  50.790  1.00  0.00     0.035 C 
HETATM   11  C   UNL     1      27.677  40.404  50.698  1.00  0.00     0.002 C 
HETATM   12  C   UNL     1      28.084  40.805  49.286  1.00  0.00     0.002 C 
HETATM   13  C   UNL     1      27.268  41.986  48.773  1.00  0.00     0.027 C 
HETATM   14  H   UNL     1      25.103  43.181  47.427  1.00  0.00     0.163 HD
ENDROOT
BRANCH   1  15
HETATM   15  C   UNL     1      24.813  44.842  51.581  1.00  0.00     0.146 C 
BRANCH  15  16
HETATM   16  C   UNL     1      25.706  44.440  52.732  1.00  0.00     0.224 C 
HETATM   17  N   UNL     1      27.043  44.681  52.545  1.00  0.00    -0.327 N 
HETATM   18  H   UNL     1      27.350  44.985  51.625  1.00  0.00     0.169 HD
HETATM   19  O   UNL     1      25.171  43.893  53.699  1.00  0.00    -0.273 OA
BRANCH  17  20
HETATM   20  C   UNL     1      28.085  44.418  53.465  1.00  0.00     0.036 A 
HETATM   21  C   UNL     1      28.318  45.177  54.614  1.00  0.00     0.053 A 
HETATM   22  C   UNL     1      29.371  44.847  55.471  1.00  0.00     0.036 A 
HETATM   23  C   UNL     1      30.202  43.766  55.193  1.00  0.00     0.024 A 
HETATM   24 CL   UNL     1      29.646  45.794  56.882  1.00  0.00    -0.084 Cl
HETATM   25  C   UNL     1      29.982  43.009  54.046  1.00  0.00     0.004 A 
HETATM   26  C   UNL     1      28.932  43.337  53.183  1.00  0.00     0.029 A 
ENDBRANCH  17  20
ENDBRANCH  15  16
ENDBRANCH   1  15
TORSDOF 3
ENDMDL
MODEL 10
REMARK VINA RESULT:      -7.7      2.772      3.792
REMARK  3 active torsions:
REMARK  status: ('A' for Active; 'I' for Inactive)
REMARK    1  A    between atoms: C_6  and  N_7 
REMARK       I    between atoms: N_7  and  C_8 
REMARK    2  A    between atoms: C_8  and  C_9 
REMARK    3  A    between atoms: C_9  and  C_10 
ROOT
HETATM    1  C   UNL     1      26.805  41.258  51.071  1.00  0.00     0.286 C 
HETATM    2  N   UNL     1      26.783  42.309  52.177  1.00  0.00    -0.056 N 
HETATM    3  H   UNL     1      27.277  43.150  51.806  1.00  0.00     0.278 HD
HETATM    4  H   UNL     1      25.820  42.623  52.349  1.00  0.00     0.278 HD
HETATM    5  C   UNL     1      27.436  41.844  53.454  1.00  0.00     0.209 C 
HETATM    6  C   UNL     1      28.889  41.396  53.151  1.00  0.00     0.115 C 
HETATM    7  N   UNL     1      28.947  40.443  52.043  1.00  0.00    -0.353 N 
HETATM    8  C   UNL     1      28.154  40.522  50.928  1.00  0.00     0.249 C 
HETATM    9  O   UNL     1      28.477  39.949  49.893  1.00  0.00    -0.271 OA
HETATM   10  C   UNL     1      27.374  42.964  54.491  1.00  0.00     0.035 C 
HETATM   11  C   UNL     1      28.317  44.126  54.185  1.00  0.00     0.002 C 
HETATM   12  C   UNL     1      29.745  43.644  53.957  1.00  0.00     0.002 C 
HETATM   13  C   UNL     1      29.819  42.584  52.865  1.00  0.00     0.027 C 
HETATM   14  H   UNL     1      29.822  39.944  51.888  1.00  0.00     0.163 HD
ENDROOT
BRANCH   1  15
HETATM   15  C   UNL     1      26.400  41.867  49.723  1.00  0.00     0.146 C 
BRANCH  15  16
HETATM   16  C   UNL     1      26.577  43.367  49.803  1.00  0.00     0.224 C 
HETATM   17  N   UNL     1      25.450  44.102  49.539  1.00  0.00    -0.327 N 
HETATM   18  H   UNL     1      24.630  43.613  49.193  1.00  0.00     0.169 HD
HETATM   19  O   UNL     1      27.710  43.791  50.043  1.00  0.00    -0.273 OA
BRANCH  17  20
HETATM   20  C   UNL     1      25.337  45.512  49.563  1.00  0.00     0.036 A 
HETATM   21  C   UNL     1      26.431  46.380  49.543  1.00  0.00     0.053 A 
HETATM   22  C   UNL     1      26.229  47.763  49.569  1.00  0.00     0.036 A 
HETATM   23  C   UNL     1      24.944  48.293  49.619  1.00  0.00     0.024 A 
HETATM   24 CL   UNL     1      27.588  48.819  49.545  1.00  0.00    -0.084 Cl
HETATM   25  C   UNL     1      23.848  47.435  49.647  1.00  0.00     0.004 A 
HETATM   26  C   UNL     1      24.044  46.051  49.625  1.00  0.00     0.029 A 
ENDBRANCH  17  20
ENDBRANCH  15  16
ENDBRANCH   1  15
TORSDOF 3
ENDMDL
