MODEL 1
REMARK VINA RESULT:      -8.2      0.000      0.000
REMARK  6 active torsions:
REMARK  status: ('A' for Active; 'I' for Inactive)
REMARK    1  A    between atoms: C_5  and  N_6 
REMARK    2  A    between atoms: N_6  and  C_7 
REMARK    3  A    between atoms: C_7  and  C_8 
REMARK    4  A    between atoms: N_10  and  C_12 
REMARK    5  A    between atoms: C_12  and  C_13 
REMARK    6  A    between atoms: C_14  and  O_15 
ROOT
HETATM    1  C   UNL     1      26.052  44.729  49.571  1.00  0.00     0.031 C 
HETATM    2  C   UNL     1      27.252  44.499  50.488  1.00  0.00     0.241 C 
HETATM    3  N   UNL     1      27.009  43.160  51.142  1.00  0.00    -0.067 N 
HETATM    4  H   UNL     1      27.886  42.613  51.034  1.00  0.00     0.280 HD
HETATM    5  C   UNL     1      25.912  42.455  50.395  1.00  0.00     0.235 C 
HETATM    6  C   UNL     1      25.698  43.303  49.148  1.00  0.00     0.035 C 
ENDROOT
BRANCH   1   7
HETATM    7  C   UNL     1      24.883  45.458  50.259  1.00  0.00     0.127 C 
BRANCH   7   8
HETATM    8  N   UNL     1      25.296  46.785  50.698  1.00  0.00    -0.376 N 
HETATM    9  H   UNL     1      24.787  47.106  51.530  1.00  0.00     0.161 HD
BRANCH   8  10
HETATM   10  C   UNL     1      25.566  47.876  49.878  1.00  0.00     0.101 A 
HETATM   11  N   UNL     1      24.614  48.575  49.238  1.00  0.00    -0.347 N 
HETATM   12  C   UNL     1      24.873  49.629  48.435  1.00  0.00     0.007 A 
HETATM   13  H   UNL     1      23.645  48.321  49.381  1.00  0.00     0.167 HD
HETATM   14  C   UNL     1      23.730  50.366  47.813  1.00  0.00     0.068 C 
HETATM   15  C   UNL     1      26.194  50.016  48.220  1.00  0.00     0.025 A 
HETATM   16  C   UNL     1      27.218  49.311  48.835  1.00  0.00     0.006 A 
HETATM   17  C   UNL     1      26.904  48.241  49.664  1.00  0.00     0.048 A 
ENDBRANCH   8  10
ENDBRANCH   7   8
ENDBRANCH   1   7
BRANCH   3  18
HETATM   18  C   UNL     1      26.827  43.176  52.640  1.00  0.00     0.276 C 
BRANCH  18  19
HETATM   19  C   UNL     1      28.115  43.340  53.396  1.00  0.00     0.002 A 
HETATM   20  C   UNL     1      29.227  42.537  53.111  1.00  0.00     0.073 A 
HETATM   21  C   UNL     1      30.426  42.686  53.805  1.00  0.00     0.038 A 
HETATM   22  C   UNL     1      30.527  43.657  54.802  1.00  0.00     0.022 A 
HETATM   23  C   UNL     1      29.429  44.461  55.100  1.00  0.00     0.011 A 
HETATM   24 BR   UNL     1      29.569  45.795  56.430  1.00  0.00    -0.051 Br
HETATM   25  C   UNL     1      28.224  44.302  54.413  1.00  0.00     0.030 A 
BRANCH  20  26
HETATM   26  O   UNL     1      29.117  41.619  52.102  1.00  0.00    -0.360 OA
HETATM   27  H   UNL     1      28.171  41.569  51.845  1.00  0.00     0.217 HD
ENDBRANCH  20  26
ENDBRANCH  18  19
ENDBRANCH   3  18
TORSDOF 6
ENDMDL
MODEL 2
REMARK VINA RESULT:      -8.2      1.634      2.064
REMARK  6 active torsions:
REMARK  status: ('A' for Active; 'I' for Inactive)
REMARK    1  A    between atoms: C_5  and  N_6 
REMARK    2  A    between atoms: N_6  and  C_7 
REMARK    3  A    between atoms: C_7  and  C_8 
REMARK    4  A    between atoms: N_10  and  C_12 
REMARK    5  A    between atoms: C_12  and  C_13 
REMARK    6  A    between atoms: C_14  and  O_15 
ROOT
HETATM    1  C   UNL     1      26.463  44.553  49.674  1.00  0.00     0.031 C 
HETATM    2  C   UNL     1      27.384  44.651  50.890  1.00  0.00     0.241 C 
HETATM    3  N   UNL     1      26.988  43.505  51.789  1.00  0.00    -0.067 N 
HETATM    4  H   UNL     1      27.866  43.016  52.051  1.00  0.00     0.280 HD
HETATM    5  C   UNL     1      26.128  42.555  51.004  1.00  0.00     0.235 C 
HETATM    6  C   UNL     1      26.241  43.044  49.566  1.00  0.00     0.035 C 
ENDROOT
BRANCH   1   7
HETATM    7  C   UNL     1      25.150  45.342  49.832  1.00  0.00     0.127 C 
BRANCH   7   8
HETATM    8  N   UNL     1      25.410  46.654  50.412  1.00  0.00    -0.376 N 
HETATM    9  H   UNL     1      24.802  46.865  51.211  1.00  0.00     0.161 HD
BRANCH   8  10
HETATM   10  C   UNL     1      25.662  47.828  49.708  1.00  0.00     0.101 A 
HETATM   11  N   UNL     1      24.698  48.583  49.157  1.00  0.00    -0.347 N 
HETATM   12  C   UNL     1      24.940  49.718  48.467  1.00  0.00     0.007 A 
HETATM   13  H   UNL     1      23.732  48.308  49.283  1.00  0.00     0.167 HD
HETATM   14  C   UNL     1      23.784  50.509  47.940  1.00  0.00     0.068 C 
HETATM   15  C   UNL     1      26.255  50.137  48.279  1.00  0.00     0.025 A 
HETATM   16  C   UNL     1      27.291  49.379  48.804  1.00  0.00     0.006 A 
HETATM   17  C   UNL     1      26.995  48.225  49.518  1.00  0.00     0.048 A 
ENDBRANCH   8  10
ENDBRANCH   7   8
ENDBRANCH   1   7
BRANCH   3  18
HETATM   18  C   UNL     1      26.421  43.884  53.136  1.00  0.00     0.276 C 
BRANCH  18  19
HETATM   19  C   UNL     1      27.401  44.615  54.011  1.00  0.00     0.002 A 
HETATM   20  C   UNL     1      27.189  45.952  54.371  1.00  0.00     0.073 A 
HETATM   21  C   UNL     1      28.092  46.635  55.184  1.00  0.00     0.038 A 
HETATM   22  C   UNL     1      29.227  45.975  55.656  1.00  0.00     0.022 A 
HETATM   23  C   UNL     1      29.452  44.646  55.304  1.00  0.00     0.011 A 
HETATM   24 BR   UNL     1      30.974  43.740  55.963  1.00  0.00    -0.051 Br
HETATM   25  C   UNL     1      28.554  43.967  54.478  1.00  0.00     0.030 A 
BRANCH  20  26
HETATM   26  O   UNL     1      26.049  46.566  53.929  1.00  0.00    -0.360 OA
HETATM   27  H   UNL     1      26.316  47.288  53.320  1.00  0.00     0.217 HD
ENDBRANCH  20  26
ENDBRANCH  18  19
ENDBRANCH   3  18
TORSDOF 6
ENDMDL
MODEL 3
REMARK VINA RESULT:      -8.0      3.650      8.180
REMARK  6 active torsions:
REMARK  status: ('A' for Active; 'I' for Inactive)
REMARK    1  A    between atoms: C_5  and  N_6 
REMARK    2  A    between atoms: N_6  and  C_7 
REMARK    3  A    between atoms: C_7  and  C_8 
REMARK    4  A    between atoms: N_10  and  C_12 
REMARK    5  A    between atoms: C_12  and  C_13 
REMARK    6  A    between atoms: C_14  and  O_15 
ROOT
HETATM    1  C   UNL     1      25.873  46.030  53.685  1.00  0.00     0.031 C 
HETATM    2  C   UNL     1      25.369  47.055  52.669  1.00  0.00     0.241 C 
HETATM    3  N   UNL     1      25.524  46.395  51.320  1.00  0.00    -0.067 N 
HETATM    4  H   UNL     1      24.618  46.513  50.826  1.00  0.00     0.280 HD
HETATM    5  C   UNL     1      25.767  44.927  51.530  1.00  0.00     0.235 C 
HETATM    6  C   UNL     1      25.498  44.708  53.013  1.00  0.00     0.035 C 
ENDROOT
BRANCH   1   7
HETATM    7  C   UNL     1      27.379  46.147  53.981  1.00  0.00     0.127 C 
BRANCH   7   8
HETATM    8  N   UNL     1      27.936  44.843  54.320  1.00  0.00    -0.376 N 
HETATM    9  H   UNL     1      27.214  44.133  54.487  1.00  0.00     0.161 HD
BRANCH   8  10
HETATM   10  C   UNL     1      29.016  44.604  55.165  1.00  0.00     0.101 A 
HETATM   11  N   UNL     1      29.333  45.395  56.202  1.00  0.00    -0.347 N 
HETATM   12  C   UNL     1      30.385  45.171  57.019  1.00  0.00     0.007 A 
HETATM   13  H   UNL     1      28.742  46.191  56.407  1.00  0.00     0.167 HD
HETATM   14  C   UNL     1      30.615  46.090  58.177  1.00  0.00     0.068 C 
HETATM   15  C   UNL     1      31.218  44.081  56.777  1.00  0.00     0.025 A 
HETATM   16  C   UNL     1      30.951  43.247  55.701  1.00  0.00     0.006 A 
HETATM   17  C   UNL     1      29.850  43.509  54.895  1.00  0.00     0.048 A 
ENDBRANCH   8  10
ENDBRANCH   7   8
ENDBRANCH   1   7
BRANCH   3  18
HETATM   18  C   UNL     1      26.494  47.053  50.368  1.00  0.00     0.276 C 
BRANCH  18  19
HETATM   19  C   UNL     1      25.866  48.126  49.524  1.00  0.00     0.002 A 
HETATM   20  C   UNL     1      26.654  49.024  48.794  1.00  0.00     0.073 A 
HETATM   21  C   UNL     1      26.079  50.020  48.007  1.00  0.00     0.038 A 
HETATM   22  C   UNL     1      24.689  50.124  47.938  1.00  0.00     0.022 A 
HETATM   23  C   UNL     1      23.891  49.240  48.662  1.00  0.00     0.011 A 
HETATM   24 BR   UNL     1      22.009  49.359  48.551  1.00  0.00    -0.051 Br
HETATM   25  C   UNL     1      24.470  48.252  49.460  1.00  0.00     0.030 A 
BRANCH  20  26
HETATM   26  O   UNL     1      28.014  48.878  48.845  1.00  0.00    -0.360 OA
HETATM   27  H   UNL     1      28.381  49.660  49.311  1.00  0.00     0.217 HD
ENDBRANCH  20  26
ENDBRANCH  18  19
ENDBRANCH   3  18
TORSDOF 6
ENDMDL
MODEL 4
REMARK VINA RESULT:      -7.7      2.465      3.171
REMARK  6 active torsions:
REMARK  status: ('A' for Active; 'I' for Inactive)
REMARK    1  A    between atoms: C_5  and  N_6 
REMARK    2  A    between atoms: N_6  and  C_7 
REMARK    3  A    between atoms: C_7  and  C_8 
REMARK    4  A    between atoms: N_10  and  C_12 
REMARK    5  A    between atoms: C_12  and  C_13 
REMARK    6  A    between atoms: C_14  and  O_15 
ROOT
HETATM    1  C   UNL     1      25.121  45.167  49.397  1.00  0.00     0.031 C 
HETATM    2  C   UNL     1      26.211  45.459  50.428  1.00  0.00     0.241 C 
HETATM    3  N   UNL     1      25.878  44.596  51.622  1.00  0.00    -0.067 N 
HETATM    4  H   UNL     1      26.753  44.102  51.884  1.00  0.00     0.280 HD
HETATM    5  C   UNL     1      24.857  43.575  51.205  1.00  0.00     0.235 C 
HETATM    6  C   UNL     1      24.794  43.702  49.689  1.00  0.00     0.035 C 
ENDROOT
BRANCH   1   7
HETATM    7  C   UNL     1      23.896  46.091  49.520  1.00  0.00     0.127 C 
BRANCH   7   8
HETATM    8  N   UNL     1      24.316  47.475  49.706  1.00  0.00    -0.376 N 
HETATM    9  H   UNL     1      24.746  47.640  50.623  1.00  0.00     0.161 HD
BRANCH   8  10
HETATM   10  C   UNL     1      23.606  48.609  49.323  1.00  0.00     0.101 A 
HETATM   11  N   UNL     1      22.344  48.858  49.709  1.00  0.00    -0.347 N 
HETATM   12  C   UNL     1      21.650  49.953  49.333  1.00  0.00     0.007 A 
HETATM   13  H   UNL     1      21.890  48.208  50.338  1.00  0.00     0.167 HD
HETATM   14  C   UNL     1      20.267  50.155  49.864  1.00  0.00     0.068 C 
HETATM   15  C   UNL     1      22.243  50.877  48.475  1.00  0.00     0.025 A 
HETATM   16  C   UNL     1      23.536  50.654  48.024  1.00  0.00     0.006 A 
HETATM   17  C   UNL     1      24.217  49.520  48.448  1.00  0.00     0.048 A 
ENDBRANCH   8  10
ENDBRANCH   7   8
ENDBRANCH   1   7
BRANCH   3  18
HETATM   18  C   UNL     1      25.534  45.331  52.895  1.00  0.00     0.276 C 
BRANCH  18  19
HETATM   19  C   UNL     1      26.714  45.531  53.805  1.00  0.00     0.002 A 
HETATM   20  C   UNL     1      26.822  46.674  54.607  1.00  0.00     0.073 A 
HETATM   21  C   UNL     1      27.911  46.864  55.455  1.00  0.00     0.038 A 
HETATM   22  C   UNL     1      28.913  45.895  55.514  1.00  0.00     0.022 A 
HETATM   23  C   UNL     1      28.821  44.754  54.720  1.00  0.00     0.011 A 
HETATM   24 BR   UNL     1      30.162  43.427  54.817  1.00  0.00    -0.051 Br
HETATM   25  C   UNL     1      27.737  44.571  53.861  1.00  0.00     0.030 A 
BRANCH  20  26
HETATM   26  O   UNL     1      25.807  47.591  54.562  1.00  0.00    -0.360 OA
HETATM   27  H   UNL     1      24.968  47.118  54.746  1.00  0.00     0.217 HD
ENDBRANCH  20  26
ENDBRANCH  18  19
ENDBRANCH   3  18
TORSDOF 6
ENDMDL
MODEL 5
REMARK VINA RESULT:      -7.7     11.936     13.549
REMARK  6 active torsions:
REMARK  status: ('A' for Active; 'I' for Inactive)
REMARK    1  A    between atoms: C_5  and  N_6 
REMARK    2  A    between atoms: N_6  and  C_7 
REMARK    3  A    between atoms: C_7  and  C_8 
REMARK    4  A    between atoms: N_10  and  C_12 
REMARK    5  A    between atoms: C_12  and  C_13 
REMARK    6  A    between atoms: C_14  and  O_15 
ROOT
HETATM    1  C   UNL     1      29.736  47.305  40.348  1.00  0.00     0.031 C 
HETATM    2  C   UNL     1      28.777  48.452  40.660  1.00  0.00     0.241 C 
HETATM    3  N   UNL     1      27.925  48.614  39.423  1.00  0.00    -0.067 N 
HETATM    4  H   UNL     1      26.938  48.642  39.743  1.00  0.00     0.280 HD
HETATM    5  C   UNL     1      28.112  47.404  38.552  1.00  0.00     0.235 C 
HETATM    6  C   UNL     1      28.890  46.428  39.424  1.00  0.00     0.035 C 
ENDROOT
BRANCH   1   7
HETATM    7  C   UNL     1      31.054  47.765  39.698  1.00  0.00     0.127 C 
BRANCH   7   8
HETATM    8  N   UNL     1      32.147  47.700  40.660  1.00  0.00    -0.376 N 
HETATM    9  H   UNL     1      32.074  46.896  41.293  1.00  0.00     0.161 HD
BRANCH   8  10
HETATM   10  C   UNL     1      32.700  48.775  41.349  1.00  0.00     0.101 A 
HETATM   11  N   UNL     1      33.990  49.136  41.248  1.00  0.00    -0.347 N 
HETATM   12  C   UNL     1      34.531  50.173  41.921  1.00  0.00     0.007 A 
HETATM   13  H   UNL     1      34.589  48.624  40.613  1.00  0.00     0.167 HD
HETATM   14  C   UNL     1      35.969  50.518  41.692  1.00  0.00     0.068 C 
HETATM   15  C   UNL     1      33.736  50.909  42.798  1.00  0.00     0.025 A 
HETATM   16  C   UNL     1      32.404  50.561  42.961  1.00  0.00     0.006 A 
HETATM   17  C   UNL     1      31.886  49.494  42.237  1.00  0.00     0.048 A 
ENDBRANCH   8  10
ENDBRANCH   7   8
ENDBRANCH   1   7
BRANCH   3  18
HETATM   18  C   UNL     1      28.060  49.929  38.693  1.00  0.00     0.276 C 
BRANCH  18  19
HETATM   19  C   UNL     1      28.777  50.983  39.491  1.00  0.00     0.002 A 
HETATM   20  C   UNL     1      28.118  51.699  40.498  1.00  0.00     0.073 A 
HETATM   21  C   UNL     1      28.778  52.674  41.243  1.00  0.00     0.038 A 
HETATM   22  C   UNL     1      30.123  52.942  40.987  1.00  0.00     0.022 A 
HETATM   23  C   UNL     1      30.791  52.240  39.987  1.00  0.00     0.011 A 
HETATM   24 BR   UNL     1      32.620  52.579  39.655  1.00  0.00    -0.051 Br
HETATM   25  C   UNL     1      30.126  51.272  39.232  1.00  0.00     0.030 A 
BRANCH  20  26
HETATM   26  O   UNL     1      26.811  51.392  40.757  1.00  0.00    -0.360 OA
HETATM   27  H   UNL     1      26.770  50.987  41.650  1.00  0.00     0.217 HD
ENDBRANCH  20  26
ENDBRANCH  18  19
ENDBRANCH   3  18
TORSDOF 6
ENDMDL
MODEL 6
REMARK VINA RESULT:      -7.6      3.789      6.922
REMARK  6 active torsions:
REMARK  status: ('A' for Active; 'I' for Inactive)
REMARK    1  A    between atoms: C_5  and  N_6 
REMARK    2  A    between atoms: N_6  and  C_7 
REMARK    3  A    between atoms: C_7  and  C_8 
REMARK    4  A    between atoms: N_10  and  C_12 
REMARK    5  A    between atoms: C_12  and  C_13 
REMARK    6  A    between atoms: C_14  and  O_15 
ROOT
HETATM    1  C   UNL     1      29.656  42.524  52.905  1.00  0.00     0.031 C 
HETATM    2  C   UNL     1      28.763  43.666  52.421  1.00  0.00     0.241 C 
HETATM    3  N   UNL     1      28.264  44.346  53.673  1.00  0.00    -0.067 N 
HETATM    4  H   UNL     1      28.427  45.363  53.544  1.00  0.00     0.280 HD
HETATM    5  C   UNL     1      29.090  43.873  54.837  1.00  0.00     0.235 C 
HETATM    6  C   UNL     1      30.236  43.101  54.197  1.00  0.00     0.035 C 
ENDROOT
BRANCH   1   7
HETATM    7  C   UNL     1      28.897  41.202  53.126  1.00  0.00     0.127 C 
BRANCH   7   8
HETATM    8  N   UNL     1      28.913  40.395  51.913  1.00  0.00    -0.376 N 
HETATM    9  H   UNL     1      29.863  40.187  51.585  1.00  0.00     0.161 HD
BRANCH   8  10
HETATM   10  C   UNL     1      28.073  40.546  50.813  1.00  0.00     0.101 A 
HETATM   11  N   UNL     1      28.514  40.592  49.545  1.00  0.00    -0.347 N 
HETATM   12  C   UNL     1      27.703  40.747  48.477  1.00  0.00     0.007 A 
HETATM   13  H   UNL     1      29.504  40.479  49.370  1.00  0.00     0.167 HD
HETATM   14  C   UNL     1      28.298  40.732  47.105  1.00  0.00     0.068 C 
HETATM   15  C   UNL     1      26.332  40.897  48.675  1.00  0.00     0.025 A 
HETATM   16  C   UNL     1      25.827  40.885  49.967  1.00  0.00     0.006 A 
HETATM   17  C   UNL     1      26.698  40.710  51.036  1.00  0.00     0.048 A 
ENDBRANCH   8  10
ENDBRANCH   7   8
ENDBRANCH   1   7
BRANCH   3  18
HETATM   18  C   UNL     1      26.774  44.290  53.909  1.00  0.00     0.276 C 
BRANCH  18  19
HETATM   19  C   UNL     1      25.972  44.933  52.812  1.00  0.00     0.002 A 
HETATM   20  C   UNL     1      26.038  46.313  52.583  1.00  0.00     0.073 A 
HETATM   21  C   UNL     1      25.300  46.915  51.566  1.00  0.00     0.038 A 
HETATM   22  C   UNL     1      24.483  46.129  50.752  1.00  0.00     0.022 A 
HETATM   23  C   UNL     1      24.405  44.755  50.969  1.00  0.00     0.011 A 
HETATM   24 BR   UNL     1      23.321  43.683  49.853  1.00  0.00    -0.051 Br
HETATM   25  C   UNL     1      25.134  44.156  51.997  1.00  0.00     0.030 A 
BRANCH  20  26
HETATM   26  O   UNL     1      26.876  47.057  53.368  1.00  0.00    -0.360 OA
HETATM   27  H   UNL     1      26.939  47.953  52.972  1.00  0.00     0.217 HD
ENDBRANCH  20  26
ENDBRANCH  18  19
ENDBRANCH   3  18
TORSDOF 6
ENDMDL
MODEL 7
REMARK VINA RESULT:      -7.5      3.405      6.786
REMARK  6 active torsions:
REMARK  status: ('A' for Active; 'I' for Inactive)
REMARK    1  A    between atoms: C_5  and  N_6 
REMARK    2  A    between atoms: N_6  and  C_7 
REMARK    3  A    between atoms: C_7  and  C_8 
REMARK    4  A    between atoms: N_10  and  C_12 
REMARK    5  A    between atoms: C_12  and  C_13 
REMARK    6  A    between atoms: C_14  and  O_15 
ROOT
HETATM    1  C   UNL     1      26.456  43.449  50.663  1.00  0.00     0.031 C 
HETATM    2  C   UNL     1      25.179  43.534  51.500  1.00  0.00     0.241 C 
HETATM    3  N   UNL     1      25.275  44.842  52.249  1.00  0.00    -0.067 N 
HETATM    4  H   UNL     1      24.370  45.331  52.108  1.00  0.00     0.280 HD
HETATM    5  C   UNL     1      26.368  45.669  51.632  1.00  0.00     0.235 C 
HETATM    6  C   UNL     1      26.731  44.921  50.356  1.00  0.00     0.035 C 
ENDROOT
BRANCH   1   7
HETATM    7  C   UNL     1      27.624  42.760  51.393  1.00  0.00     0.127 C 
BRANCH   7   8
HETATM    8  N   UNL     1      27.417  41.318  51.439  1.00  0.00    -0.376 N 
HETATM    9  H   UNL     1      27.298  40.962  52.394  1.00  0.00     0.161 HD
BRANCH   8  10
HETATM   10  C   UNL     1      28.089  40.366  50.677  1.00  0.00     0.101 A 
HETATM   11  N   UNL     1      28.688  39.285  51.203  1.00  0.00    -0.347 N 
HETATM   12  C   UNL     1      29.348  38.365  50.469  1.00  0.00     0.007 A 
HETATM   13  H   UNL     1      28.624  39.131  52.201  1.00  0.00     0.167 HD
HETATM   14  C   UNL     1      29.935  37.172  51.155  1.00  0.00     0.068 C 
HETATM   15  C   UNL     1      29.450  38.536  49.090  1.00  0.00     0.025 A 
HETATM   16  C   UNL     1      28.872  39.649  48.498  1.00  0.00     0.006 A 
HETATM   17  C   UNL     1      28.192  40.565  49.292  1.00  0.00     0.048 A 
ENDBRANCH   8  10
ENDBRANCH   7   8
ENDBRANCH   1   7
BRANCH   3  18
HETATM   18  C   UNL     1      25.351  44.739  53.754  1.00  0.00     0.276 C 
BRANCH  18  19
HETATM   19  C   UNL     1      26.663  45.207  54.317  1.00  0.00     0.002 A 
HETATM   20  C   UNL     1      26.840  46.533  54.731  1.00  0.00     0.073 A 
HETATM   21  C   UNL     1      28.053  46.973  55.258  1.00  0.00     0.038 A 
HETATM   22  C   UNL     1      29.114  46.075  55.382  1.00  0.00     0.022 A 
HETATM   23  C   UNL     1      28.955  44.753  54.971  1.00  0.00     0.011 A 
HETATM   24 BR   UNL     1      30.380  43.528  55.162  1.00  0.00    -0.051 Br
HETATM   25  C   UNL     1      27.743  44.318  54.431  1.00  0.00     0.030 A 
BRANCH  20  26
HETATM   26  O   UNL     1      25.773  47.385  54.637  1.00  0.00    -0.360 OA
HETATM   27  H   UNL     1      25.776  47.769  53.734  1.00  0.00     0.217 HD
ENDBRANCH  20  26
ENDBRANCH  18  19
ENDBRANCH   3  18
TORSDOF 6
ENDMDL
MODEL 8
REMARK VINA RESULT:      -7.4      2.566      3.374
REMARK  6 active torsions:
REMARK  status: ('A' for Active; 'I' for Inactive)
REMARK    1  A    between atoms: C_5  and  N_6 
REMARK    2  A    between atoms: N_6  and  C_7 
REMARK    3  A    between atoms: C_7  and  C_8 
REMARK    4  A    between atoms: N_10  and  C_12 
REMARK    5  A    between atoms: C_12  and  C_13 
REMARK    6  A    between atoms: C_14  and  O_15 
ROOT
HETATM    1  C   UNL     1      26.157  44.502  51.870  1.00  0.00     0.031 C 
HETATM    2  C   UNL     1      27.470  44.136  52.562  1.00  0.00     0.241 C 
HETATM    3  N   UNL     1      27.370  44.721  53.950  1.00  0.00    -0.067 N 
HETATM    4  H   UNL     1      27.633  43.964  54.611  1.00  0.00     0.280 HD
HETATM    5  C   UNL     1      25.940  45.105  54.207  1.00  0.00     0.235 C 
HETATM    6  C   UNL     1      25.172  44.501  53.039  1.00  0.00     0.035 C 
ENDROOT
BRANCH   1   7
HETATM    7  C   UNL     1      26.208  45.852  51.130  1.00  0.00     0.127 C 
BRANCH   7   8
HETATM    8  N   UNL     1      24.863  46.298  50.789  1.00  0.00    -0.376 N 
HETATM    9  H   UNL     1      24.250  45.528  50.494  1.00  0.00     0.161 HD
BRANCH   8  10
HETATM   10  C   UNL     1      24.534  47.443  50.070  1.00  0.00     0.101 A 
HETATM   11  N   UNL     1      23.270  47.833  49.835  1.00  0.00    -0.347 N 
HETATM   12  C   UNL     1      22.948  48.939  49.131  1.00  0.00     0.007 A 
HETATM   13  H   UNL     1      22.513  47.288  50.225  1.00  0.00     0.167 HD
HETATM   14  C   UNL     1      21.506  49.306  48.974  1.00  0.00     0.068 C 
HETATM   15  C   UNL     1      23.963  49.722  48.585  1.00  0.00     0.025 A 
HETATM   16  C   UNL     1      25.285  49.350  48.775  1.00  0.00     0.006 A 
HETATM   17  C   UNL     1      25.571  48.210  49.517  1.00  0.00     0.048 A 
ENDBRANCH   8  10
ENDBRANCH   7   8
ENDBRANCH   1   7
BRANCH   3  18
HETATM   18  C   UNL     1      28.371  45.800  54.289  1.00  0.00     0.276 C 
BRANCH  18  19
HETATM   19  C   UNL     1      29.033  45.601  55.623  1.00  0.00     0.002 A 
HETATM   20  C   UNL     1      28.624  46.328  56.748  1.00  0.00     0.073 A 
HETATM   21  C   UNL     1      29.232  46.146  57.989  1.00  0.00     0.038 A 
HETATM   22  C   UNL     1      30.265  45.218  58.119  1.00  0.00     0.022 A 
HETATM   23  C   UNL     1      30.685  44.489  57.008  1.00  0.00     0.011 A 
HETATM   24 BR   UNL     1      32.066  43.212  57.185  1.00  0.00    -0.051 Br
HETATM   25  C   UNL     1      30.085  44.682  55.763  1.00  0.00     0.030 A 
BRANCH  20  26
HETATM   26  O   UNL     1      27.582  47.203  56.605  1.00  0.00    -0.360 OA
HETATM   27  H   UNL     1      26.983  46.846  55.915  1.00  0.00     0.217 HD
ENDBRANCH  20  26
ENDBRANCH  18  19
ENDBRANCH   3  18
TORSDOF 6
ENDMDL
MODEL 9
REMARK VINA RESULT:      -7.3      3.364      6.770
REMARK  6 active torsions:
REMARK  status: ('A' for Active; 'I' for Inactive)
REMARK    1  A    between atoms: C_5  and  N_6 
REMARK    2  A    between atoms: N_6  and  C_7 
REMARK    3  A    between atoms: C_7  and  C_8 
REMARK    4  A    between atoms: N_10  and  C_12 
REMARK    5  A    between atoms: C_12  and  C_13 
REMARK    6  A    between atoms: C_14  and  O_15 
ROOT
HETATM    1  C   UNL     1      27.611  41.182  51.720  1.00  0.00     0.031 C 
HETATM    2  C   UNL     1      26.164  40.967  51.277  1.00  0.00     0.241 C 
HETATM    3  N   UNL     1      25.788  42.213  50.512  1.00  0.00    -0.067 N 
HETATM    4  H   UNL     1      25.363  41.896  49.619  1.00  0.00     0.280 HD
HETATM    5  C   UNL     1      27.042  42.980  50.199  1.00  0.00     0.235 C 
HETATM    6  C   UNL     1      28.170  42.029  50.577  1.00  0.00     0.035 C 
ENDROOT
BRANCH   1   7
HETATM    7  C   UNL     1      27.738  41.868  53.093  1.00  0.00     0.127 C 
BRANCH   7   8
HETATM    8  N   UNL     1      29.054  42.476  53.241  1.00  0.00    -0.376 N 
HETATM    9  H   UNL     1      29.820  41.825  53.032  1.00  0.00     0.161 HD
BRANCH   8  10
HETATM   10  C   UNL     1      29.453  43.338  54.258  1.00  0.00     0.101 A 
HETATM   11  N   UNL     1      30.394  43.028  55.164  1.00  0.00    -0.347 N 
HETATM   12  C   UNL     1      30.778  43.859  56.157  1.00  0.00     0.007 A 
HETATM   13  H   UNL     1      30.866  42.136  55.090  1.00  0.00     0.167 HD
HETATM   14  C   UNL     1      31.874  43.431  57.081  1.00  0.00     0.068 C 
HETATM   15  C   UNL     1      30.159  45.100  56.288  1.00  0.00     0.025 A 
HETATM   16  C   UNL     1      29.161  45.459  55.394  1.00  0.00     0.006 A 
HETATM   17  C   UNL     1      28.807  44.578  54.380  1.00  0.00     0.048 A 
ENDBRANCH   8  10
ENDBRANCH   7   8
ENDBRANCH   1   7
BRANCH   3  18
HETATM   18  C   UNL     1      24.684  43.051  51.110  1.00  0.00     0.276 C 
BRANCH  18  19
HETATM   19  C   UNL     1      25.147  44.402  51.578  1.00  0.00     0.002 A 
HETATM   20  C   UNL     1      25.246  44.700  52.942  1.00  0.00     0.073 A 
HETATM   21  C   UNL     1      25.678  45.950  53.382  1.00  0.00     0.038 A 
HETATM   22  C   UNL     1      26.027  46.925  52.447  1.00  0.00     0.022 A 
HETATM   23  C   UNL     1      25.932  46.644  51.085  1.00  0.00     0.011 A 
HETATM   24 BR   UNL     1      26.429  47.951  49.816  1.00  0.00    -0.051 Br
HETATM   25  C   UNL     1      25.486  45.396  50.646  1.00  0.00     0.030 A 
BRANCH  20  26
HETATM   26  O   UNL     1      24.936  43.716  53.841  1.00  0.00    -0.360 OA
HETATM   27  H   UNL     1      25.239  44.012  54.726  1.00  0.00     0.217 HD
ENDBRANCH  20  26
ENDBRANCH  18  19
ENDBRANCH   3  18
TORSDOF 6
ENDMDL
MODEL 10
REMARK VINA RESULT:      -7.3      1.671      2.490
REMARK  6 active torsions:
REMARK  status: ('A' for Active; 'I' for Inactive)
REMARK    1  A    between atoms: C_5  and  N_6 
REMARK    2  A    between atoms: N_6  and  C_7 
REMARK    3  A    between atoms: C_7  and  C_8 
REMARK    4  A    between atoms: N_10  and  C_12 
REMARK    5  A    between atoms: C_12  and  C_13 
REMARK    6  A    between atoms: C_14  and  O_15 
ROOT
HETATM    1  C   UNL     1      24.952  46.230  51.457  1.00  0.00     0.031 C 
HETATM    2  C   UNL     1      25.200  44.850  52.064  1.00  0.00     0.241 C 
HETATM    3  N   UNL     1      26.423  45.005  52.935  1.00  0.00    -0.067 N 
HETATM    4  H   UNL     1      26.188  44.586  53.855  1.00  0.00     0.280 HD
HETATM    5  C   UNL     1      26.689  46.471  53.130  1.00  0.00     0.235 C 
HETATM    6  C   UNL     1      25.452  47.157  52.566  1.00  0.00     0.035 C 
ENDROOT
BRANCH   1   7
HETATM    7  C   UNL     1      25.679  46.452  50.117  1.00  0.00     0.127 C 
BRANCH   7   8
HETATM    8  N   UNL     1      25.658  47.863  49.753  1.00  0.00    -0.376 N 
HETATM    9  H   UNL     1      26.095  48.464  50.461  1.00  0.00     0.161 HD
BRANCH   8  10
HETATM   10  C   UNL     1      24.596  48.546  49.167  1.00  0.00     0.101 A 
HETATM   11  N   UNL     1      23.324  48.118  49.216  1.00  0.00    -0.347 N 
HETATM   12  C   UNL     1      22.293  48.774  48.642  1.00  0.00     0.007 A 
HETATM   13  H   UNL     1      23.114  47.274  49.732  1.00  0.00     0.167 HD
HETATM   14  C   UNL     1      20.907  48.233  48.804  1.00  0.00     0.068 C 
HETATM   15  C   UNL     1      22.539  49.946  47.930  1.00  0.00     0.025 A 
HETATM   16  C   UNL     1      23.839  50.417  47.825  1.00  0.00     0.006 A 
HETATM   17  C   UNL     1      24.868  49.716  48.443  1.00  0.00     0.048 A 
ENDBRANCH   8  10
ENDBRANCH   7   8
ENDBRANCH   1   7
BRANCH   3  18
HETATM   18  C   UNL     1      27.636  44.206  52.522  1.00  0.00     0.276 C 
BRANCH  18  19
HETATM   19  C   UNL     1      28.664  44.078  53.610  1.00  0.00     0.002 A 
HETATM   20  C   UNL     1      29.684  43.121  53.532  1.00  0.00     0.073 A 
HETATM   21  C   UNL     1      30.642  43.000  54.537  1.00  0.00     0.038 A 
HETATM   22  C   UNL     1      30.592  43.850  55.642  1.00  0.00     0.022 A 
HETATM   23  C   UNL     1      29.582  44.805  55.735  1.00  0.00     0.011 A 
HETATM   24 BR   UNL     1      29.525  45.977  57.216  1.00  0.00    -0.051 Br
HETATM   25  C   UNL     1      28.615  44.917  54.735  1.00  0.00     0.030 A 
BRANCH  20  26
HETATM   26  O   UNL     1      29.737  42.325  52.421  1.00  0.00    -0.360 OA
HETATM   27  H   UNL     1      30.322  42.764  51.766  1.00  0.00     0.217 HD
ENDBRANCH  20  26
ENDBRANCH  18  19
ENDBRANCH   3  18
TORSDOF 6
ENDMDL
