MODEL 1
REMARK VINA RESULT:      -8.3      0.000      0.000
REMARK  4 active torsions:
REMARK  status: ('A' for Active; 'I' for Inactive)
REMARK    1  A    between atoms: C_3  and  N_4 
REMARK       I    between atoms: N_4  and  C_5 
REMARK    2  A    between atoms: C_5  and  C_6 
REMARK    3  A    between atoms: C_7  and  C_8 
REMARK    4  A    between atoms: C_15  and  C_16 
ROOT
HETATM    1  C   UNL     1      30.260  42.555  53.290  1.00  0.00     0.003 A 
HETATM    2  C   UNL     1      29.127  43.063  52.649  1.00  0.00     0.029 A 
HETATM    3  C   UNL     1      28.382  44.084  53.239  1.00  0.00     0.035 A 
HETATM    4  C   UNL     1      28.789  44.588  54.485  1.00  0.00     0.042 A 
HETATM    5  C   UNL     1      29.928  44.089  55.137  1.00  0.00    -0.021 A 
HETATM    6  C   UNL     1      30.658  43.065  54.525  1.00  0.00     0.012 A 
ENDROOT
BRANCH   3   7
HETATM    7  N   UNL     1      27.229  44.657  52.657  1.00  0.00    -0.324 N 
HETATM    8  C   UNL     1      25.930  44.577  53.119  1.00  0.00     0.245 C 
HETATM    9  O   UNL     1      25.534  43.999  54.122  1.00  0.00    -0.268 OA
HETATM   10  H   UNL     1      27.385  45.172  51.801  1.00  0.00     0.169 HD
BRANCH   8  11
HETATM   11  C   UNL     1      24.982  45.300  52.228  1.00  0.00     0.077 C 
HETATM   12  C   UNL     1      25.459  46.096  51.261  1.00  0.00     0.042 C 
BRANCH  12  13
HETATM   13  C   UNL     1      24.576  46.805  50.400  1.00  0.00     0.075 A 
HETATM   14  O   UNL     1      24.431  48.175  50.398  1.00  0.00    -0.323 OA
HETATM   15  C   UNL     1      23.515  48.508  49.456  1.00  0.00     0.142 A 
HETATM   16  C   UNL     1      23.045  47.383  48.829  1.00  0.00     0.027 A 
HETATM   17  C   UNL     1      23.720  46.295  49.430  1.00  0.00     0.039 A 
ENDBRANCH  12  13
ENDBRANCH   8  11
ENDBRANCH   3   7
BRANCH   5  18
HETATM   18  C   UNL     1      30.327  44.630  56.427  1.00  0.00     0.010 A 
HETATM   19  C   UNL     1      31.246  44.148  57.388  1.00  0.00     0.152 A 
HETATM   20  N   UNL     1      31.321  44.929  58.470  1.00  0.00    -0.187 NA
HETATM   21  N   UNL     1      30.452  45.916  58.205  1.00  0.00    -0.289 N 
HETATM   22  H   UNL     1      30.329  46.649  58.897  1.00  0.00     0.188 HD
HETATM   23  C   UNL     1      29.830  45.783  56.998  1.00  0.00     0.123 A 
ENDBRANCH   5  18
TORSDOF 4
ENDMDL
MODEL 2
REMARK VINA RESULT:      -7.9      2.879      8.283
REMARK  4 active torsions:
REMARK  status: ('A' for Active; 'I' for Inactive)
REMARK    1  A    between atoms: C_3  and  N_4 
REMARK       I    between atoms: N_4  and  C_5 
REMARK    2  A    between atoms: C_5  and  C_6 
REMARK    3  A    between atoms: C_7  and  C_8 
REMARK    4  A    between atoms: C_15  and  C_16 
ROOT
HETATM    1  C   UNL     1      24.029  45.022  50.484  1.00  0.00     0.003 A 
HETATM    2  C   UNL     1      24.856  44.558  51.510  1.00  0.00     0.029 A 
HETATM    3  C   UNL     1      26.004  45.265  51.865  1.00  0.00     0.035 A 
HETATM    4  C   UNL     1      26.314  46.447  51.172  1.00  0.00     0.042 A 
HETATM    5  C   UNL     1      25.489  46.927  50.142  1.00  0.00    -0.021 A 
HETATM    6  C   UNL     1      24.342  46.199  49.805  1.00  0.00     0.012 A 
ENDROOT
BRANCH   3   7
HETATM    7  N   UNL     1      26.889  44.869  52.892  1.00  0.00    -0.324 N 
HETATM    8  C   UNL     1      27.083  45.484  54.113  1.00  0.00     0.245 C 
HETATM    9  O   UNL     1      26.521  46.484  54.537  1.00  0.00    -0.268 OA
HETATM   10  H   UNL     1      27.446  44.049  52.693  1.00  0.00     0.169 HD
BRANCH   8  11
HETATM   11  C   UNL     1      28.112  44.782  54.927  1.00  0.00     0.077 C 
HETATM   12  C   UNL     1      29.123  45.481  55.462  1.00  0.00     0.042 C 
BRANCH  12  13
HETATM   13  C   UNL     1      30.124  44.835  56.238  1.00  0.00     0.075 A 
HETATM   14  O   UNL     1      30.467  45.204  57.521  1.00  0.00    -0.323 OA
HETATM   15  C   UNL     1      31.450  44.378  57.956  1.00  0.00     0.142 A 
HETATM   16  C   UNL     1      31.770  43.463  56.987  1.00  0.00     0.027 A 
HETATM   17  C   UNL     1      30.925  43.754  55.890  1.00  0.00     0.039 A 
ENDBRANCH  12  13
ENDBRANCH   8  11
ENDBRANCH   3   7
BRANCH   5  18
HETATM   18  C   UNL     1      25.833  48.153  49.442  1.00  0.00     0.010 A 
HETATM   19  C   UNL     1      25.017  49.108  48.791  1.00  0.00     0.152 A 
HETATM   20  N   UNL     1      25.720  50.102  48.240  1.00  0.00    -0.187 NA
HETATM   21  N   UNL     1      26.990  49.789  48.537  1.00  0.00    -0.289 N 
HETATM   22  H   UNL     1      27.727  50.409  48.216  1.00  0.00     0.188 HD
HETATM   23  C   UNL     1      27.112  48.632  49.252  1.00  0.00     0.123 A 
ENDBRANCH   5  18
TORSDOF 4
ENDMDL
MODEL 3
REMARK VINA RESULT:      -7.8      3.852      6.234
REMARK  4 active torsions:
REMARK  status: ('A' for Active; 'I' for Inactive)
REMARK    1  A    between atoms: C_3  and  N_4 
REMARK       I    between atoms: N_4  and  C_5 
REMARK    2  A    between atoms: C_5  and  C_6 
REMARK    3  A    between atoms: C_7  and  C_8 
REMARK    4  A    between atoms: C_15  and  C_16 
ROOT
HETATM    1  C   UNL     1      30.543  44.482  55.985  1.00  0.00     0.003 A 
HETATM    2  C   UNL     1      30.584  43.431  55.066  1.00  0.00     0.029 A 
HETATM    3  C   UNL     1      29.636  43.346  54.048  1.00  0.00     0.035 A 
HETATM    4  C   UNL     1      28.639  44.333  53.965  1.00  0.00     0.042 A 
HETATM    5  C   UNL     1      28.588  45.397  54.880  1.00  0.00    -0.021 A 
HETATM    6  C   UNL     1      29.552  45.459  55.892  1.00  0.00     0.012 A 
ENDROOT
BRANCH   3   7
HETATM    7  N   UNL     1      29.610  42.322  53.076  1.00  0.00    -0.324 N 
HETATM    8  C   UNL     1      28.713  41.276  52.985  1.00  0.00     0.245 C 
HETATM    9  O   UNL     1      27.767  41.043  53.726  1.00  0.00    -0.268 OA
HETATM   10  H   UNL     1      30.343  42.363  52.381  1.00  0.00     0.169 HD
BRANCH   8  11
HETATM   11  C   UNL     1      29.016  40.387  51.830  1.00  0.00     0.077 C 
HETATM   12  C   UNL     1      28.179  40.354  50.783  1.00  0.00     0.042 C 
BRANCH  12  13
HETATM   13  C   UNL     1      28.439  39.509  49.670  1.00  0.00     0.075 A 
HETATM   14  O   UNL     1      27.880  39.678  48.422  1.00  0.00    -0.323 OA
HETATM   15  C   UNL     1      28.346  38.701  47.607  1.00  0.00     0.142 A 
HETATM   16  C   UNL     1      29.207  37.881  48.288  1.00  0.00     0.027 A 
HETATM   17  C   UNL     1      29.268  38.394  49.605  1.00  0.00     0.039 A 
ENDBRANCH  12  13
ENDBRANCH   8  11
ENDBRANCH   3   7
BRANCH   5  18
HETATM   18  C   UNL     1      27.546  46.405  54.770  1.00  0.00     0.010 A 
HETATM   19  C   UNL     1      27.224  47.498  55.608  1.00  0.00     0.152 A 
HETATM   20  N   UNL     1      26.168  48.191  55.173  1.00  0.00    -0.187 NA
HETATM   21  N   UNL     1      25.810  47.546  54.053  1.00  0.00    -0.289 N 
HETATM   22  H   UNL     1      25.011  47.893  53.531  1.00  0.00     0.188 HD
HETATM   23  C   UNL     1      26.600  46.470  53.769  1.00  0.00     0.123 A 
ENDBRANCH   5  18
TORSDOF 4
ENDMDL
MODEL 4
REMARK VINA RESULT:      -7.7      5.326      7.722
REMARK  4 active torsions:
REMARK  status: ('A' for Active; 'I' for Inactive)
REMARK    1  A    between atoms: C_3  and  N_4 
REMARK       I    between atoms: N_4  and  C_5 
REMARK    2  A    between atoms: C_5  and  C_6 
REMARK    3  A    between atoms: C_7  and  C_8 
REMARK    4  A    between atoms: C_15  and  C_16 
ROOT
HETATM    1  C   UNL     1      26.900  47.845  49.454  1.00  0.00     0.003 A 
HETATM    2  C   UNL     1      25.881  48.764  49.192  1.00  0.00     0.029 A 
HETATM    3  C   UNL     1      24.548  48.418  49.405  1.00  0.00     0.035 A 
HETATM    4  C   UNL     1      24.248  47.132  49.885  1.00  0.00     0.042 A 
HETATM    5  C   UNL     1      25.263  46.201  50.157  1.00  0.00    -0.021 A 
HETATM    6  C   UNL     1      26.594  46.572  49.935  1.00  0.00     0.012 A 
ENDROOT
BRANCH   3   7
HETATM    7  N   UNL     1      23.459  49.288  49.171  1.00  0.00    -0.324 N 
HETATM    8  C   UNL     1      23.291  50.152  48.108  1.00  0.00     0.245 C 
HETATM    9  O   UNL     1      24.051  50.323  47.164  1.00  0.00    -0.268 OA
HETATM   10  H   UNL     1      22.733  49.275  49.875  1.00  0.00     0.169 HD
BRANCH   8  11
HETATM   11  C   UNL     1      22.020  50.918  48.213  1.00  0.00     0.077 C 
HETATM   12  C   UNL     1      21.090  50.538  49.101  1.00  0.00     0.042 C 
BRANCH  12  13
HETATM   13  C   UNL     1      19.863  51.247  49.219  1.00  0.00     0.075 A 
HETATM   14  O   UNL     1      18.913  50.995  50.185  1.00  0.00    -0.323 OA
HETATM   15  C   UNL     1      17.879  51.852  50.003  1.00  0.00     0.142 A 
HETATM   16  C   UNL     1      18.121  52.672  48.932  1.00  0.00     0.027 A 
HETATM   17  C   UNL     1      19.386  52.287  48.430  1.00  0.00     0.039 A 
ENDBRANCH  12  13
ENDBRANCH   8  11
ENDBRANCH   3   7
BRANCH   5  18
HETATM   18  C   UNL     1      24.925  44.877  50.653  1.00  0.00     0.010 A 
HETATM   19  C   UNL     1      23.741  44.115  50.525  1.00  0.00     0.152 A 
HETATM   20  N   UNL     1      23.812  42.935  51.149  1.00  0.00    -0.187 NA
HETATM   21  N   UNL     1      25.045  42.936  51.678  1.00  0.00    -0.289 N 
HETATM   22  H   UNL     1      25.340  42.126  52.215  1.00  0.00     0.188 HD
HETATM   23  C   UNL     1      25.750  44.075  51.413  1.00  0.00     0.123 A 
ENDBRANCH   5  18
TORSDOF 4
ENDMDL
MODEL 5
REMARK VINA RESULT:      -7.7      3.144      5.418
REMARK  4 active torsions:
REMARK  status: ('A' for Active; 'I' for Inactive)
REMARK    1  A    between atoms: C_3  and  N_4 
REMARK       I    between atoms: N_4  and  C_5 
REMARK    2  A    between atoms: C_5  and  C_6 
REMARK    3  A    between atoms: C_7  and  C_8 
REMARK    4  A    between atoms: C_15  and  C_16 
ROOT
HETATM    1  C   UNL     1      27.413  46.567  54.703  1.00  0.00     0.003 A 
HETATM    2  C   UNL     1      27.332  45.634  53.667  1.00  0.00     0.029 A 
HETATM    3  C   UNL     1      28.170  44.520  53.653  1.00  0.00     0.035 A 
HETATM    4  C   UNL     1      29.096  44.355  54.696  1.00  0.00     0.042 A 
HETATM    5  C   UNL     1      29.186  45.283  55.746  1.00  0.00    -0.021 A 
HETATM    6  C   UNL     1      28.334  46.393  55.737  1.00  0.00     0.012 A 
ENDROOT
BRANCH   3   7
HETATM    7  N   UNL     1      28.148  43.528  52.648  1.00  0.00    -0.324 N 
HETATM    8  C   UNL     1      27.043  43.034  51.983  1.00  0.00     0.245 C 
HETATM    9  O   UNL     1      25.875  43.366  52.136  1.00  0.00    -0.268 OA
HETATM   10  H   UNL     1      29.047  43.136  52.405  1.00  0.00     0.169 HD
BRANCH   8  11
HETATM   11  C   UNL     1      27.416  41.983  50.998  1.00  0.00     0.077 C 
HETATM   12  C   UNL     1      28.204  40.967  51.379  1.00  0.00     0.042 C 
BRANCH  12  13
HETATM   13  C   UNL     1      28.582  39.953  50.457  1.00  0.00     0.075 A 
HETATM   14  O   UNL     1      29.261  38.805  50.804  1.00  0.00    -0.323 OA
HETATM   15  C   UNL     1      29.454  38.066  49.684  1.00  0.00     0.142 A 
HETATM   16  C   UNL     1      28.916  38.700  48.595  1.00  0.00     0.027 A 
HETATM   17  C   UNL     1      28.360  39.905  49.085  1.00  0.00     0.039 A 
ENDBRANCH  12  13
ENDBRANCH   8  11
ENDBRANCH   3   7
BRANCH   5  18
HETATM   18  C   UNL     1      30.154  45.087  56.813  1.00  0.00     0.010 A 
HETATM   19  C   UNL     1      31.155  44.103  56.985  1.00  0.00     0.152 A 
HETATM   20  N   UNL     1      31.838  44.252  58.124  1.00  0.00    -0.187 NA
HETATM   21  N   UNL     1      31.278  45.334  58.686  1.00  0.00    -0.289 N 
HETATM   22  H   UNL     1      31.635  45.651  59.582  1.00  0.00     0.188 HD
HETATM   23  C   UNL     1      30.265  45.869  57.943  1.00  0.00     0.123 A 
ENDBRANCH   5  18
TORSDOF 4
ENDMDL
MODEL 6
REMARK VINA RESULT:      -7.6      3.140      4.040
REMARK  4 active torsions:
REMARK  status: ('A' for Active; 'I' for Inactive)
REMARK    1  A    between atoms: C_3  and  N_4 
REMARK       I    between atoms: N_4  and  C_5 
REMARK    2  A    between atoms: C_5  and  C_6 
REMARK    3  A    between atoms: C_7  and  C_8 
REMARK    4  A    between atoms: C_15  and  C_16 
ROOT
HETATM    1  C   UNL     1      27.673  47.023  55.137  1.00  0.00     0.003 A 
HETATM    2  C   UNL     1      27.128  46.324  54.057  1.00  0.00     0.029 A 
HETATM    3  C   UNL     1      27.597  45.053  53.730  1.00  0.00     0.035 A 
HETATM    4  C   UNL     1      28.627  44.490  54.503  1.00  0.00     0.042 A 
HETATM    5  C   UNL     1      29.181  45.180  55.593  1.00  0.00    -0.021 A 
HETATM    6  C   UNL     1      28.693  46.454  55.900  1.00  0.00     0.012 A 
ENDROOT
BRANCH   3   7
HETATM    7  N   UNL     1      27.098  44.278  52.660  1.00  0.00    -0.324 N 
HETATM    8  C   UNL     1      25.793  43.875  52.456  1.00  0.00     0.245 C 
HETATM    9  O   UNL     1      24.822  44.118  53.161  1.00  0.00    -0.268 OA
HETATM   10  H   UNL     1      27.785  43.981  51.980  1.00  0.00     0.169 HD
BRANCH   8  11
HETATM   11  C   UNL     1      25.655  43.056  51.221  1.00  0.00     0.077 C 
HETATM   12  C   UNL     1      26.705  42.911  50.401  1.00  0.00     0.042 C 
BRANCH  12  13
HETATM   13  C   UNL     1      26.599  42.141  49.211  1.00  0.00     0.075 A 
HETATM   14  O   UNL     1      27.674  41.761  48.436  1.00  0.00    -0.323 OA
HETATM   15  C   UNL     1      27.212  41.040  47.386  1.00  0.00     0.142 A 
HETATM   16  C   UNL     1      25.847  40.930  47.445  1.00  0.00     0.027 A 
HETATM   17  C   UNL     1      25.454  41.632  48.609  1.00  0.00     0.039 A 
ENDBRANCH  12  13
ENDBRANCH   8  11
ENDBRANCH   3   7
BRANCH   5  18
HETATM   18  C   UNL     1      30.246  44.574  56.375  1.00  0.00     0.010 A 
HETATM   19  C   UNL     1      30.796  44.936  57.627  1.00  0.00     0.152 A 
HETATM   20  N   UNL     1      31.790  44.130  58.010  1.00  0.00    -0.187 NA
HETATM   21  N   UNL     1      31.881  43.246  57.005  1.00  0.00    -0.289 N 
HETATM   22  H   UNL     1      32.584  42.516  57.067  1.00  0.00     0.188 HD
HETATM   23  C   UNL     1      30.981  43.469  56.002  1.00  0.00     0.123 A 
ENDBRANCH   5  18
TORSDOF 4
ENDMDL
MODEL 7
REMARK VINA RESULT:      -7.4      2.859      8.365
REMARK  4 active torsions:
REMARK  status: ('A' for Active; 'I' for Inactive)
REMARK    1  A    between atoms: C_3  and  N_4 
REMARK       I    between atoms: N_4  and  C_5 
REMARK    2  A    between atoms: C_5  and  C_6 
REMARK    3  A    between atoms: C_7  and  C_8 
REMARK    4  A    between atoms: C_15  and  C_16 
ROOT
HETATM    1  C   UNL     1      25.124  47.255  50.646  1.00  0.00     0.003 A 
HETATM    2  C   UNL     1      25.943  47.110  51.768  1.00  0.00     0.029 A 
HETATM    3  C   UNL     1      26.178  45.847  52.311  1.00  0.00     0.035 A 
HETATM    4  C   UNL     1      25.575  44.728  51.712  1.00  0.00     0.042 A 
HETATM    5  C   UNL     1      24.753  44.860  50.581  1.00  0.00    -0.021 A 
HETATM    6  C   UNL     1      24.533  46.138  50.056  1.00  0.00     0.012 A 
ENDROOT
BRANCH   3   7
HETATM    7  N   UNL     1      26.996  45.612  53.438  1.00  0.00    -0.324 N 
HETATM    8  C   UNL     1      26.928  46.236  54.667  1.00  0.00     0.245 C 
HETATM    9  O   UNL     1      26.141  47.107  55.015  1.00  0.00    -0.268 OA
HETATM   10  H   UNL     1      27.717  44.914  53.313  1.00  0.00     0.169 HD
BRANCH   8  11
HETATM   11  C   UNL     1      27.968  45.729  55.603  1.00  0.00     0.077 C 
HETATM   12  C   UNL     1      29.020  45.053  55.120  1.00  0.00     0.042 C 
BRANCH  12  13
HETATM   13  C   UNL     1      30.026  44.551  55.991  1.00  0.00     0.075 A 
HETATM   14  O   UNL     1      30.347  45.113  57.208  1.00  0.00    -0.323 OA
HETATM   15  C   UNL     1      31.341  44.382  57.768  1.00  0.00     0.142 A 
HETATM   16  C   UNL     1      31.690  43.341  56.947  1.00  0.00     0.027 A 
HETATM   17  C   UNL     1      30.852  43.448  55.812  1.00  0.00     0.039 A 
ENDBRANCH  12  13
ENDBRANCH   8  11
ENDBRANCH   3   7
BRANCH   5  18
HETATM   18  C   UNL     1      24.142  43.685  49.981  1.00  0.00     0.010 A 
HETATM   19  C   UNL     1      22.786  43.294  49.886  1.00  0.00     0.152 A 
HETATM   20  N   UNL     1      22.628  42.119  49.269  1.00  0.00    -0.187 NA
HETATM   21  N   UNL     1      23.882  41.753  48.966  1.00  0.00    -0.289 N 
HETATM   22  H   UNL     1      24.024  40.871  48.484  1.00  0.00     0.188 HD
HETATM   23  C   UNL     1      24.825  42.654  49.372  1.00  0.00     0.123 A 
ENDBRANCH   5  18
TORSDOF 4
ENDMDL
MODEL 8
REMARK VINA RESULT:      -7.4      3.756      9.071
REMARK  4 active torsions:
REMARK  status: ('A' for Active; 'I' for Inactive)
REMARK    1  A    between atoms: C_3  and  N_4 
REMARK       I    between atoms: N_4  and  C_5 
REMARK    2  A    between atoms: C_5  and  C_6 
REMARK    3  A    between atoms: C_7  and  C_8 
REMARK    4  A    between atoms: C_15  and  C_16 
ROOT
HETATM    1  C   UNL     1      26.502  49.762  48.422  1.00  0.00     0.003 A 
HETATM    2  C   UNL     1      26.892  48.723  49.272  1.00  0.00     0.029 A 
HETATM    3  C   UNL     1      25.937  47.880  49.838  1.00  0.00     0.035 A 
HETATM    4  C   UNL     1      24.580  48.096  49.543  1.00  0.00     0.042 A 
HETATM    5  C   UNL     1      24.176  49.133  48.688  1.00  0.00    -0.021 A 
HETATM    6  C   UNL     1      25.153  49.965  48.132  1.00  0.00     0.012 A 
ENDROOT
BRANCH   3   7
HETATM    7  N   UNL     1      26.245  46.805  50.701  1.00  0.00    -0.324 N 
HETATM    8  C   UNL     1      25.979  46.712  52.052  1.00  0.00     0.245 C 
HETATM    9  O   UNL     1      25.421  47.543  52.757  1.00  0.00    -0.268 OA
HETATM   10  H   UNL     1      26.725  46.026  50.270  1.00  0.00     0.169 HD
BRANCH   8  11
HETATM   11  C   UNL     1      26.468  45.429  52.625  1.00  0.00     0.077 C 
HETATM   12  C   UNL     1      27.157  44.578  51.851  1.00  0.00     0.042 C 
BRANCH  12  13
HETATM   13  C   UNL     1      27.629  43.341  52.369  1.00  0.00     0.075 A 
HETATM   14  O   UNL     1      27.643  42.159  51.660  1.00  0.00    -0.323 OA
HETATM   15  C   UNL     1      28.156  41.189  52.455  1.00  0.00     0.142 A 
HETATM   16  C   UNL     1      28.486  41.701  53.683  1.00  0.00     0.027 A 
HETATM   17  C   UNL     1      28.149  43.075  53.631  1.00  0.00     0.039 A 
ENDBRANCH  12  13
ENDBRANCH   8  11
ENDBRANCH   3   7
BRANCH   5  18
HETATM   18  C   UNL     1      22.765  49.333  48.398  1.00  0.00     0.010 A 
HETATM   19  C   UNL     1      21.631  48.565  48.749  1.00  0.00     0.152 A 
HETATM   20  N   UNL     1      20.491  49.075  48.272  1.00  0.00    -0.187 NA
HETATM   21  N   UNL     1      20.891  50.173  47.614  1.00  0.00    -0.289 N 
HETATM   22  H   UNL     1      20.188  50.742  47.154  1.00  0.00     0.188 HD
HETATM   23  C   UNL     1      22.241  50.372  47.658  1.00  0.00     0.123 A 
ENDBRANCH   5  18
TORSDOF 4
ENDMDL
MODEL 9
REMARK VINA RESULT:      -7.2     13.647     15.748
REMARK  4 active torsions:
REMARK  status: ('A' for Active; 'I' for Inactive)
REMARK    1  A    between atoms: C_3  and  N_4 
REMARK       I    between atoms: N_4  and  C_5 
REMARK    2  A    between atoms: C_5  and  C_6 
REMARK    3  A    between atoms: C_7  and  C_8 
REMARK    4  A    between atoms: C_15  and  C_16 
ROOT
HETATM    1  C   UNL     1      32.002  48.632  40.814  1.00  0.00     0.003 A 
HETATM    2  C   UNL     1      33.002  49.146  41.644  1.00  0.00     0.029 A 
HETATM    3  C   UNL     1      32.771  50.297  42.396  1.00  0.00     0.035 A 
HETATM    4  C   UNL     1      31.520  50.929  42.303  1.00  0.00     0.042 A 
HETATM    5  C   UNL     1      30.505  50.420  41.476  1.00  0.00    -0.021 A 
HETATM    6  C   UNL     1      30.761  49.264  40.732  1.00  0.00     0.012 A 
ENDROOT
BRANCH   3   7
HETATM    7  N   UNL     1      33.724  50.878  43.261  1.00  0.00    -0.324 N 
HETATM    8  C   UNL     1      34.763  51.721  42.919  1.00  0.00     0.245 C 
HETATM    9  O   UNL     1      35.050  52.127  41.802  1.00  0.00    -0.268 OA
HETATM   10  H   UNL     1      33.631  50.632  44.238  1.00  0.00     0.169 HD
BRANCH   8  11
HETATM   11  C   UNL     1      35.566  52.118  44.107  1.00  0.00     0.077 C 
HETATM   12  C   UNL     1      36.539  53.030  43.973  1.00  0.00     0.042 C 
BRANCH  12  13
HETATM   13  C   UNL     1      37.328  53.423  45.089  1.00  0.00     0.075 A 
HETATM   14  O   UNL     1      37.923  52.542  45.966  1.00  0.00    -0.323 OA
HETATM   15  C   UNL     1      38.594  53.256  46.902  1.00  0.00     0.142 A 
HETATM   16  C   UNL     1      38.458  54.600  46.667  1.00  0.00     0.027 A 
HETATM   17  C   UNL     1      37.649  54.708  45.511  1.00  0.00     0.039 A 
ENDBRANCH  12  13
ENDBRANCH   8  11
ENDBRANCH   3   7
BRANCH   5  18
HETATM   18  C   UNL     1      29.220  51.095  41.400  1.00  0.00     0.010 A 
HETATM   19  C   UNL     1      28.884  52.464  41.514  1.00  0.00     0.152 A 
HETATM   20  N   UNL     1      27.572  52.688  41.404  1.00  0.00    -0.187 NA
HETATM   21  N   UNL     1      27.060  51.462  41.218  1.00  0.00    -0.289 N 
HETATM   22  H   UNL     1      26.055  51.371  41.108  1.00  0.00     0.188 HD
HETATM   23  C   UNL     1      28.003  50.475  41.209  1.00  0.00     0.123 A 
ENDBRANCH   5  18
TORSDOF 4
ENDMDL
MODEL 10
REMARK VINA RESULT:      -7.1      5.802     11.814
REMARK  4 active torsions:
REMARK  status: ('A' for Active; 'I' for Inactive)
REMARK    1  A    between atoms: C_3  and  N_4 
REMARK       I    between atoms: N_4  and  C_5 
REMARK    2  A    between atoms: C_5  and  C_6 
REMARK    3  A    between atoms: C_7  and  C_8 
REMARK    4  A    between atoms: C_15  and  C_16 
ROOT
HETATM    1  C   UNL     1      19.580  52.114  48.483  1.00  0.00     0.003 A 
HETATM    2  C   UNL     1      20.803  51.524  48.812  1.00  0.00     0.029 A 
HETATM    3  C   UNL     1      20.913  50.138  48.912  1.00  0.00     0.035 A 
HETATM    4  C   UNL     1      19.774  49.348  48.679  1.00  0.00     0.042 A 
HETATM    5  C   UNL     1      18.540  49.928  48.344  1.00  0.00    -0.021 A 
HETATM    6  C   UNL     1      18.456  51.321  48.250  1.00  0.00     0.012 A 
ENDROOT
BRANCH   3   7
HETATM    7  N   UNL     1      22.111  49.462  49.233  1.00  0.00    -0.324 N 
HETATM    8  C   UNL     1      23.260  49.388  48.473  1.00  0.00     0.245 C 
HETATM    9  O   UNL     1      23.460  49.899  47.379  1.00  0.00    -0.268 OA
HETATM   10  H   UNL     1      22.109  48.971  50.118  1.00  0.00     0.169 HD
BRANCH   8  11
HETATM   11  C   UNL     1      24.312  48.571  49.138  1.00  0.00     0.077 C 
HETATM   12  C   UNL     1      23.972  47.434  49.760  1.00  0.00     0.042 C 
BRANCH  12  13
HETATM   13  C   UNL     1      24.954  46.638  50.411  1.00  0.00     0.075 A 
HETATM   14  O   UNL     1      25.730  45.693  49.775  1.00  0.00    -0.323 OA
HETATM   15  C   UNL     1      26.555  45.129  50.690  1.00  0.00     0.142 A 
HETATM   16  C   UNL     1      26.344  45.680  51.927  1.00  0.00     0.027 A 
HETATM   17  C   UNL     1      25.322  46.643  51.751  1.00  0.00     0.039 A 
ENDBRANCH  12  13
ENDBRANCH   8  11
ENDBRANCH   3   7
BRANCH   5  18
HETATM   18  C   UNL     1      17.378  49.087  48.108  1.00  0.00     0.010 A 
HETATM   19  C   UNL     1      16.000  49.402  48.072  1.00  0.00     0.152 A 
HETATM   20  N   UNL     1      15.230  48.335  47.843  1.00  0.00    -0.187 NA
HETATM   21  N   UNL     1      16.112  47.331  47.730  1.00  0.00    -0.289 N 
HETATM   22  H   UNL     1      15.758  46.396  47.552  1.00  0.00     0.188 HD
HETATM   23  C   UNL     1      17.409  47.727  47.883  1.00  0.00     0.123 A 
ENDBRANCH   5  18
TORSDOF 4
ENDMDL
