MODEL 1
REMARK VINA RESULT:      -9.8      0.000      0.000
REMARK  5 active torsions:
REMARK  status: ('A' for Active; 'I' for Inactive)
REMARK    1  A    between atoms: C_4  and  C_5 
REMARK    2  A    between atoms: C_5  and  C_6 
REMARK    3  A    between atoms: C_6  and  N_7 
REMARK       I    between atoms: N_7  and  C_8 
REMARK       I    between atoms: C_8  and  N_9 
REMARK    4  A    between atoms: N_9  and  N_10 
REMARK       I    between atoms: N_10  and  C_11 
REMARK    5  A    between atoms: C_11  and  C_12 
ROOT
HETATM    1  N   UNL     1      27.412  44.248  51.551  1.00  0.00    -0.341 N 
HETATM    2  C   UNL     1      26.532  43.440  50.869  1.00  0.00     0.334 C 
HETATM    3  N   UNL     1      25.818  44.091  49.897  1.00  0.00    -0.249 N 
HETATM    4  O   UNL     1      26.384  42.242  51.082  1.00  0.00    -0.246 OA
HETATM    5  H   UNL     1      27.040  45.184  51.639  1.00  0.00     0.164 HD
HETATM    6  H   UNL     1      25.084  43.586  49.405  1.00  0.00     0.192 HD
ENDROOT
BRANCH   3   7
HETATM    7  N   UNL     1      26.060  45.424  49.532  1.00  0.00    -0.262 N 
HETATM    8  C   UNL     1      25.287  46.400  50.145  1.00  0.00     0.272 C 
HETATM    9  O   UNL     1      24.578  46.148  51.117  1.00  0.00    -0.266 OA
HETATM   10  H   UNL     1      26.395  45.567  48.587  1.00  0.00     0.190 HD
BRANCH   8  11
HETATM   11  C   UNL     1      25.351  47.728  49.531  1.00  0.00     0.061 A 
HETATM   12  C   UNL     1      24.237  48.490  49.029  1.00  0.00     0.008 A 
HETATM   13  C   UNL     1      24.735  49.689  48.521  1.00  0.00     0.043 A 
HETATM   14  C   UNL     1      22.845  48.266  48.957  1.00  0.00     0.015 A 
HETATM   15  C   UNL     1      23.917  50.671  47.947  1.00  0.00     0.030 A 
HETATM   16  N   UNL     1      26.095  49.672  48.706  1.00  0.00    -0.364 N 
HETATM   17  C   UNL     1      22.544  50.421  47.891  1.00  0.00     0.002 A 
HETATM   18  C   UNL     1      22.011  49.236  48.389  1.00  0.00     0.001 A 
HETATM   19  H   UNL     1      26.716  50.421  48.429  1.00  0.00     0.165 HD
HETATM   20  C   UNL     1      26.479  48.505  49.315  1.00  0.00     0.106 A 
ENDBRANCH   8  11
ENDBRANCH   3   7
BRANCH   1  21
HETATM   21  C   UNL     1      28.124  43.697  52.688  1.00  0.00     0.138 C 
BRANCH  21  22
HETATM   22  C   UNL     1      27.682  44.348  54.014  1.00  0.00     0.003 C 
HETATM   23  C   UNL     1      26.376  43.779  54.680  1.00  0.00     0.016 C 
HETATM   24  C   UNL     1      25.586  44.971  54.119  1.00  0.00     0.002 C 
HETATM   25  C   UNL     1      26.912  45.713  53.899  1.00  0.00     0.016 C 
BRANCH  22  26
HETATM   26  C   UNL     1      28.994  44.374  54.973  1.00  0.00    -0.048 A 
HETATM   27  C   UNL     1      29.913  43.303  55.004  1.00  0.00     0.008 A 
HETATM   28  C   UNL     1      31.027  43.303  55.847  1.00  0.00     0.001 A 
HETATM   29  C   UNL     1      31.258  44.381  56.694  1.00  0.00     0.000 A 
HETATM   30  C   UNL     1      30.374  45.454  56.697  1.00  0.00     0.001 A 
HETATM   31  C   UNL     1      29.260  45.445  55.851  1.00  0.00     0.008 A 
ENDBRANCH  22  26
ENDBRANCH  21  22
ENDBRANCH   1  21
TORSDOF 5
ENDMDL
MODEL 2
REMARK VINA RESULT:      -9.6      2.266      3.884
REMARK  5 active torsions:
REMARK  status: ('A' for Active; 'I' for Inactive)
REMARK    1  A    between atoms: C_4  and  C_5 
REMARK    2  A    between atoms: C_5  and  C_6 
REMARK    3  A    between atoms: C_6  and  N_7 
REMARK       I    between atoms: N_7  and  C_8 
REMARK       I    between atoms: C_8  and  N_9 
REMARK    4  A    between atoms: N_9  and  N_10 
REMARK       I    between atoms: N_10  and  C_11 
REMARK    5  A    between atoms: C_11  and  C_12 
ROOT
HETATM    1  N   UNL     1      26.844  42.348  52.918  1.00  0.00    -0.341 N 
HETATM    2  C   UNL     1      27.132  41.248  52.145  1.00  0.00     0.334 C 
HETATM    3  N   UNL     1      26.304  41.095  51.064  1.00  0.00    -0.249 N 
HETATM    4  O   UNL     1      28.045  40.462  52.371  1.00  0.00    -0.246 OA
HETATM    5  H   UNL     1      25.849  42.527  52.925  1.00  0.00     0.164 HD
HETATM    6  H   UNL     1      26.394  40.259  50.489  1.00  0.00     0.192 HD
ENDROOT
BRANCH   3   7
HETATM    7  N   UNL     1      25.340  42.047  50.696  1.00  0.00    -0.262 N 
HETATM    8  C   UNL     1      25.720  43.011  49.774  1.00  0.00     0.272 C 
HETATM    9  O   UNL     1      26.768  42.920  49.137  1.00  0.00    -0.266 OA
HETATM   10  H   UNL     1      24.652  42.271  51.405  1.00  0.00     0.190 HD
BRANCH   8  11
HETATM   11  C   UNL     1      24.808  44.148  49.644  1.00  0.00     0.061 A 
HETATM   12  C   UNL     1      25.175  45.541  49.651  1.00  0.00     0.008 A 
HETATM   13  C   UNL     1      24.007  46.290  49.511  1.00  0.00     0.043 A 
HETATM   14  C   UNL     1      26.398  46.235  49.769  1.00  0.00     0.015 A 
HETATM   15  C   UNL     1      23.999  47.691  49.483  1.00  0.00     0.030 A 
HETATM   16  N   UNL     1      22.965  45.401  49.416  1.00  0.00    -0.364 N 
HETATM   17  C   UNL     1      25.226  48.350  49.601  1.00  0.00     0.002 A 
HETATM   18  C   UNL     1      26.411  47.635  49.741  1.00  0.00     0.001 A 
HETATM   19  H   UNL     1      21.996  45.669  49.306  1.00  0.00     0.165 HD
HETATM   20  C   UNL     1      23.430  44.113  49.488  1.00  0.00     0.106 A 
ENDBRANCH   8  11
ENDBRANCH   3   7
BRANCH   1  21
HETATM   21  C   UNL     1      27.570  42.536  54.159  1.00  0.00     0.138 C 
BRANCH  21  22
HETATM   22  C   UNL     1      28.687  43.590  54.018  1.00  0.00     0.003 C 
HETATM   23  C   UNL     1      29.619  43.468  52.757  1.00  0.00     0.016 C 
HETATM   24  C   UNL     1      30.695  42.807  53.631  1.00  0.00     0.002 C 
HETATM   25  C   UNL     1      29.982  43.354  54.876  1.00  0.00     0.016 C 
BRANCH  22  26
HETATM   26  C   UNL     1      27.979  45.040  54.219  1.00  0.00    -0.048 A 
HETATM   27  C   UNL     1      26.913  45.465  53.398  1.00  0.00     0.008 A 
HETATM   28  C   UNL     1      26.318  46.721  53.544  1.00  0.00     0.001 A 
HETATM   29  C   UNL     1      26.776  47.598  54.520  1.00  0.00     0.000 A 
HETATM   30  C   UNL     1      27.828  47.219  55.345  1.00  0.00     0.001 A 
HETATM   31  C   UNL     1      28.419  45.961  55.192  1.00  0.00     0.008 A 
ENDBRANCH  22  26
ENDBRANCH  21  22
ENDBRANCH   1  21
TORSDOF 5
ENDMDL
MODEL 3
REMARK VINA RESULT:      -9.4      2.373      3.319
REMARK  5 active torsions:
REMARK  status: ('A' for Active; 'I' for Inactive)
REMARK    1  A    between atoms: C_4  and  C_5 
REMARK    2  A    between atoms: C_5  and  C_6 
REMARK    3  A    between atoms: C_6  and  N_7 
REMARK       I    between atoms: N_7  and  C_8 
REMARK       I    between atoms: C_8  and  N_9 
REMARK    4  A    between atoms: N_9  and  N_10 
REMARK       I    between atoms: N_10  and  C_11 
REMARK    5  A    between atoms: C_11  and  C_12 
ROOT
HETATM    1  N   UNL     1      27.912  43.043  52.431  1.00  0.00    -0.341 N 
HETATM    2  C   UNL     1      27.991  41.682  52.249  1.00  0.00     0.334 C 
HETATM    3  N   UNL     1      26.891  41.137  51.639  1.00  0.00    -0.249 N 
HETATM    4  O   UNL     1      28.948  40.993  52.583  1.00  0.00    -0.246 OA
HETATM    5  H   UNL     1      26.957  43.323  52.608  1.00  0.00     0.164 HD
HETATM    6  H   UNL     1      26.832  40.125  51.545  1.00  0.00     0.192 HD
ENDROOT
BRANCH   3   7
HETATM    7  N   UNL     1      25.842  41.910  51.118  1.00  0.00    -0.262 N 
HETATM    8  C   UNL     1      26.002  42.416  49.836  1.00  0.00     0.272 C 
HETATM    9  O   UNL     1      26.908  42.034  49.098  1.00  0.00    -0.266 OA
HETATM   10  H   UNL     1      25.298  42.427  51.799  1.00  0.00     0.190 HD
BRANCH   8  11
HETATM   11  C   UNL     1      25.042  43.450  49.446  1.00  0.00     0.061 A 
HETATM   12  C   UNL     1      25.109  44.848  49.787  1.00  0.00     0.008 A 
HETATM   13  C   UNL     1      23.999  45.478  49.226  1.00  0.00     0.043 A 
HETATM   14  C   UNL     1      26.016  45.637  50.528  1.00  0.00     0.015 A 
HETATM   15  C   UNL     1      23.749  46.849  49.368  1.00  0.00     0.030 A 
HETATM   16  N   UNL     1      23.279  44.514  48.564  1.00  0.00    -0.364 N 
HETATM   17  C   UNL     1      24.664  47.604  50.105  1.00  0.00     0.002 A 
HETATM   18  C   UNL     1      25.784  47.009  50.678  1.00  0.00     0.001 A 
HETATM   19  H   UNL     1      22.419  44.691  48.061  1.00  0.00     0.165 HD
HETATM   20  C   UNL     1      23.895  43.294  48.681  1.00  0.00     0.106 A 
ENDBRANCH   8  11
ENDBRANCH   3   7
BRANCH   1  21
HETATM   21  C   UNL     1      28.959  43.706  53.183  1.00  0.00     0.138 C 
BRANCH  21  22
HETATM   22  C   UNL     1      28.397  44.468  54.401  1.00  0.00     0.003 C 
HETATM   23  C   UNL     1      26.946  44.083  54.867  1.00  0.00     0.016 C 
HETATM   24  C   UNL     1      26.399  45.327  54.150  1.00  0.00     0.002 C 
HETATM   25  C   UNL     1      27.822  45.903  54.122  1.00  0.00     0.016 C 
BRANCH  22  26
HETATM   26  C   UNL     1      29.539  44.393  55.557  1.00  0.00    -0.048 A 
HETATM   27  C   UNL     1      30.463  43.329  55.619  1.00  0.00     0.008 A 
HETATM   28  C   UNL     1      31.428  43.241  56.626  1.00  0.00     0.001 A 
HETATM   29  C   UNL     1      31.498  44.219  57.610  1.00  0.00     0.000 A 
HETATM   30  C   UNL     1      30.601  45.282  57.587  1.00  0.00     0.001 A 
HETATM   31  C   UNL     1      29.637  45.362  56.577  1.00  0.00     0.008 A 
ENDBRANCH  22  26
ENDBRANCH  21  22
ENDBRANCH   1  21
TORSDOF 5
ENDMDL
MODEL 4
REMARK VINA RESULT:      -9.3      3.767      6.362
REMARK  5 active torsions:
REMARK  status: ('A' for Active; 'I' for Inactive)
REMARK    1  A    between atoms: C_4  and  C_5 
REMARK    2  A    between atoms: C_5  and  C_6 
REMARK    3  A    between atoms: C_6  and  N_7 
REMARK       I    between atoms: N_7  and  C_8 
REMARK       I    between atoms: C_8  and  N_9 
REMARK    4  A    between atoms: N_9  and  N_10 
REMARK       I    between atoms: N_10  and  C_11 
REMARK    5  A    between atoms: C_11  and  C_12 
ROOT
HETATM    1  N   UNL     1      27.261  44.249  52.852  1.00  0.00    -0.341 N 
HETATM    2  C   UNL     1      26.368  45.193  52.401  1.00  0.00     0.334 C 
HETATM    3  N   UNL     1      25.529  44.740  51.418  1.00  0.00    -0.249 N 
HETATM    4  O   UNL     1      26.299  46.340  52.828  1.00  0.00    -0.246 OA
HETATM    5  H   UNL     1      27.536  43.632  52.099  1.00  0.00     0.164 HD
HETATM    6  H   UNL     1      24.896  45.400  50.969  1.00  0.00     0.192 HD
ENDROOT
BRANCH   3   7
HETATM    7  N   UNL     1      25.485  43.400  51.004  1.00  0.00    -0.262 N 
HETATM    8  C   UNL     1      26.267  43.046  49.914  1.00  0.00     0.272 C 
HETATM    9  O   UNL     1      27.126  43.801  49.462  1.00  0.00    -0.266 OA
HETATM   10  H   UNL     1      24.612  42.916  51.176  1.00  0.00     0.190 HD
BRANCH   8  11
HETATM   11  C   UNL     1      25.973  41.737  49.330  1.00  0.00     0.061 A 
HETATM   12  C   UNL     1      26.919  40.679  49.088  1.00  0.00     0.008 A 
HETATM   13  C   UNL     1      26.229  39.611  48.514  1.00  0.00     0.043 A 
HETATM   14  C   UNL     1      28.307  40.532  49.302  1.00  0.00     0.015 A 
HETATM   15  C   UNL     1      26.851  38.412  48.145  1.00  0.00     0.030 A 
HETATM   16  N   UNL     1      24.913  39.990  48.410  1.00  0.00    -0.364 N 
HETATM   17  C   UNL     1      28.225  38.297  48.370  1.00  0.00     0.002 A 
HETATM   18  C   UNL     1      28.946  39.341  48.941  1.00  0.00     0.001 A 
HETATM   19  H   UNL     1      24.181  39.407  48.027  1.00  0.00     0.165 HD
HETATM   20  C   UNL     1      24.743  41.260  48.901  1.00  0.00     0.106 A 
ENDBRANCH   8  11
ENDBRANCH   3   7
BRANCH   1  21
HETATM   21  C   UNL     1      28.283  44.653  53.797  1.00  0.00     0.138 C 
BRANCH  21  22
HETATM   22  C   UNL     1      29.264  43.505  54.110  1.00  0.00     0.003 C 
HETATM   23  C   UNL     1      30.214  43.050  52.943  1.00  0.00     0.016 C 
HETATM   24  C   UNL     1      29.289  41.854  52.673  1.00  0.00     0.002 C 
HETATM   25  C   UNL     1      28.672  42.050  54.065  1.00  0.00     0.016 C 
BRANCH  22  26
HETATM   26  C   UNL     1      30.012  43.904  55.497  1.00  0.00    -0.048 A 
HETATM   27  C   UNL     1      29.751  45.124  56.157  1.00  0.00     0.008 A 
HETATM   28  C   UNL     1      30.411  45.489  57.333  1.00  0.00     0.001 A 
HETATM   29  C   UNL     1      31.361  44.641  57.890  1.00  0.00     0.000 A 
HETATM   30  C   UNL     1      31.651  43.432  57.267  1.00  0.00     0.001 A 
HETATM   31  C   UNL     1      30.987  43.074  56.089  1.00  0.00     0.008 A 
ENDBRANCH  22  26
ENDBRANCH  21  22
ENDBRANCH   1  21
TORSDOF 5
ENDMDL
MODEL 5
REMARK VINA RESULT:      -9.3      2.715      9.550
REMARK  5 active torsions:
REMARK  status: ('A' for Active; 'I' for Inactive)
REMARK    1  A    between atoms: C_4  and  C_5 
REMARK    2  A    between atoms: C_5  and  C_6 
REMARK    3  A    between atoms: C_6  and  N_7 
REMARK       I    between atoms: N_7  and  C_8 
REMARK       I    between atoms: C_8  and  N_9 
REMARK    4  A    between atoms: N_9  and  N_10 
REMARK       I    between atoms: N_10  and  C_11 
REMARK    5  A    between atoms: C_11  and  C_12 
ROOT
HETATM    1  N   UNL     1      22.156  47.790  49.427  1.00  0.00    -0.341 N 
HETATM    2  C   UNL     1      22.787  46.920  48.570  1.00  0.00     0.334 C 
HETATM    3  N   UNL     1      23.889  46.310  49.108  1.00  0.00    -0.249 N 
HETATM    4  O   UNL     1      22.415  46.683  47.426  1.00  0.00    -0.246 OA
HETATM    5  H   UNL     1      22.828  48.245  50.031  1.00  0.00     0.164 HD
HETATM    6  H   UNL     1      24.464  45.717  48.512  1.00  0.00     0.192 HD
ENDROOT
BRANCH   3   7
HETATM    7  N   UNL     1      24.262  46.449  50.454  1.00  0.00    -0.262 N 
HETATM    8  C   UNL     1      25.618  46.550  50.730  1.00  0.00     0.272 C 
HETATM    9  O   UNL     1      26.447  46.732  49.841  1.00  0.00    -0.266 OA
HETATM   10  H   UNL     1      23.641  46.018  51.128  1.00  0.00     0.190 HD
BRANCH   8  11
HETATM   11  C   UNL     1      25.984  46.391  52.138  1.00  0.00     0.061 A 
HETATM   12  C   UNL     1      26.813  45.351  52.691  1.00  0.00     0.008 A 
HETATM   13  C   UNL     1      26.902  45.562  54.067  1.00  0.00     0.043 A 
HETATM   14  C   UNL     1      27.496  44.242  52.145  1.00  0.00     0.015 A 
HETATM   15  C   UNL     1      27.634  44.727  54.920  1.00  0.00     0.030 A 
HETATM   16  N   UNL     1      26.165  46.686  54.352  1.00  0.00    -0.364 N 
HETATM   17  C   UNL     1      28.300  43.639  54.350  1.00  0.00     0.002 A 
HETATM   18  C   UNL     1      28.234  43.397  52.981  1.00  0.00     0.001 A 
HETATM   19  H   UNL     1      26.054  47.073  55.279  1.00  0.00     0.165 HD
HETATM   20  C   UNL     1      25.613  47.197  53.205  1.00  0.00     0.106 A 
ENDBRANCH   8  11
ENDBRANCH   3   7
BRANCH   1  21
HETATM   21  C   UNL     1      21.057  48.590  48.922  1.00  0.00     0.138 C 
BRANCH  21  22
HETATM   22  C   UNL     1      21.425  50.085  48.836  1.00  0.00     0.003 C 
HETATM   23  C   UNL     1      22.311  50.526  47.614  1.00  0.00     0.016 C 
HETATM   24  C   UNL     1      23.547  50.528  48.526  1.00  0.00     0.002 C 
HETATM   25  C   UNL     1      22.615  50.564  49.745  1.00  0.00     0.016 C 
BRANCH  22  26
HETATM   26  C   UNL     1      20.038  50.913  49.021  1.00  0.00    -0.048 A 
HETATM   27  C   UNL     1      19.008  50.455  49.870  1.00  0.00     0.008 A 
HETATM   28  C   UNL     1      17.801  51.143  50.012  1.00  0.00     0.001 A 
HETATM   29  C   UNL     1      17.582  52.318  49.302  1.00  0.00     0.000 A 
HETATM   30  C   UNL     1      18.570  52.800  48.450  1.00  0.00     0.001 A 
HETATM   31  C   UNL     1      19.776  52.104  48.313  1.00  0.00     0.008 A 
ENDBRANCH  22  26
ENDBRANCH  21  22
ENDBRANCH   1  21
TORSDOF 5
ENDMDL
MODEL 6
REMARK VINA RESULT:      -9.2      2.771      4.609
REMARK  5 active torsions:
REMARK  status: ('A' for Active; 'I' for Inactive)
REMARK    1  A    between atoms: C_4  and  C_5 
REMARK    2  A    between atoms: C_5  and  C_6 
REMARK    3  A    between atoms: C_6  and  N_7 
REMARK       I    between atoms: N_7  and  C_8 
REMARK       I    between atoms: C_8  and  N_9 
REMARK    4  A    between atoms: N_9  and  N_10 
REMARK       I    between atoms: N_10  and  C_11 
REMARK    5  A    between atoms: C_11  and  C_12 
ROOT
HETATM    1  N   UNL     1      25.597  46.928  50.002  1.00  0.00    -0.341 N 
HETATM    2  C   UNL     1      26.039  48.161  49.582  1.00  0.00     0.334 C 
HETATM    3  N   UNL     1      25.045  48.978  49.110  1.00  0.00    -0.249 N 
HETATM    4  O   UNL     1      27.207  48.528  49.623  1.00  0.00    -0.246 OA
HETATM    5  H   UNL     1      24.817  46.619  49.437  1.00  0.00     0.164 HD
HETATM    6  H   UNL     1      25.299  49.875  48.700  1.00  0.00     0.192 HD
ENDROOT
BRANCH   3   7
HETATM    7  N   UNL     1      23.684  48.645  49.178  1.00  0.00    -0.262 N 
HETATM    8  C   UNL     1      22.832  49.271  48.279  1.00  0.00     0.272 C 
HETATM    9  O   UNL     1      23.260  49.916  47.324  1.00  0.00    -0.266 OA
HETATM   10  H   UNL     1      23.342  48.379  50.094  1.00  0.00     0.190 HD
BRANCH   8  11
HETATM   11  C   UNL     1      21.404  49.136  48.570  1.00  0.00     0.061 A 
HETATM   12  C   UNL     1      20.441  50.206  48.634  1.00  0.00     0.008 A 
HETATM   13  C   UNL     1      19.202  49.647  48.946  1.00  0.00     0.043 A 
HETATM   14  C   UNL     1      20.513  51.605  48.457  1.00  0.00     0.015 A 
HETATM   15  C   UNL     1      18.037  50.411  49.091  1.00  0.00     0.030 A 
HETATM   16  N   UNL     1      19.388  48.292  49.065  1.00  0.00    -0.364 N 
HETATM   17  C   UNL     1      18.139  51.792  48.909  1.00  0.00     0.002 A 
HETATM   18  C   UNL     1      19.359  52.384  48.595  1.00  0.00     0.001 A 
HETATM   19  H   UNL     1      18.654  47.634  49.289  1.00  0.00     0.165 HD
HETATM   20  C   UNL     1      20.702  47.969  48.837  1.00  0.00     0.106 A 
ENDBRANCH   8  11
ENDBRANCH   3   7
BRANCH   1  21
HETATM   21  C   UNL     1      26.576  45.935  50.397  1.00  0.00     0.138 C 
BRANCH  21  22
HETATM   22  C   UNL     1      26.073  45.064  51.566  1.00  0.00     0.003 C 
HETATM   23  C   UNL     1      26.202  43.506  51.392  1.00  0.00     0.016 C 
HETATM   24  C   UNL     1      24.712  43.437  51.024  1.00  0.00     0.002 C 
HETATM   25  C   UNL     1      24.521  44.829  51.643  1.00  0.00     0.016 C 
BRANCH  22  26
HETATM   26  C   UNL     1      26.749  45.668  52.915  1.00  0.00    -0.048 A 
HETATM   27  C   UNL     1      26.511  46.995  53.334  1.00  0.00     0.008 A 
HETATM   28  C   UNL     1      27.110  47.532  54.476  1.00  0.00     0.001 A 
HETATM   29  C   UNL     1      27.975  46.756  55.238  1.00  0.00     0.000 A 
HETATM   30  C   UNL     1      28.240  45.445  54.856  1.00  0.00     0.001 A 
HETATM   31  C   UNL     1      27.636  44.915  53.712  1.00  0.00     0.008 A 
ENDBRANCH  22  26
ENDBRANCH  21  22
ENDBRANCH   1  21
TORSDOF 5
ENDMDL
MODEL 7
REMARK VINA RESULT:      -9.2      3.163      7.876
REMARK  5 active torsions:
REMARK  status: ('A' for Active; 'I' for Inactive)
REMARK    1  A    between atoms: C_4  and  C_5 
REMARK    2  A    between atoms: C_5  and  C_6 
REMARK    3  A    between atoms: C_6  and  N_7 
REMARK       I    between atoms: N_7  and  C_8 
REMARK       I    between atoms: C_8  and  N_9 
REMARK    4  A    between atoms: N_9  and  N_10 
REMARK       I    between atoms: N_10  and  C_11 
REMARK    5  A    between atoms: C_11  and  C_12 
ROOT
HETATM    1  N   UNL     1      26.532  42.619  50.951  1.00  0.00    -0.341 N 
HETATM    2  C   UNL     1      27.140  41.441  51.318  1.00  0.00     0.334 C 
HETATM    3  N   UNL     1      27.908  41.540  52.448  1.00  0.00    -0.249 N 
HETATM    4  O   UNL     1      27.016  40.381  50.715  1.00  0.00    -0.246 OA
HETATM    5  H   UNL     1      27.120  43.409  51.180  1.00  0.00     0.164 HD
HETATM    6  H   UNL     1      28.461  40.736  52.739  1.00  0.00     0.192 HD
ENDROOT
BRANCH   3   7
HETATM    7  N   UNL     1      27.960  42.697  53.240  1.00  0.00    -0.262 N 
HETATM    8  C   UNL     1      29.214  43.225  53.511  1.00  0.00     0.272 C 
HETATM    9  O   UNL     1      30.220  42.842  52.916  1.00  0.00    -0.266 OA
HETATM   10  H   UNL     1      27.213  42.799  53.917  1.00  0.00     0.190 HD
BRANCH   8  11
HETATM   11  C   UNL     1      29.254  44.234  54.570  1.00  0.00     0.061 A 
HETATM   12  C   UNL     1      30.103  44.216  55.734  1.00  0.00     0.008 A 
HETATM   13  C   UNL     1      29.818  45.355  56.487  1.00  0.00     0.043 A 
HETATM   14  C   UNL     1      31.090  43.330  56.218  1.00  0.00     0.015 A 
HETATM   15  C   UNL     1      30.465  45.650  57.694  1.00  0.00     0.030 A 
HETATM   16  N   UNL     1      28.840  46.048  55.818  1.00  0.00    -0.364 N 
HETATM   17  C   UNL     1      31.437  44.755  58.147  1.00  0.00     0.002 A 
HETATM   18  C   UNL     1      31.748  43.610  57.421  1.00  0.00     0.001 A 
HETATM   19  H   UNL     1      28.440  46.920  56.139  1.00  0.00     0.165 HD
HETATM   20  C   UNL     1      28.496  45.392  54.664  1.00  0.00     0.106 A 
ENDBRANCH   8  11
ENDBRANCH   3   7
BRANCH   1  21
HETATM   21  C   UNL     1      25.802  42.664  49.699  1.00  0.00     0.138 C 
BRANCH  21  22
HETATM   22  C   UNL     1      24.618  43.651  49.759  1.00  0.00     0.003 C 
HETATM   23  C   UNL     1      23.230  43.062  50.205  1.00  0.00     0.016 C 
HETATM   24  C   UNL     1      22.792  43.012  48.733  1.00  0.00     0.002 C 
HETATM   25  C   UNL     1      23.924  43.992  48.391  1.00  0.00     0.016 C 
BRANCH  22  26
HETATM   26  C   UNL     1      25.132  44.935  50.612  1.00  0.00    -0.048 A 
HETATM   27  C   UNL     1      25.779  46.026  49.993  1.00  0.00     0.008 A 
HETATM   28  C   UNL     1      26.251  47.121  50.723  1.00  0.00     0.001 A 
HETATM   29  C   UNL     1      26.093  47.158  52.103  1.00  0.00     0.000 A 
HETATM   30  C   UNL     1      25.465  46.100  52.751  1.00  0.00     0.001 A 
HETATM   31  C   UNL     1      24.996  45.007  52.014  1.00  0.00     0.008 A 
ENDBRANCH  22  26
ENDBRANCH  21  22
ENDBRANCH   1  21
TORSDOF 5
ENDMDL
MODEL 8
REMARK VINA RESULT:      -9.1      2.197      3.651
REMARK  5 active torsions:
REMARK  status: ('A' for Active; 'I' for Inactive)
REMARK    1  A    between atoms: C_4  and  C_5 
REMARK    2  A    between atoms: C_5  and  C_6 
REMARK    3  A    between atoms: C_6  and  N_7 
REMARK       I    between atoms: N_7  and  C_8 
REMARK       I    between atoms: C_8  and  N_9 
REMARK    4  A    between atoms: N_9  and  N_10 
REMARK       I    between atoms: N_10  and  C_11 
REMARK    5  A    between atoms: C_11  and  C_12 
ROOT
HETATM    1  N   UNL     1      24.972  45.426  51.714  1.00  0.00    -0.341 N 
HETATM    2  C   UNL     1      25.472  46.665  52.039  1.00  0.00     0.334 C 
HETATM    3  N   UNL     1      25.000  47.680  51.249  1.00  0.00    -0.249 N 
HETATM    4  O   UNL     1      26.262  46.876  52.951  1.00  0.00    -0.246 OA
HETATM    5  H   UNL     1      24.816  45.355  50.718  1.00  0.00     0.164 HD
HETATM    6  H   UNL     1      25.386  48.616  51.366  1.00  0.00     0.192 HD
ENDROOT
BRANCH   3   7
HETATM    7  N   UNL     1      23.992  47.499  50.289  1.00  0.00    -0.262 N 
HETATM    8  C   UNL     1      23.801  48.519  49.368  1.00  0.00     0.272 C 
HETATM    9  O   UNL     1      24.607  49.439  49.245  1.00  0.00    -0.266 OA
HETATM   10  H   UNL     1      23.206  46.929  50.580  1.00  0.00     0.190 HD
BRANCH   8  11
HETATM   11  C   UNL     1      22.566  48.435  48.586  1.00  0.00     0.061 A 
HETATM   12  C   UNL     1      21.596  49.485  48.411  1.00  0.00     0.008 A 
HETATM   13  C   UNL     1      20.571  48.988  47.606  1.00  0.00     0.043 A 
HETATM   14  C   UNL     1      21.495  50.817  48.867  1.00  0.00     0.015 A 
HETATM   15  C   UNL     1      19.455  49.751  47.237  1.00  0.00     0.030 A 
HETATM   16  N   UNL     1      20.895  47.691  47.294  1.00  0.00    -0.364 N 
HETATM   17  C   UNL     1      19.383  51.065  47.704  1.00  0.00     0.002 A 
HETATM   18  C   UNL     1      20.388  51.595  48.507  1.00  0.00     0.001 A 
HETATM   19  H   UNL     1      20.325  47.085  46.719  1.00  0.00     0.165 HD
HETATM   20  C   UNL     1      22.091  47.346  47.870  1.00  0.00     0.106 A 
ENDBRANCH   8  11
ENDBRANCH   3   7
BRANCH   1  21
HETATM   21  C   UNL     1      25.502  44.262  52.397  1.00  0.00     0.138 C 
BRANCH  21  22
HETATM   22  C   UNL     1      26.654  43.607  51.608  1.00  0.00     0.003 C 
HETATM   23  C   UNL     1      26.968  44.206  50.189  1.00  0.00     0.016 C 
HETATM   24  C   UNL     1      26.197  43.046  49.542  1.00  0.00     0.002 C 
HETATM   25  C   UNL     1      26.315  42.268  50.860  1.00  0.00     0.016 C 
BRANCH  22  26
HETATM   26  C   UNL     1      27.921  43.530  52.624  1.00  0.00    -0.048 A 
HETATM   27  C   UNL     1      29.107  42.846  52.280  1.00  0.00     0.008 A 
HETATM   28  C   UNL     1      30.190  42.750  53.158  1.00  0.00     0.001 A 
HETATM   29  C   UNL     1      30.119  43.335  54.417  1.00  0.00     0.000 A 
HETATM   30  C   UNL     1      28.966  44.013  54.796  1.00  0.00     0.001 A 
HETATM   31  C   UNL     1      27.886  44.105  53.912  1.00  0.00     0.008 A 
ENDBRANCH  22  26
ENDBRANCH  21  22
ENDBRANCH   1  21
TORSDOF 5
ENDMDL
MODEL 9
REMARK VINA RESULT:      -9.0      2.048      3.011
REMARK  5 active torsions:
REMARK  status: ('A' for Active; 'I' for Inactive)
REMARK    1  A    between atoms: C_4  and  C_5 
REMARK    2  A    between atoms: C_5  and  C_6 
REMARK    3  A    between atoms: C_6  and  N_7 
REMARK       I    between atoms: N_7  and  C_8 
REMARK       I    between atoms: C_8  and  N_9 
REMARK    4  A    between atoms: N_9  and  N_10 
REMARK       I    between atoms: N_10  and  C_11 
REMARK    5  A    between atoms: C_11  and  C_12 
ROOT
HETATM    1  N   UNL     1      24.582  44.642  51.697  1.00  0.00    -0.341 N 
HETATM    2  C   UNL     1      24.793  43.969  50.516  1.00  0.00     0.334 C 
HETATM    3  N   UNL     1      23.948  44.343  49.505  1.00  0.00    -0.249 N 
HETATM    4  O   UNL     1      25.657  43.116  50.350  1.00  0.00    -0.246 OA
HETATM    5  H   UNL     1      23.601  44.853  51.816  1.00  0.00     0.164 HD
HETATM    6  H   UNL     1      23.979  43.833  48.623  1.00  0.00     0.192 HD
ENDROOT
BRANCH   3   7
HETATM    7  N   UNL     1      23.043  45.410  49.616  1.00  0.00    -0.262 N 
HETATM    8  C   UNL     1      22.509  45.916  48.440  1.00  0.00     0.272 C 
HETATM    9  O   UNL     1      22.638  45.330  47.366  1.00  0.00    -0.266 OA
HETATM   10  H   UNL     1      23.185  46.024  50.410  1.00  0.00     0.190 HD
BRANCH   8  11
HETATM   11  C   UNL     1      21.819  47.201  48.566  1.00  0.00     0.061 A 
HETATM   12  C   UNL     1      22.432  48.503  48.542  1.00  0.00     0.008 A 
HETATM   13  C   UNL     1      21.423  49.453  48.702  1.00  0.00     0.043 A 
HETATM   14  C   UNL     1      23.760  48.964  48.401  1.00  0.00     0.015 A 
HETATM   15  C   UNL     1      21.672  50.831  48.729  1.00  0.00     0.030 A 
HETATM   16  N   UNL     1      20.238  48.768  48.815  1.00  0.00    -0.364 N 
HETATM   17  C   UNL     1      22.995  51.256  48.587  1.00  0.00     0.002 A 
HETATM   18  C   UNL     1      24.027  50.337  48.424  1.00  0.00     0.001 A 
HETATM   19  H   UNL     1      19.336  49.208  48.941  1.00  0.00     0.165 HD
HETATM   20  C   UNL     1      20.459  47.417  48.729  1.00  0.00     0.106 A 
ENDBRANCH   8  11
ENDBRANCH   3   7
BRANCH   1  21
HETATM   21  C   UNL     1      25.330  44.236  52.871  1.00  0.00     0.138 C 
BRANCH  21  22
HETATM   22  C   UNL     1      26.390  45.284  53.269  1.00  0.00     0.003 C 
HETATM   23  C   UNL     1      26.013  46.261  54.442  1.00  0.00     0.016 C 
HETATM   24  C   UNL     1      25.681  47.351  53.411  1.00  0.00     0.002 C 
HETATM   25  C   UNL     1      26.480  46.564  52.362  1.00  0.00     0.016 C 
BRANCH  22  26
HETATM   26  C   UNL     1      27.786  44.475  53.463  1.00  0.00    -0.048 A 
HETATM   27  C   UNL     1      28.346  43.701  52.424  1.00  0.00     0.008 A 
HETATM   28  C   UNL     1      29.530  42.978  52.591  1.00  0.00     0.001 A 
HETATM   29  C   UNL     1      30.195  43.004  53.812  1.00  0.00     0.000 A 
HETATM   30  C   UNL     1      29.673  43.751  54.862  1.00  0.00     0.001 A 
HETATM   31  C   UNL     1      28.487  44.471  54.687  1.00  0.00     0.008 A 
ENDBRANCH  22  26
ENDBRANCH  21  22
ENDBRANCH   1  21
TORSDOF 5
ENDMDL
MODEL 10
REMARK VINA RESULT:      -9.0     11.927     13.513
REMARK  5 active torsions:
REMARK  status: ('A' for Active; 'I' for Inactive)
REMARK    1  A    between atoms: C_4  and  C_5 
REMARK    2  A    between atoms: C_5  and  C_6 
REMARK    3  A    between atoms: C_6  and  N_7 
REMARK       I    between atoms: N_7  and  C_8 
REMARK       I    between atoms: C_8  and  N_9 
REMARK    4  A    between atoms: N_9  and  N_10 
REMARK       I    between atoms: N_10  and  C_11 
REMARK    5  A    between atoms: C_11  and  C_12 
ROOT
HETATM    1  N   UNL     1      27.306  48.486  39.121  1.00  0.00    -0.341 N 
HETATM    2  C   UNL     1      25.998  48.907  39.057  1.00  0.00     0.334 C 
HETATM    3  N   UNL     1      25.775  50.120  39.654  1.00  0.00    -0.249 N 
HETATM    4  O   UNL     1      25.095  48.281  38.514  1.00  0.00    -0.246 OA
HETATM    5  H   UNL     1      27.736  48.791  39.984  1.00  0.00     0.164 HD
HETATM    6  H   UNL     1      24.818  50.463  39.727  1.00  0.00     0.192 HD
ENDROOT
BRANCH   3   7
HETATM    7  N   UNL     1      26.805  50.926  40.160  1.00  0.00    -0.262 N 
HETATM    8  C   UNL     1      27.703  51.458  39.245  1.00  0.00     0.272 C 
HETATM    9  O   UNL     1      27.494  51.417  38.034  1.00  0.00    -0.266 OA
HETATM   10  H   UNL     1      27.114  50.706  41.100  1.00  0.00     0.190 HD
BRANCH   8  11
HETATM   11  C   UNL     1      28.919  52.033  39.822  1.00  0.00     0.061 A 
HETATM   12  C   UNL     1      30.263  51.847  39.338  1.00  0.00     0.008 A 
HETATM   13  C   UNL     1      31.121  52.557  40.177  1.00  0.00     0.043 A 
HETATM   14  C   UNL     1      30.830  51.133  38.259  1.00  0.00     0.015 A 
HETATM   15  C   UNL     1      32.510  52.590  39.994  1.00  0.00     0.030 A 
HETATM   16  N   UNL     1      30.343  53.160  41.134  1.00  0.00    -0.364 N 
HETATM   17  C   UNL     1      33.041  51.875  38.919  1.00  0.00     0.002 A 
HETATM   18  C   UNL     1      32.215  51.156  38.060  1.00  0.00     0.001 A 
HETATM   19  H   UNL     1      30.704  53.742  41.878  1.00  0.00     0.165 HD
HETATM   20  C   UNL     1      29.020  52.859  40.932  1.00  0.00     0.106 A 
ENDBRANCH   8  11
ENDBRANCH   3   7
BRANCH   1  21
HETATM   21  C   UNL     1      27.634  47.158  38.639  1.00  0.00     0.138 C 
BRANCH  21  22
HETATM   22  C   UNL     1      28.429  46.347  39.682  1.00  0.00     0.003 C 
HETATM   23  C   UNL     1      29.063  44.994  39.192  1.00  0.00     0.016 C 
HETATM   24  C   UNL     1      27.903  44.229  39.847  1.00  0.00     0.002 C 
HETATM   25  C   UNL     1      27.585  45.477  40.681  1.00  0.00     0.016 C 
BRANCH  22  26
HETATM   26  C   UNL     1      29.468  47.387  40.378  1.00  0.00    -0.048 A 
HETATM   27  C   UNL     1      30.796  47.527  39.921  1.00  0.00     0.008 A 
HETATM   28  C   UNL     1      31.704  48.396  40.531  1.00  0.00     0.001 A 
HETATM   29  C   UNL     1      31.311  49.155  41.628  1.00  0.00     0.000 A 
HETATM   30  C   UNL     1      30.013  49.041  42.112  1.00  0.00     0.001 A 
HETATM   31  C   UNL     1      29.110  48.169  41.496  1.00  0.00     0.008 A 
ENDBRANCH  22  26
ENDBRANCH  21  22
ENDBRANCH   1  21
TORSDOF 5
ENDMDL
