MODEL 1
REMARK VINA RESULT:      -9.4      0.000      0.000
REMARK  7 active torsions:
REMARK  status: ('A' for Active; 'I' for Inactive)
REMARK    1  A    between atoms: C_2  and  C_3 
REMARK    2  A    between atoms: C_4  and  O_5 
REMARK    3  A    between atoms: C_7  and  O_8 
REMARK    4  A    between atoms: C_9  and  C_10 
REMARK    5  A    between atoms: C_14  and  C_15 
REMARK    6  A    between atoms: C_19  and  C_20 
REMARK    7  A    between atoms: N_22  and  C_23 
ROOT
HETATM    1  C   UNL     1      27.244  42.569  52.254  1.00  0.00     0.103 A 
HETATM    2  N   UNL     1      27.177  41.226  52.156  1.00  0.00    -0.173 NA
HETATM    3  N   UNL     1      26.296  40.998  51.176  1.00  0.00    -0.272 N 
HETATM    4  H   UNL     1      26.109  40.033  50.915  1.00  0.00     0.189 HD
HETATM    5  C   UNL     1      25.734  42.125  50.665  1.00  0.00     0.147 A 
HETATM    6  C   UNL     1      26.310  43.173  51.352  1.00  0.00     0.042 A 
ENDROOT
BRANCH   1   7
HETATM    7  C   UNL     1      28.166  43.177  53.217  1.00  0.00     0.029 A 
HETATM    8  C   UNL     1      29.475  42.721  53.413  1.00  0.00     0.081 A 
HETATM    9  C   UNL     1      30.323  43.363  54.317  1.00  0.00     0.074 A 
HETATM   10  C   UNL     1      29.859  44.448  55.061  1.00  0.00     0.074 A 
HETATM   11  C   UNL     1      28.541  44.898  54.937  1.00  0.00    -0.024 A 
HETATM   12  C   UNL     1      27.712  44.257  53.997  1.00  0.00     0.026 A 
BRANCH   8  13
HETATM   13  O   UNL     1      29.936  41.627  52.733  1.00  0.00    -0.360 OA
HETATM   14  H   UNL     1      30.014  40.880  53.350  1.00  0.00     0.217 HD
ENDBRANCH   8  13
BRANCH  10  15
HETATM   15  O   UNL     1      30.768  45.018  55.906  1.00  0.00    -0.360 OA
HETATM   16  H   UNL     1      31.537  44.434  55.997  1.00  0.00     0.217 HD
ENDBRANCH  10  15
BRANCH  11  17
HETATM   17  C   UNL     1      27.966  46.029  55.753  1.00  0.00     0.037 C 
HETATM   18  C   UNL     1      27.667  47.253  54.901  1.00  0.00     0.010 C 
ENDBRANCH  11  17
ENDBRANCH   1   7
BRANCH   6  19
HETATM   19  C   UNL     1      26.013  44.589  51.190  1.00  0.00     0.016 A 
HETATM   20  C   UNL     1      26.409  45.429  50.178  1.00  0.00     0.132 A 
HETATM   21  N   UNL     1      25.920  46.684  50.479  1.00  0.00    -0.245 N 
HETATM   22  N   UNL     1      25.180  46.662  51.621  1.00  0.00    -0.179 NA
HETATM   23  C   UNL     1      25.246  45.398  52.042  1.00  0.00     0.153 A 
BRANCH  21  24
HETATM   24  C   UNL     1      26.123  47.896  49.760  1.00  0.00     0.058 A 
HETATM   25  C   UNL     1      25.048  48.599  49.198  1.00  0.00     0.031 A 
HETATM   26  C   UNL     1      25.279  49.780  48.485  1.00  0.00     0.002 A 
HETATM   27  C   UNL     1      26.576  50.262  48.326  1.00  0.00     0.000 A 
HETATM   28  C   UNL     1      27.649  49.570  48.882  1.00  0.00     0.002 A 
HETATM   29  C   UNL     1      27.426  48.392  49.598  1.00  0.00     0.031 A 
ENDBRANCH  21  24
ENDBRANCH   6  19
BRANCH   5  30
HETATM   30  C   UNL     1      24.715  42.033  49.618  1.00  0.00     0.435 C 
HETATM   31  F   UNL     1      25.021  42.830  48.560  1.00  0.00    -0.165 F 
HETATM   32  F   UNL     1      24.584  40.776  49.132  1.00  0.00    -0.165 F 
HETATM   33  F   UNL     1      23.493  42.426  50.055  1.00  0.00    -0.165 F 
ENDBRANCH   5  30
TORSDOF 7
ENDMDL
MODEL 2
REMARK VINA RESULT:      -9.4      3.310      6.600
REMARK  7 active torsions:
REMARK  status: ('A' for Active; 'I' for Inactive)
REMARK    1  A    between atoms: C_2  and  C_3 
REMARK    2  A    between atoms: C_4  and  O_5 
REMARK    3  A    between atoms: C_7  and  O_8 
REMARK    4  A    between atoms: C_9  and  C_10 
REMARK    5  A    between atoms: C_14  and  C_15 
REMARK    6  A    between atoms: C_19  and  C_20 
REMARK    7  A    between atoms: N_22  and  C_23 
ROOT
HETATM    1  C   UNL     1      26.729  44.081  50.301  1.00  0.00     0.103 A 
HETATM    2  N   UNL     1      26.733  43.172  49.305  1.00  0.00    -0.173 NA
HETATM    3  N   UNL     1      27.291  42.081  49.840  1.00  0.00    -0.272 N 
HETATM    4  H   UNL     1      27.373  41.251  49.259  1.00  0.00     0.189 HD
HETATM    5  C   UNL     1      27.712  42.248  51.122  1.00  0.00     0.147 A 
HETATM    6  C   UNL     1      27.382  43.544  51.457  1.00  0.00     0.042 A 
ENDROOT
BRANCH   1   7
HETATM    7  C   UNL     1      26.136  45.402  50.070  1.00  0.00     0.029 A 
HETATM    8  C   UNL     1      24.756  45.630  50.080  1.00  0.00     0.081 A 
HETATM    9  C   UNL     1      24.246  46.916  49.893  1.00  0.00     0.074 A 
HETATM   10  C   UNL     1      25.113  47.983  49.659  1.00  0.00     0.074 A 
HETATM   11  C   UNL     1      26.496  47.788  49.585  1.00  0.00    -0.024 A 
HETATM   12  C   UNL     1      26.990  46.489  49.808  1.00  0.00     0.026 A 
BRANCH   8  13
HETATM   13  O   UNL     1      23.883  44.590  50.255  1.00  0.00    -0.360 OA
HETATM   14  H   UNL     1      24.101  43.884  49.623  1.00  0.00     0.217 HD
ENDBRANCH   8  13
BRANCH  10  15
HETATM   15  O   UNL     1      24.521  49.204  49.505  1.00  0.00    -0.360 OA
HETATM   16  H   UNL     1      24.754  49.774  50.254  1.00  0.00     0.217 HD
ENDBRANCH  10  15
BRANCH  11  17
HETATM   17  C   UNL     1      27.479  48.891  49.281  1.00  0.00     0.037 C 
HETATM   18  C   UNL     1      26.883  49.952  48.369  1.00  0.00     0.010 C 
ENDBRANCH  11  17
ENDBRANCH   1   7
BRANCH   6  19
HETATM   19  C   UNL     1      27.655  44.213  52.720  1.00  0.00     0.016 A 
HETATM   20  C   UNL     1      28.733  44.044  53.555  1.00  0.00     0.132 A 
HETATM   21  N   UNL     1      28.530  44.862  54.648  1.00  0.00    -0.245 N 
HETATM   22  N   UNL     1      27.385  45.586  54.515  1.00  0.00    -0.179 NA
HETATM   23  C   UNL     1      26.864  45.184  53.354  1.00  0.00     0.153 A 
BRANCH  21  24
HETATM   24  C   UNL     1      29.345  44.985  55.809  1.00  0.00     0.058 A 
HETATM   25  C   UNL     1      30.471  44.171  56.000  1.00  0.00     0.031 A 
HETATM   26  C   UNL     1      31.245  44.304  57.157  1.00  0.00     0.002 A 
HETATM   27  C   UNL     1      30.901  45.243  58.127  1.00  0.00     0.000 A 
HETATM   28  C   UNL     1      29.786  46.057  57.945  1.00  0.00     0.002 A 
HETATM   29  C   UNL     1      29.010  45.932  56.790  1.00  0.00     0.031 A 
ENDBRANCH  21  24
ENDBRANCH   6  19
BRANCH   5  30
HETATM   30  C   UNL     1      28.386  41.156  51.826  1.00  0.00     0.435 C 
HETATM   31  F   UNL     1      28.459  40.040  51.053  1.00  0.00    -0.165 F 
HETATM   32  F   UNL     1      29.657  41.471  52.174  1.00  0.00    -0.165 F 
HETATM   33  F   UNL     1      27.735  40.797  52.960  1.00  0.00    -0.165 F 
ENDBRANCH   5  30
TORSDOF 7
ENDMDL
MODEL 3
REMARK VINA RESULT:      -8.7      3.208      5.153
REMARK  7 active torsions:
REMARK  status: ('A' for Active; 'I' for Inactive)
REMARK    1  A    between atoms: C_2  and  C_3 
REMARK    2  A    between atoms: C_4  and  O_5 
REMARK    3  A    between atoms: C_7  and  O_8 
REMARK    4  A    between atoms: C_9  and  C_10 
REMARK    5  A    between atoms: C_14  and  C_15 
REMARK    6  A    between atoms: C_19  and  C_20 
REMARK    7  A    between atoms: N_22  and  C_23 
ROOT
HETATM    1  C   UNL     1      27.412  43.004  52.673  1.00  0.00     0.103 A 
HETATM    2  N   UNL     1      28.243  42.279  53.449  1.00  0.00    -0.173 NA
HETATM    3  N   UNL     1      28.669  43.133  54.386  1.00  0.00    -0.272 N 
HETATM    4  H   UNL     1      29.298  42.783  55.103  1.00  0.00     0.189 HD
HETATM    5  C   UNL     1      28.206  44.402  54.227  1.00  0.00     0.147 A 
HETATM    6  C   UNL     1      27.398  44.367  53.110  1.00  0.00     0.042 A 
ENDROOT
BRANCH   1   7
HETATM    7  C   UNL     1      26.720  42.356  51.555  1.00  0.00     0.029 A 
HETATM    8  C   UNL     1      27.308  41.357  50.770  1.00  0.00     0.081 A 
HETATM    9  C   UNL     1      26.589  40.747  49.741  1.00  0.00     0.074 A 
HETATM   10  C   UNL     1      25.284  41.153  49.464  1.00  0.00     0.074 A 
HETATM   11  C   UNL     1      24.681  42.187  50.187  1.00  0.00    -0.024 A 
HETATM   12  C   UNL     1      25.412  42.767  51.241  1.00  0.00     0.026 A 
BRANCH   8  13
HETATM   13  O   UNL     1      28.605  40.978  50.989  1.00  0.00    -0.360 OA
HETATM   14  H   UNL     1      29.104  41.065  50.160  1.00  0.00     0.217 HD
ENDBRANCH   8  13
BRANCH  10  15
HETATM   15  O   UNL     1      24.658  40.485  48.451  1.00  0.00    -0.360 OA
HETATM   16  H   UNL     1      25.278  39.860  48.044  1.00  0.00     0.217 HD
ENDBRANCH  10  15
BRANCH  11  17
HETATM   17  C   UNL     1      23.295  42.708  49.899  1.00  0.00     0.037 C 
HETATM   18  C   UNL     1      23.240  44.227  49.916  1.00  0.00     0.010 C 
ENDBRANCH  11  17
ENDBRANCH   1   7
BRANCH   6  19
HETATM   19  C   UNL     1      26.693  45.491  52.511  1.00  0.00     0.016 A 
HETATM   20  C   UNL     1      26.877  46.041  51.266  1.00  0.00     0.132 A 
HETATM   21  N   UNL     1      26.009  47.110  51.164  1.00  0.00    -0.245 N 
HETATM   22  N   UNL     1      25.240  47.227  52.281  1.00  0.00    -0.179 NA
HETATM   23  C   UNL     1      25.663  46.251  53.086  1.00  0.00     0.153 A 
BRANCH  21  24
HETATM   24  C   UNL     1      25.877  48.028  50.083  1.00  0.00     0.058 A 
HETATM   25  C   UNL     1      26.992  48.685  49.545  1.00  0.00     0.031 A 
HETATM   26  C   UNL     1      26.831  49.592  48.493  1.00  0.00     0.002 A 
HETATM   27  C   UNL     1      25.563  49.851  47.976  1.00  0.00     0.000 A 
HETATM   28  C   UNL     1      24.450  49.201  48.504  1.00  0.00     0.002 A 
HETATM   29  C   UNL     1      24.604  48.291  49.553  1.00  0.00     0.031 A 
ENDBRANCH  21  24
ENDBRANCH   6  19
BRANCH   5  30
HETATM   30  C   UNL     1      28.625  45.462  55.147  1.00  0.00     0.435 C 
HETATM   31  F   UNL     1      29.862  45.216  55.652  1.00  0.00    -0.165 F 
HETATM   32  F   UNL     1      28.683  46.675  54.548  1.00  0.00    -0.165 F 
HETATM   33  F   UNL     1      27.790  45.576  56.209  1.00  0.00    -0.165 F 
ENDBRANCH   5  30
TORSDOF 7
ENDMDL
MODEL 4
REMARK VINA RESULT:      -8.7      3.497      6.472
REMARK  7 active torsions:
REMARK  status: ('A' for Active; 'I' for Inactive)
REMARK    1  A    between atoms: C_2  and  C_3 
REMARK    2  A    between atoms: C_4  and  O_5 
REMARK    3  A    between atoms: C_7  and  O_8 
REMARK    4  A    between atoms: C_9  and  C_10 
REMARK    5  A    between atoms: C_14  and  C_15 
REMARK    6  A    between atoms: C_19  and  C_20 
REMARK    7  A    between atoms: N_22  and  C_23 
ROOT
HETATM    1  C   UNL     1      25.639  43.701  50.019  1.00  0.00     0.103 A 
HETATM    2  N   UNL     1      25.002  44.233  48.956  1.00  0.00    -0.173 NA
HETATM    3  N   UNL     1      24.847  45.526  49.263  1.00  0.00    -0.272 N 
HETATM    4  H   UNL     1      24.403  46.131  48.577  1.00  0.00     0.189 HD
HETATM    5  C   UNL     1      25.296  45.857  50.503  1.00  0.00     0.147 A 
HETATM    6  C   UNL     1      25.804  44.692  51.039  1.00  0.00     0.042 A 
ENDROOT
BRANCH   1   7
HETATM    7  C   UNL     1      26.013  42.284  50.000  1.00  0.00     0.029 A 
HETATM    8  C   UNL     1      25.257  41.304  49.348  1.00  0.00     0.081 A 
HETATM    9  C   UNL     1      25.681  39.974  49.329  1.00  0.00     0.074 A 
HETATM   10  C   UNL     1      26.851  39.604  49.993  1.00  0.00     0.074 A 
HETATM   11  C   UNL     1      27.604  40.543  50.705  1.00  0.00    -0.024 A 
HETATM   12  C   UNL     1      27.176  41.884  50.685  1.00  0.00     0.026 A 
BRANCH   8  13
HETATM   13  O   UNL     1      24.079  41.633  48.734  1.00  0.00    -0.360 OA
HETATM   14  H   UNL     1      23.540  42.162  49.346  1.00  0.00     0.217 HD
ENDBRANCH   8  13
BRANCH  10  15
HETATM   15  O   UNL     1      27.191  38.285  49.904  1.00  0.00    -0.360 OA
HETATM   16  H   UNL     1      26.402  37.761  49.695  1.00  0.00     0.217 HD
ENDBRANCH  10  15
BRANCH  11  17
HETATM   17  C   UNL     1      28.846  40.195  51.488  1.00  0.00     0.037 C 
HETATM   18  C   UNL     1      28.824  40.788  52.888  1.00  0.00     0.010 C 
ENDBRANCH  11  17
ENDBRANCH   1   7
BRANCH   6  19
HETATM   19  C   UNL     1      26.374  44.522  52.367  1.00  0.00     0.016 A 
HETATM   20  C   UNL     1      27.671  44.733  52.767  1.00  0.00     0.132 A 
HETATM   21  N   UNL     1      27.742  44.398  54.104  1.00  0.00    -0.245 N 
HETATM   22  N   UNL     1      26.522  44.031  54.584  1.00  0.00    -0.179 NA
HETATM   23  C   UNL     1      25.708  44.104  53.529  1.00  0.00     0.153 A 
BRANCH  21  24
HETATM   24  C   UNL     1      28.892  44.392  54.944  1.00  0.00     0.058 A 
HETATM   25  C   UNL     1      29.804  43.327  54.923  1.00  0.00     0.031 A 
HETATM   26  C   UNL     1      30.918  43.341  55.768  1.00  0.00     0.002 A 
HETATM   27  C   UNL     1      31.126  44.410  56.638  1.00  0.00     0.000 A 
HETATM   28  C   UNL     1      30.226  45.473  56.664  1.00  0.00     0.002 A 
HETATM   29  C   UNL     1      29.113  45.467  55.819  1.00  0.00     0.031 A 
ENDBRANCH  21  24
ENDBRANCH   6  19
BRANCH   5  30
HETATM   30  C   UNL     1      25.151  47.227  51.000  1.00  0.00     0.435 C 
HETATM   31  F   UNL     1      26.257  47.969  50.731  1.00  0.00    -0.165 F 
HETATM   32  F   UNL     1      24.102  47.874  50.436  1.00  0.00    -0.165 F 
HETATM   33  F   UNL     1      24.975  47.269  52.343  1.00  0.00    -0.165 F 
ENDBRANCH   5  30
TORSDOF 7
ENDMDL
MODEL 5
REMARK VINA RESULT:      -8.7      3.340      5.529
REMARK  7 active torsions:
REMARK  status: ('A' for Active; 'I' for Inactive)
REMARK    1  A    between atoms: C_2  and  C_3 
REMARK    2  A    between atoms: C_4  and  O_5 
REMARK    3  A    between atoms: C_7  and  O_8 
REMARK    4  A    between atoms: C_9  and  C_10 
REMARK    5  A    between atoms: C_14  and  C_15 
REMARK    6  A    between atoms: C_19  and  C_20 
REMARK    7  A    between atoms: N_22  and  C_23 
ROOT
HETATM    1  C   UNL     1      27.097  42.712  51.827  1.00  0.00     0.103 A 
HETATM    2  N   UNL     1      27.855  41.829  52.508  1.00  0.00    -0.173 NA
HETATM    3  N   UNL     1      28.282  42.501  53.582  1.00  0.00    -0.272 N 
HETATM    4  H   UNL     1      28.861  42.008  54.257  1.00  0.00     0.189 HD
HETATM    5  C   UNL     1      27.893  43.804  53.610  1.00  0.00     0.147 A 
HETATM    6  C   UNL     1      27.133  43.990  52.474  1.00  0.00     0.042 A 
ENDROOT
BRANCH   1   7
HETATM    7  C   UNL     1      26.423  42.287  50.597  1.00  0.00     0.029 A 
HETATM    8  C   UNL     1      25.031  42.292  50.450  1.00  0.00     0.081 A 
HETATM    9  C   UNL     1      24.443  41.913  49.242  1.00  0.00     0.074 A 
HETATM   10  C   UNL     1      25.241  41.492  48.178  1.00  0.00     0.074 A 
HETATM   11  C   UNL     1      26.631  41.419  48.304  1.00  0.00    -0.024 A 
HETATM   12  C   UNL     1      27.206  41.835  49.519  1.00  0.00     0.026 A 
BRANCH   8  13
HETATM   13  O   UNL     1      24.225  42.651  51.496  1.00  0.00    -0.360 OA
HETATM   14  H   UNL     1      24.154  41.903  52.112  1.00  0.00     0.217 HD
ENDBRANCH   8  13
BRANCH  10  15
HETATM   15  O   UNL     1      24.574  41.159  47.034  1.00  0.00    -0.360 OA
HETATM   16  H   UNL     1      23.846  40.555  47.248  1.00  0.00     0.217 HD
ENDBRANCH  10  15
BRANCH  11  17
HETATM   17  C   UNL     1      27.542  40.920  47.209  1.00  0.00     0.037 C 
HETATM   18  C   UNL     1      28.308  39.675  47.627  1.00  0.00     0.010 C 
ENDBRANCH  11  17
ENDBRANCH   1   7
BRANCH   6  19
HETATM   19  C   UNL     1      26.513  45.231  52.035  1.00  0.00     0.016 A 
HETATM   20  C   UNL     1      26.654  45.869  50.826  1.00  0.00     0.132 A 
HETATM   21  N   UNL     1      25.909  47.029  50.892  1.00  0.00    -0.245 N 
HETATM   22  N   UNL     1      25.255  47.126  52.082  1.00  0.00    -0.179 NA
HETATM   23  C   UNL     1      25.630  46.042  52.763  1.00  0.00     0.153 A 
BRANCH  21  24
HETATM   24  C   UNL     1      25.793  48.049  49.905  1.00  0.00     0.058 A 
HETATM   25  C   UNL     1      24.541  48.454  49.419  1.00  0.00     0.031 A 
HETATM   26  C   UNL     1      24.458  49.449  48.440  1.00  0.00     0.002 A 
HETATM   27  C   UNL     1      25.616  50.041  47.940  1.00  0.00     0.000 A 
HETATM   28  C   UNL     1      26.863  49.646  48.419  1.00  0.00     0.002 A 
HETATM   29  C   UNL     1      26.953  48.655  49.399  1.00  0.00     0.031 A 
ENDBRANCH  21  24
ENDBRANCH   6  19
BRANCH   5  30
HETATM   30  C   UNL     1      28.324  44.681  54.700  1.00  0.00     0.435 C 
HETATM   31  F   UNL     1      27.322  44.883  55.596  1.00  0.00    -0.165 F 
HETATM   32  F   UNL     1      29.368  44.168  55.395  1.00  0.00    -0.165 F 
HETATM   33  F   UNL     1      28.697  45.906  54.256  1.00  0.00    -0.165 F 
ENDBRANCH   5  30
TORSDOF 7
ENDMDL
MODEL 6
REMARK VINA RESULT:      -8.7      1.722      2.276
REMARK  7 active torsions:
REMARK  status: ('A' for Active; 'I' for Inactive)
REMARK    1  A    between atoms: C_2  and  C_3 
REMARK    2  A    between atoms: C_4  and  O_5 
REMARK    3  A    between atoms: C_7  and  O_8 
REMARK    4  A    between atoms: C_9  and  C_10 
REMARK    5  A    between atoms: C_14  and  C_15 
REMARK    6  A    between atoms: C_19  and  C_20 
REMARK    7  A    between atoms: N_22  and  C_23 
ROOT
HETATM    1  C   UNL     1      27.489  42.557  52.606  1.00  0.00     0.103 A 
HETATM    2  N   UNL     1      27.634  41.251  52.908  1.00  0.00    -0.173 NA
HETATM    3  N   UNL     1      27.139  40.599  51.851  1.00  0.00    -0.272 N 
HETATM    4  H   UNL     1      27.171  39.583  51.857  1.00  0.00     0.189 HD
HETATM    5  C   UNL     1      26.617  41.412  50.894  1.00  0.00     0.147 A 
HETATM    6  C   UNL     1      26.807  42.698  51.354  1.00  0.00     0.042 A 
ENDROOT
BRANCH   1   7
HETATM    7  C   UNL     1      27.977  43.573  53.543  1.00  0.00     0.029 A 
HETATM    8  C   UNL     1      29.114  43.392  54.339  1.00  0.00     0.081 A 
HETATM    9  C   UNL     1      29.557  44.409  55.187  1.00  0.00     0.074 A 
HETATM   10  C   UNL     1      28.847  45.606  55.272  1.00  0.00     0.074 A 
HETATM   11  C   UNL     1      27.675  45.804  54.537  1.00  0.00    -0.024 A 
HETATM   12  C   UNL     1      27.263  44.779  53.665  1.00  0.00     0.026 A 
BRANCH   8  13
HETATM   13  O   UNL     1      29.797  42.206  54.311  1.00  0.00    -0.360 OA
HETATM   14  H   UNL     1      29.919  41.932  53.387  1.00  0.00     0.217 HD
ENDBRANCH   8  13
BRANCH  10  15
HETATM   15  O   UNL     1      29.369  46.545  56.116  1.00  0.00    -0.360 OA
HETATM   16  H   UNL     1      30.176  46.917  55.727  1.00  0.00     0.217 HD
ENDBRANCH  10  15
BRANCH  11  17
HETATM   17  C   UNL     1      26.834  47.054  54.629  1.00  0.00     0.037 C 
HETATM   18  C   UNL     1      25.855  47.170  53.471  1.00  0.00     0.010 C 
ENDBRANCH  11  17
ENDBRANCH   1   7
BRANCH   6  19
HETATM   19  C   UNL     1      26.389  43.928  50.698  1.00  0.00     0.016 A 
HETATM   20  C   UNL     1      25.131  44.478  50.647  1.00  0.00     0.132 A 
HETATM   21  N   UNL     1      25.220  45.621  49.879  1.00  0.00    -0.245 N 
HETATM   22  N   UNL     1      26.502  45.847  49.481  1.00  0.00    -0.179 NA
HETATM   23  C   UNL     1      27.196  44.821  49.976  1.00  0.00     0.153 A 
BRANCH  21  24
HETATM   24  C   UNL     1      24.166  46.496  49.489  1.00  0.00     0.058 A 
HETATM   25  C   UNL     1      23.041  46.020  48.801  1.00  0.00     0.031 A 
HETATM   26  C   UNL     1      22.027  46.905  48.419  1.00  0.00     0.002 A 
HETATM   27  C   UNL     1      22.130  48.262  48.716  1.00  0.00     0.000 A 
HETATM   28  C   UNL     1      23.244  48.742  49.401  1.00  0.00     0.002 A 
HETATM   29  C   UNL     1      24.259  47.864  49.789  1.00  0.00     0.031 A 
ENDBRANCH  21  24
ENDBRANCH   6  19
BRANCH   5  30
HETATM   30  C   UNL     1      25.994  40.842  49.698  1.00  0.00     0.435 C 
HETATM   31  F   UNL     1      26.581  41.310  48.565  1.00  0.00    -0.165 F 
HETATM   32  F   UNL     1      26.093  39.491  49.658  1.00  0.00    -0.165 F 
HETATM   33  F   UNL     1      24.678  41.153  49.608  1.00  0.00    -0.165 F 
ENDBRANCH   5  30
TORSDOF 7
ENDMDL
MODEL 7
REMARK VINA RESULT:      -8.5      4.080      6.993
REMARK  7 active torsions:
REMARK  status: ('A' for Active; 'I' for Inactive)
REMARK    1  A    between atoms: C_2  and  C_3 
REMARK    2  A    between atoms: C_4  and  O_5 
REMARK    3  A    between atoms: C_7  and  O_8 
REMARK    4  A    between atoms: C_9  and  C_10 
REMARK    5  A    between atoms: C_14  and  C_15 
REMARK    6  A    between atoms: C_19  and  C_20 
REMARK    7  A    between atoms: N_22  and  C_23 
ROOT
HETATM    1  C   UNL     1      27.434  45.081  53.343  1.00  0.00     0.103 A 
HETATM    2  N   UNL     1      27.679  45.973  54.323  1.00  0.00    -0.173 NA
HETATM    3  N   UNL     1      28.740  45.483  54.974  1.00  0.00    -0.272 N 
HETATM    4  H   UNL     1      29.116  46.021  55.751  1.00  0.00     0.189 HD
HETATM    5  C   UNL     1      29.167  44.280  54.507  1.00  0.00     0.147 A 
HETATM    6  C   UNL     1      28.332  43.971  53.454  1.00  0.00     0.042 A 
ENDROOT
BRANCH   1   7
HETATM    7  C   UNL     1      26.346  45.333  52.393  1.00  0.00     0.029 A 
HETATM    8  C   UNL     1      25.198  44.536  52.321  1.00  0.00     0.081 A 
HETATM    9  C   UNL     1      24.174  44.845  51.423  1.00  0.00     0.074 A 
HETATM   10  C   UNL     1      24.304  45.936  50.564  1.00  0.00     0.074 A 
HETATM   11  C   UNL     1      25.460  46.722  50.566  1.00  0.00    -0.024 A 
HETATM   12  C   UNL     1      26.466  46.413  51.500  1.00  0.00     0.026 A 
BRANCH   8  13
HETATM   13  O   UNL     1      25.071  43.430  53.117  1.00  0.00    -0.360 OA
HETATM   14  H   UNL     1      24.127  43.231  53.234  1.00  0.00     0.217 HD
ENDBRANCH   8  13
BRANCH  10  15
HETATM   15  O   UNL     1      23.243  46.166  49.735  1.00  0.00    -0.360 OA
HETATM   16  H   UNL     1      23.203  45.471  49.060  1.00  0.00     0.217 HD
ENDBRANCH  10  15
BRANCH  11  17
HETATM   17  C   UNL     1      25.682  47.880  49.623  1.00  0.00     0.037 C 
HETATM   18  C   UNL     1      27.129  48.346  49.623  1.00  0.00     0.010 C 
ENDBRANCH  11  17
ENDBRANCH   1   7
BRANCH   6  19
HETATM   19  C   UNL     1      28.363  42.762  52.644  1.00  0.00     0.016 A 
HETATM   20  C   UNL     1      28.248  42.652  51.279  1.00  0.00     0.132 A 
HETATM   21  N   UNL     1      28.294  41.306  50.977  1.00  0.00    -0.245 N 
HETATM   22  N   UNL     1      28.487  40.557  52.097  1.00  0.00    -0.179 NA
HETATM   23  C   UNL     1      28.522  41.443  53.094  1.00  0.00     0.153 A 
BRANCH  21  24
HETATM   24  C   UNL     1      28.152  40.692  49.700  1.00  0.00     0.058 A 
HETATM   25  C   UNL     1      28.665  39.412  49.446  1.00  0.00     0.031 A 
HETATM   26  C   UNL     1      28.524  38.840  48.177  1.00  0.00     0.002 A 
HETATM   27  C   UNL     1      27.876  39.538  47.160  1.00  0.00     0.000 A 
HETATM   28  C   UNL     1      27.362  40.809  47.405  1.00  0.00     0.002 A 
HETATM   29  C   UNL     1      27.497  41.386  48.670  1.00  0.00     0.031 A 
ENDBRANCH  21  24
ENDBRANCH   6  19
BRANCH   5  30
HETATM   30  C   UNL     1      30.290  43.594  55.150  1.00  0.00     0.435 C 
HETATM   31  F   UNL     1      31.159  43.100  54.229  1.00  0.00    -0.165 F 
HETATM   32  F   UNL     1      31.004  44.415  55.957  1.00  0.00    -0.165 F 
HETATM   33  F   UNL     1      29.886  42.542  55.902  1.00  0.00    -0.165 F 
ENDBRANCH   5  30
TORSDOF 7
ENDMDL
MODEL 8
REMARK VINA RESULT:      -8.4      3.264      5.549
REMARK  7 active torsions:
REMARK  status: ('A' for Active; 'I' for Inactive)
REMARK    1  A    between atoms: C_2  and  C_3 
REMARK    2  A    between atoms: C_4  and  O_5 
REMARK    3  A    between atoms: C_7  and  O_8 
REMARK    4  A    between atoms: C_9  and  C_10 
REMARK    5  A    between atoms: C_14  and  C_15 
REMARK    6  A    between atoms: C_19  and  C_20 
REMARK    7  A    between atoms: N_22  and  C_23 
ROOT
HETATM    1  C   UNL     1      27.605  41.755  50.580  1.00  0.00     0.103 A 
HETATM    2  N   UNL     1      28.450  40.778  50.968  1.00  0.00    -0.173 NA
HETATM    3  N   UNL     1      29.051  41.261  52.062  1.00  0.00    -0.272 N 
HETATM    4  H   UNL     1      29.723  40.667  52.540  1.00  0.00     0.189 HD
HETATM    5  C   UNL     1      28.687  42.533  52.376  1.00  0.00     0.147 A 
HETATM    6  C   UNL     1      27.759  42.901  51.425  1.00  0.00     0.042 A 
ENDROOT
BRANCH   1   7
HETATM    7  C   UNL     1      26.739  41.540  49.417  1.00  0.00     0.029 A 
HETATM    8  C   UNL     1      27.227  41.151  48.165  1.00  0.00     0.081 A 
HETATM    9  C   UNL     1      26.352  40.923  47.101  1.00  0.00     0.074 A 
HETATM   10  C   UNL     1      24.981  41.114  47.271  1.00  0.00     0.074 A 
HETATM   11  C   UNL     1      24.460  41.556  48.490  1.00  0.00    -0.024 A 
HETATM   12  C   UNL     1      25.355  41.750  49.559  1.00  0.00     0.026 A 
BRANCH   8  13
HETATM   13  O   UNL     1      28.573  41.009  47.959  1.00  0.00    -0.360 OA
HETATM   14  H   UNL     1      28.797  41.350  47.078  1.00  0.00     0.217 HD
ENDBRANCH   8  13
BRANCH  10  15
HETATM   15  O   UNL     1      24.206  40.849  46.178  1.00  0.00    -0.360 OA
HETATM   16  H   UNL     1      24.319  39.921  45.919  1.00  0.00     0.217 HD
ENDBRANCH  10  15
BRANCH  11  17
HETATM   17  C   UNL     1      22.994  41.833  48.719  1.00  0.00     0.037 C 
HETATM   18  C   UNL     1      22.773  42.909  49.770  1.00  0.00     0.010 C 
ENDBRANCH  11  17
ENDBRANCH   1   7
BRANCH   6  19
HETATM   19  C   UNL     1      27.094  44.190  51.312  1.00  0.00     0.016 A 
HETATM   20  C   UNL     1      27.127  45.074  50.260  1.00  0.00     0.132 A 
HETATM   21  N   UNL     1      26.379  46.172  50.631  1.00  0.00    -0.245 N 
HETATM   22  N   UNL     1      25.826  45.998  51.863  1.00  0.00    -0.179 NA
HETATM   23  C   UNL     1      26.267  44.804  52.265  1.00  0.00     0.153 A 
BRANCH  21  24
HETATM   24  C   UNL     1      26.171  47.375  49.898  1.00  0.00     0.058 A 
HETATM   25  C   UNL     1      27.250  48.137  49.427  1.00  0.00     0.031 A 
HETATM   26  C   UNL     1      27.016  49.322  48.722  1.00  0.00     0.002 A 
HETATM   27  C   UNL     1      25.712  49.754  48.486  1.00  0.00     0.000 A 
HETATM   28  C   UNL     1      24.635  49.002  48.950  1.00  0.00     0.002 A 
HETATM   29  C   UNL     1      24.861  47.816  49.652  1.00  0.00     0.031 A 
ENDBRANCH  21  24
ENDBRANCH   6  19
BRANCH   5  30
HETATM   30  C   UNL     1      29.297  43.214  53.520  1.00  0.00     0.435 C 
HETATM   31  F   UNL     1      30.651  43.100  53.498  1.00  0.00    -0.165 F 
HETATM   32  F   UNL     1      29.019  44.539  53.542  1.00  0.00    -0.165 F 
HETATM   33  F   UNL     1      28.885  42.696  54.704  1.00  0.00    -0.165 F 
ENDBRANCH   5  30
TORSDOF 7
ENDMDL
MODEL 9
REMARK VINA RESULT:      -8.4      4.012      7.216
REMARK  7 active torsions:
REMARK  status: ('A' for Active; 'I' for Inactive)
REMARK    1  A    between atoms: C_2  and  C_3 
REMARK    2  A    between atoms: C_4  and  O_5 
REMARK    3  A    between atoms: C_7  and  O_8 
REMARK    4  A    between atoms: C_9  and  C_10 
REMARK    5  A    between atoms: C_14  and  C_15 
REMARK    6  A    between atoms: C_19  and  C_20 
REMARK    7  A    between atoms: N_22  and  C_23 
ROOT
HETATM    1  C   UNL     1      26.551  45.739  52.228  1.00  0.00     0.103 A 
HETATM    2  N   UNL     1      26.669  46.311  53.443  1.00  0.00    -0.173 NA
HETATM    3  N   UNL     1      27.469  45.490  54.132  1.00  0.00    -0.272 N 
HETATM    4  H   UNL     1      27.714  45.747  55.084  1.00  0.00     0.189 HD
HETATM    5  C   UNL     1      27.832  44.372  53.448  1.00  0.00     0.147 A 
HETATM    6  C   UNL     1      27.241  44.485  52.208  1.00  0.00     0.042 A 
ENDROOT
BRANCH   1   7
HETATM    7  C   UNL     1      25.765  46.410  51.188  1.00  0.00     0.029 A 
HETATM    8  C   UNL     1      24.470  46.014  50.837  1.00  0.00     0.081 A 
HETATM    9  C   UNL     1      23.752  46.713  49.865  1.00  0.00     0.074 A 
HETATM   10  C   UNL     1      24.337  47.797  49.209  1.00  0.00     0.074 A 
HETATM   11  C   UNL     1      25.650  48.188  49.490  1.00  0.00    -0.024 A 
HETATM   12  C   UNL     1      26.344  47.490  50.496  1.00  0.00     0.026 A 
BRANCH   8  13
HETATM   13  O   UNL     1      23.895  44.923  51.429  1.00  0.00    -0.360 OA
HETATM   14  H   UNL     1      24.540  44.196  51.448  1.00  0.00     0.217 HD
ENDBRANCH   8  13
BRANCH  10  15
HETATM   15  O   UNL     1      23.550  48.426  48.287  1.00  0.00    -0.360 OA
HETATM   16  H   UNL     1      23.049  49.135  48.719  1.00  0.00     0.217 HD
ENDBRANCH  10  15
BRANCH  11  17
HETATM   17  C   UNL     1      26.355  49.314  48.776  1.00  0.00     0.037 C 
HETATM   18  C   UNL     1      27.845  49.338  49.078  1.00  0.00     0.010 C 
ENDBRANCH  11  17
ENDBRANCH   1   7
BRANCH   6  19
HETATM   19  C   UNL     1      27.306  43.518  51.122  1.00  0.00     0.016 A 
HETATM   20  C   UNL     1      27.763  42.223  51.164  1.00  0.00     0.132 A 
HETATM   21  N   UNL     1      27.667  41.719  49.882  1.00  0.00    -0.245 N 
HETATM   22  N   UNL     1      27.116  42.631  49.035  1.00  0.00    -0.179 NA
HETATM   23  C   UNL     1      26.908  43.710  49.790  1.00  0.00     0.153 A 
BRANCH  21  24
HETATM   24  C   UNL     1      28.078  40.438  49.415  1.00  0.00     0.058 A 
HETATM   25  C   UNL     1      27.948  40.078  48.066  1.00  0.00     0.031 A 
HETATM   26  C   UNL     1      28.347  38.808  47.638  1.00  0.00     0.002 A 
HETATM   27  C   UNL     1      28.873  37.893  48.548  1.00  0.00     0.000 A 
HETATM   28  C   UNL     1      29.007  38.243  49.889  1.00  0.00     0.002 A 
HETATM   29  C   UNL     1      28.614  39.511  50.323  1.00  0.00     0.031 A 
ENDBRANCH  21  24
ENDBRANCH   6  19
BRANCH   5  30
HETATM   30  C   UNL     1      28.668  43.354  54.088  1.00  0.00     0.435 C 
HETATM   31  F   UNL     1      29.143  43.786  55.286  1.00  0.00    -0.165 F 
HETATM   32  F   UNL     1      27.991  42.206  54.331  1.00  0.00    -0.165 F 
HETATM   33  F   UNL     1      29.750  43.033  53.338  1.00  0.00    -0.165 F 
ENDBRANCH   5  30
TORSDOF 7
ENDMDL
MODEL 10
REMARK VINA RESULT:      -8.3     11.565     13.457
REMARK  7 active torsions:
REMARK  status: ('A' for Active; 'I' for Inactive)
REMARK    1  A    between atoms: C_2  and  C_3 
REMARK    2  A    between atoms: C_4  and  O_5 
REMARK    3  A    between atoms: C_7  and  O_8 
REMARK    4  A    between atoms: C_9  and  C_10 
REMARK    5  A    between atoms: C_14  and  C_15 
REMARK    6  A    between atoms: C_19  and  C_20 
REMARK    7  A    between atoms: N_22  and  C_23 
ROOT
HETATM    1  C   UNL     1      27.995  49.091  40.232  1.00  0.00     0.103 A 
HETATM    2  N   UNL     1      26.819  49.615  39.831  1.00  0.00    -0.173 NA
HETATM    3  N   UNL     1      26.885  50.906  40.173  1.00  0.00    -0.272 N 
HETATM    4  H   UNL     1      26.098  51.505  39.938  1.00  0.00     0.189 HD
HETATM    5  C   UNL     1      28.023  51.244  40.835  1.00  0.00     0.147 A 
HETATM    6  C   UNL     1      28.768  50.087  40.912  1.00  0.00     0.042 A 
ENDROOT
BRANCH   1   7
HETATM    7  C   UNL     1      28.283  47.679  39.968  1.00  0.00     0.029 A 
HETATM    8  C   UNL     1      29.279  47.257  39.078  1.00  0.00     0.081 A 
HETATM    9  C   UNL     1      29.537  45.897  38.894  1.00  0.00     0.074 A 
HETATM   10  C   UNL     1      28.778  44.944  39.572  1.00  0.00     0.074 A 
HETATM   11  C   UNL     1      27.737  45.323  40.425  1.00  0.00    -0.024 A 
HETATM   12  C   UNL     1      27.514  46.699  40.622  1.00  0.00     0.026 A 
BRANCH   8  13
HETATM   13  O   UNL     1      30.001  48.173  38.362  1.00  0.00    -0.360 OA
HETATM   14  H   UNL     1      30.482  47.713  37.654  1.00  0.00     0.217 HD
ENDBRANCH   8  13
BRANCH  10  15
HETATM   15  O   UNL     1      29.117  43.642  39.338  1.00  0.00    -0.360 OA
HETATM   16  H   UNL     1      29.190  43.493  38.383  1.00  0.00     0.217 HD
ENDBRANCH  10  15
BRANCH  11  17
HETATM   17  C   UNL     1      26.847  44.339  41.143  1.00  0.00     0.037 C 
HETATM   18  C   UNL     1      25.705  43.855  40.263  1.00  0.00     0.010 C 
ENDBRANCH  11  17
ENDBRANCH   1   7
BRANCH   6  19
HETATM   19  C   UNL     1      30.061  49.925  41.560  1.00  0.00     0.016 A 
HETATM   20  C   UNL     1      31.180  50.711  41.430  1.00  0.00     0.132 A 
HETATM   21  N   UNL     1      32.169  50.138  42.204  1.00  0.00    -0.245 N 
HETATM   22  N   UNL     1      31.704  49.042  42.864  1.00  0.00    -0.179 NA
HETATM   23  C   UNL     1      30.436  48.921  42.465  1.00  0.00     0.153 A 
BRANCH  21  24
HETATM   24  C   UNL     1      33.523  50.557  42.341  1.00  0.00     0.058 A 
HETATM   25  C   UNL     1      34.545  49.985  41.570  1.00  0.00     0.031 A 
HETATM   26  C   UNL     1      35.868  50.406  41.737  1.00  0.00     0.002 A 
HETATM   27  C   UNL     1      36.179  51.393  42.670  1.00  0.00     0.000 A 
HETATM   28  C   UNL     1      35.170  51.967  43.438  1.00  0.00     0.002 A 
HETATM   29  C   UNL     1      33.845  51.554  43.275  1.00  0.00     0.031 A 
ENDBRANCH  21  24
ENDBRANCH   6  19
BRANCH   5  30
HETATM   30  C   UNL     1      28.218  52.613  41.317  1.00  0.00     0.435 C 
HETATM   31  F   UNL     1      27.046  53.165  41.727  1.00  0.00    -0.165 F 
HETATM   32  F   UNL     1      29.066  52.675  42.372  1.00  0.00    -0.165 F 
HETATM   33  F   UNL     1      28.712  53.430  40.354  1.00  0.00    -0.165 F 
ENDBRANCH   5  30
TORSDOF 7
ENDMDL
