MODEL 1
REMARK VINA RESULT:      -9.4      0.000      0.000
REMARK  10 active torsions:
REMARK  status: ('A' for Active; 'I' for Inactive)
REMARK    1  A    between atoms: C_3  and  C_4 
REMARK       I    between atoms: C_4  and  N_5 
REMARK    2  A    between atoms: N_5  and  N_6 
REMARK    3  A    between atoms: N_6  and  C_7 
REMARK    4  A    between atoms: C_7  and  C_8 
REMARK    5  A    between atoms: C_8  and  O_9 
REMARK    6  A    between atoms: O_9  and  C_10 
REMARK    7  A    between atoms: C_22  and  O_23 
REMARK    8  A    between atoms: O_23  and  C_24 
REMARK    9  A    between atoms: C_24  and  C_25 
REMARK   10  A    between atoms: N_27  and  C_28 
ROOT
HETATM    1  C   UNL     1      18.297  52.289  49.325  1.00  0.00     0.001 A 
HETATM    2  C   UNL     1      18.068  51.181  50.141  1.00  0.00     0.020 A 
HETATM    3  C   UNL     1      18.943  50.092  50.076  1.00  0.00     0.067 A 
HETATM    4  C   UNL     1      20.018  50.091  49.181  1.00  0.00     0.085 A 
HETATM    5  C   UNL     1      20.253  51.210  48.383  1.00  0.00     0.038 A 
HETATM    6  C   UNL     1      19.388  52.304  48.453  1.00  0.00     0.003 A 
ENDROOT
BRANCH   3   7
HETATM    7  C   UNL     1      18.703  48.910  50.919  1.00  0.00     0.272 C 
HETATM    8  N   UNL     1      18.549  47.661  50.336  1.00  0.00    -0.264 N 
HETATM    9  H   UNL     1      18.783  46.910  50.988  1.00  0.00     0.190 HD
HETATM   10  O   UNL     1      18.704  49.036  52.139  1.00  0.00    -0.266 OA
BRANCH   8  11
HETATM   11  N   UNL     1      18.596  47.401  49.030  1.00  0.00    -0.285 N 
HETATM   12  H   UNL     1      19.472  47.589  48.536  1.00  0.00     0.188 HD
BRANCH  11  13
HETATM   13  C   UNL     1      17.645  46.779  48.325  1.00  0.00     0.114 C 
HETATM   14  N   UNL     1      17.325  45.500  48.427  1.00  0.00    -0.386 N 
HETATM   15  H   UNL     1      16.567  45.130  47.857  1.00  0.00     0.157 HD
HETATM   16  H   UNL     1      17.777  44.858  49.071  1.00  0.00     0.157 HD
BRANCH  13  17
HETATM   17  C   UNL     1      16.911  47.587  47.287  1.00  0.00     0.253 C 
BRANCH  17  18
HETATM   18  O   UNL     1      17.761  48.659  46.845  1.00  0.00    -0.342 OA
BRANCH  18  19
HETATM   19  C   UNL     1      17.044  49.823  46.737  1.00  0.00     0.091 A 
HETATM   20  C   UNL     1      17.415  50.837  45.842  1.00  0.00     0.069 A 
HETATM   21 CL   UNL     1      18.775  50.644  44.797  1.00  0.00    -0.081 Cl
HETATM   22  C   UNL     1      16.683  52.022  45.787  1.00  0.00     0.050 A 
HETATM   23  C   UNL     1      15.595  52.195  46.641  1.00  0.00     0.035 A 
HETATM   24 CL   UNL     1      14.685  53.653  46.579  1.00  0.00    -0.084 Cl
HETATM   25  C   UNL     1      15.239  51.199  47.553  1.00  0.00     0.026 A 
HETATM   26  C   UNL     1      15.970  50.012  47.608  1.00  0.00     0.040 A 
ENDBRANCH  18  19
ENDBRANCH  17  18
ENDBRANCH  13  17
ENDBRANCH  11  13
ENDBRANCH   8  11
ENDBRANCH   3   7
BRANCH   4  27
HETATM   27  O   UNL     1      20.913  49.054  49.230  1.00  0.00    -0.343 OA
BRANCH  27  28
HETATM   28  C   UNL     1      21.983  49.210  48.267  1.00  0.00     0.258 C 
BRANCH  28  29
HETATM   29  C   UNL     1      23.314  48.785  48.807  1.00  0.00     0.172 A 
HETATM   30  N   UNL     1      23.468  47.811  49.719  1.00  0.00    -0.147 NA
HETATM   31  N   UNL     1      24.815  47.833  49.930  1.00  0.00    -0.207 N 
HETATM   32  C   UNL     1      25.391  48.788  49.132  1.00  0.00     0.239 A 
HETATM   33  N   UNL     1      24.473  49.398  48.416  1.00  0.00    -0.223 NA
BRANCH  31  34
HETATM   34  C   UNL     1      25.480  46.981  50.850  1.00  0.00     0.153 A 
HETATM   35  N   UNL     1      25.540  47.373  52.148  1.00  0.00    -0.217 NA
HETATM   36  C   UNL     1      26.170  46.542  53.003  1.00  0.00     0.128 A 
HETATM   37 CL   UNL     1      26.209  47.089  54.626  1.00  0.00    -0.062 Cl
HETATM   38  C   UNL     1      26.753  45.340  52.644  1.00  0.00     0.044 A 
HETATM   39  C   UNL     1      26.684  44.958  51.308  1.00  0.00     0.007 A 
HETATM   40  C   UNL     1      26.038  45.787  50.392  1.00  0.00     0.052 A 
ENDBRANCH  31  34
ENDBRANCH  28  29
ENDBRANCH  27  28
ENDBRANCH   4  27
TORSDOF 10
ENDMDL
MODEL 2
REMARK VINA RESULT:      -9.3      1.360      1.722
REMARK  10 active torsions:
REMARK  status: ('A' for Active; 'I' for Inactive)
REMARK    1  A    between atoms: C_3  and  C_4 
REMARK       I    between atoms: C_4  and  N_5 
REMARK    2  A    between atoms: N_5  and  N_6 
REMARK    3  A    between atoms: N_6  and  C_7 
REMARK    4  A    between atoms: C_7  and  C_8 
REMARK    5  A    between atoms: C_8  and  O_9 
REMARK    6  A    between atoms: O_9  and  C_10 
REMARK    7  A    between atoms: C_22  and  O_23 
REMARK    8  A    between atoms: O_23  and  C_24 
REMARK    9  A    between atoms: C_24  and  C_25 
REMARK   10  A    between atoms: N_27  and  C_28 
ROOT
HETATM    1  C   UNL     1      17.664  52.150  49.108  1.00  0.00     0.001 A 
HETATM    2  C   UNL     1      17.664  51.045  49.960  1.00  0.00     0.020 A 
HETATM    3  C   UNL     1      18.832  50.289  50.100  1.00  0.00     0.067 A 
HETATM    4  C   UNL     1      19.982  50.609  49.370  1.00  0.00     0.085 A 
HETATM    5  C   UNL     1      19.982  51.726  48.536  1.00  0.00     0.038 A 
HETATM    6  C   UNL     1      18.821  52.490  48.402  1.00  0.00     0.003 A 
ENDROOT
BRANCH   3   7
HETATM    7  C   UNL     1      18.840  49.112  50.982  1.00  0.00     0.272 C 
HETATM    8  N   UNL     1      18.822  47.836  50.438  1.00  0.00    -0.264 N 
HETATM    9  H   UNL     1      19.217  47.147  51.080  1.00  0.00     0.190 HD
HETATM   10  O   UNL     1      18.926  49.274  52.194  1.00  0.00    -0.266 OA
BRANCH   8  11
HETATM   11  N   UNL     1      18.795  47.545  49.138  1.00  0.00    -0.285 N 
HETATM   12  H   UNL     1      17.890  47.566  48.662  1.00  0.00     0.188 HD
BRANCH  11  13
HETATM   13  C   UNL     1      19.866  47.365  48.357  1.00  0.00     0.114 C 
HETATM   14  N   UNL     1      21.021  46.850  48.744  1.00  0.00    -0.386 N 
HETATM   15  H   UNL     1      21.767  46.735  48.062  1.00  0.00     0.157 HD
HETATM   16  H   UNL     1      21.203  46.527  49.690  1.00  0.00     0.157 HD
BRANCH  13  17
HETATM   17  C   UNL     1      19.772  47.838  46.930  1.00  0.00     0.253 C 
BRANCH  17  18
HETATM   18  O   UNL     1      18.405  47.734  46.494  1.00  0.00    -0.342 OA
BRANCH  18  19
HETATM   19  C   UNL     1      17.898  48.977  46.215  1.00  0.00     0.091 A 
HETATM   20  C   UNL     1      16.644  49.385  46.691  1.00  0.00     0.069 A 
HETATM   21 CL   UNL     1      15.697  48.350  47.697  1.00  0.00    -0.081 Cl
HETATM   22  C   UNL     1      16.145  50.643  46.356  1.00  0.00     0.050 A 
HETATM   23  C   UNL     1      16.894  51.479  45.528  1.00  0.00     0.035 A 
HETATM   24 CL   UNL     1      16.287  53.032  45.110  1.00  0.00    -0.084 Cl
HETATM   25  C   UNL     1      18.131  51.065  45.028  1.00  0.00     0.026 A 
HETATM   26  C   UNL     1      18.632  49.807  45.366  1.00  0.00     0.040 A 
ENDBRANCH  18  19
ENDBRANCH  17  18
ENDBRANCH  13  17
ENDBRANCH  11  13
ENDBRANCH   8  11
ENDBRANCH   3   7
BRANCH   4  27
HETATM   27  O   UNL     1      21.134  49.911  49.621  1.00  0.00    -0.343 OA
BRANCH  27  28
HETATM   28  C   UNL     1      22.253  50.406  48.846  1.00  0.00     0.258 C 
BRANCH  28  29
HETATM   29  C   UNL     1      23.502  49.606  49.055  1.00  0.00     0.172 A 
HETATM   30  N   UNL     1      23.581  48.561  49.895  1.00  0.00    -0.147 NA
HETATM   31  N   UNL     1      24.895  48.211  49.787  1.00  0.00    -0.207 N 
HETATM   32  C   UNL     1      25.519  49.037  48.887  1.00  0.00     0.239 A 
HETATM   33  N   UNL     1      24.669  49.919  48.412  1.00  0.00    -0.223 NA
BRANCH  31  34
HETATM   34  C   UNL     1      25.488  47.148  50.517  1.00  0.00     0.153 A 
HETATM   35  N   UNL     1      25.457  47.214  51.872  1.00  0.00    -0.217 NA
HETATM   36  C   UNL     1      26.019  46.188  52.542  1.00  0.00     0.128 A 
HETATM   37 CL   UNL     1      25.944  46.328  54.248  1.00  0.00    -0.062 Cl
HETATM   38  C   UNL     1      26.620  45.096  51.943  1.00  0.00     0.044 A 
HETATM   39  C   UNL     1      26.645  45.048  50.553  1.00  0.00     0.007 A 
HETATM   40  C   UNL     1      26.071  46.087  49.823  1.00  0.00     0.052 A 
ENDBRANCH  31  34
ENDBRANCH  28  29
ENDBRANCH  27  28
ENDBRANCH   4  27
TORSDOF 10
ENDMDL
MODEL 3
REMARK VINA RESULT:      -9.2      3.357     11.335
REMARK  10 active torsions:
REMARK  status: ('A' for Active; 'I' for Inactive)
REMARK    1  A    between atoms: C_3  and  C_4 
REMARK       I    between atoms: C_4  and  N_5 
REMARK    2  A    between atoms: N_5  and  N_6 
REMARK    3  A    between atoms: N_6  and  C_7 
REMARK    4  A    between atoms: C_7  and  C_8 
REMARK    5  A    between atoms: C_8  and  O_9 
REMARK    6  A    between atoms: O_9  and  C_10 
REMARK    7  A    between atoms: C_22  and  O_23 
REMARK    8  A    between atoms: O_23  and  C_24 
REMARK    9  A    between atoms: C_24  and  C_25 
REMARK   10  A    between atoms: N_27  and  C_28 
ROOT
HETATM    1  C   UNL     1      27.601  48.772  49.153  1.00  0.00     0.001 A 
HETATM    2  C   UNL     1      27.169  47.602  49.778  1.00  0.00     0.020 A 
HETATM    3  C   UNL     1      25.797  47.350  49.884  1.00  0.00     0.067 A 
HETATM    4  C   UNL     1      24.862  48.273  49.404  1.00  0.00     0.085 A 
HETATM    5  C   UNL     1      25.301  49.431  48.762  1.00  0.00     0.038 A 
HETATM    6  C   UNL     1      26.669  49.680  48.644  1.00  0.00     0.003 A 
ENDROOT
BRANCH   3   7
HETATM    7  C   UNL     1      25.328  46.129  50.556  1.00  0.00     0.272 C 
HETATM    8  N   UNL     1      25.189  46.104  51.935  1.00  0.00    -0.264 N 
HETATM    9  H   UNL     1      24.515  45.397  52.234  1.00  0.00     0.190 HD
HETATM   10  O   UNL     1      25.004  45.160  49.877  1.00  0.00    -0.266 OA
BRANCH   8  11
HETATM   11  N   UNL     1      25.448  47.117  52.762  1.00  0.00    -0.285 N 
HETATM   12  H   UNL     1      25.118  48.048  52.495  1.00  0.00     0.188 HD
BRANCH  11  13
HETATM   13  C   UNL     1      25.979  47.009  53.985  1.00  0.00     0.114 C 
HETATM   14  N   UNL     1      26.140  48.001  54.843  1.00  0.00    -0.386 N 
HETATM   15  H   UNL     1      26.535  47.806  55.760  1.00  0.00     0.157 HD
HETATM   16  H   UNL     1      25.861  48.959  54.653  1.00  0.00     0.157 HD
BRANCH  13  17
HETATM   17  C   UNL     1      26.488  45.654  54.402  1.00  0.00     0.253 C 
BRANCH  17  18
HETATM   18  O   UNL     1      27.627  45.315  53.592  1.00  0.00    -0.342 OA
BRANCH  18  19
HETATM   19  C   UNL     1      28.664  44.888  54.381  1.00  0.00     0.091 A 
HETATM   20  C   UNL     1      29.245  43.623  54.213  1.00  0.00     0.069 A 
HETATM   21 CL   UNL     1      28.709  42.558  52.965  1.00  0.00    -0.081 Cl
HETATM   22  C   UNL     1      30.273  43.209  55.059  1.00  0.00     0.050 A 
HETATM   23  C   UNL     1      30.700  44.054  56.082  1.00  0.00     0.035 A 
HETATM   24 CL   UNL     1      31.968  43.553  57.130  1.00  0.00    -0.084 Cl
HETATM   25  C   UNL     1      30.104  45.303  56.271  1.00  0.00     0.026 A 
HETATM   26  C   UNL     1      29.077  45.719  55.423  1.00  0.00     0.040 A 
ENDBRANCH  18  19
ENDBRANCH  17  18
ENDBRANCH  13  17
ENDBRANCH  11  13
ENDBRANCH   8  11
ENDBRANCH   3   7
BRANCH   4  27
HETATM   27  O   UNL     1      23.534  47.936  49.428  1.00  0.00    -0.343 OA
BRANCH  27  28
HETATM   28  C   UNL     1      22.770  48.647  48.424  1.00  0.00     0.258 C 
BRANCH  28  29
HETATM   29  C   UNL     1      21.727  49.543  49.016  1.00  0.00     0.172 A 
HETATM   30  N   UNL     1      20.450  49.571  48.602  1.00  0.00    -0.147 NA
HETATM   31  N   UNL     1      19.922  50.558  49.382  1.00  0.00    -0.207 N 
HETATM   32  C   UNL     1      20.889  51.047  50.223  1.00  0.00     0.239 A 
HETATM   33  N   UNL     1      22.029  50.427  50.017  1.00  0.00    -0.223 NA
BRANCH  31  34
HETATM   34  C   UNL     1      18.571  50.986  49.300  1.00  0.00     0.153 A 
HETATM   35  N   UNL     1      17.692  50.186  48.645  1.00  0.00    -0.217 NA
HETATM   36  C   UNL     1      16.413  50.611  48.588  1.00  0.00     0.128 A 
HETATM   37 CL   UNL     1      15.352  49.557  47.752  1.00  0.00    -0.062 Cl
HETATM   38  C   UNL     1      15.954  51.792  49.141  1.00  0.00     0.044 A 
HETATM   39  C   UNL     1      16.871  52.600  49.806  1.00  0.00     0.007 A 
HETATM   40  C   UNL     1      18.203  52.195  49.890  1.00  0.00     0.052 A 
ENDBRANCH  31  34
ENDBRANCH  28  29
ENDBRANCH  27  28
ENDBRANCH   4  27
TORSDOF 10
ENDMDL
MODEL 4
REMARK VINA RESULT:      -8.9      5.323      9.295
REMARK  10 active torsions:
REMARK  status: ('A' for Active; 'I' for Inactive)
REMARK    1  A    between atoms: C_3  and  C_4 
REMARK       I    between atoms: C_4  and  N_5 
REMARK    2  A    between atoms: N_5  and  N_6 
REMARK    3  A    between atoms: N_6  and  C_7 
REMARK    4  A    between atoms: C_7  and  C_8 
REMARK    5  A    between atoms: C_8  and  O_9 
REMARK    6  A    between atoms: O_9  and  C_10 
REMARK    7  A    between atoms: C_22  and  O_23 
REMARK    8  A    between atoms: O_23  and  C_24 
REMARK    9  A    between atoms: C_24  and  C_25 
REMARK   10  A    between atoms: N_27  and  C_28 
ROOT
HETATM    1  C   UNL     1      29.305  45.330  55.575  1.00  0.00     0.001 A 
HETATM    2  C   UNL     1      27.962  45.294  55.201  1.00  0.00     0.020 A 
HETATM    3  C   UNL     1      27.458  44.151  54.573  1.00  0.00     0.067 A 
HETATM    4  C   UNL     1      28.292  43.065  54.287  1.00  0.00     0.085 A 
HETATM    5  C   UNL     1      29.630  43.100  54.682  1.00  0.00     0.038 A 
HETATM    6  C   UNL     1      30.134  44.234  55.319  1.00  0.00     0.003 A 
ENDROOT
BRANCH   3   7
HETATM    7  C   UNL     1      26.048  44.107  54.158  1.00  0.00     0.272 C 
HETATM    8  N   UNL     1      25.701  44.380  52.843  1.00  0.00    -0.264 N 
HETATM    9  H   UNL     1      24.810  43.949  52.590  1.00  0.00     0.190 HD
HETATM   10  O   UNL     1      25.196  43.765  54.971  1.00  0.00    -0.266 OA
BRANCH   8  11
HETATM   11  N   UNL     1      26.549  44.696  51.865  1.00  0.00    -0.285 N 
HETATM   12  H   UNL     1      27.543  44.504  52.013  1.00  0.00     0.188 HD
BRANCH  11  13
HETATM   13  C   UNL     1      26.207  45.114  50.641  1.00  0.00     0.114 C 
HETATM   14  N   UNL     1      26.671  44.625  49.504  1.00  0.00    -0.386 N 
HETATM   15  H   UNL     1      26.326  45.001  48.624  1.00  0.00     0.157 HD
HETATM   16  H   UNL     1      27.340  43.863  49.453  1.00  0.00     0.157 HD
BRANCH  13  17
HETATM   17  C   UNL     1      25.254  46.277  50.547  1.00  0.00     0.253 C 
BRANCH  17  18
HETATM   18  O   UNL     1      25.814  47.268  49.668  1.00  0.00    -0.342 OA
BRANCH  18  19
HETATM   19  C   UNL     1      24.843  48.142  49.252  1.00  0.00     0.091 A 
HETATM   20  C   UNL     1      25.161  49.403  48.727  1.00  0.00     0.069 A 
HETATM   21 CL   UNL     1      26.804  49.895  48.535  1.00  0.00    -0.081 Cl
HETATM   22  C   UNL     1      24.144  50.278  48.349  1.00  0.00     0.050 A 
HETATM   23  C   UNL     1      22.814  49.897  48.519  1.00  0.00     0.035 A 
HETATM   24 CL   UNL     1      21.553  50.971  48.055  1.00  0.00    -0.084 Cl
HETATM   25  C   UNL     1      22.492  48.654  49.068  1.00  0.00     0.026 A 
HETATM   26  C   UNL     1      23.509  47.775  49.444  1.00  0.00     0.040 A 
ENDBRANCH  18  19
ENDBRANCH  17  18
ENDBRANCH  13  17
ENDBRANCH  11  13
ENDBRANCH   8  11
ENDBRANCH   3   7
BRANCH   4  27
HETATM   27  O   UNL     1      27.734  41.925  53.772  1.00  0.00    -0.343 OA
BRANCH  27  28
HETATM   28  C   UNL     1      28.520  41.371  52.689  1.00  0.00     0.258 C 
BRANCH  28  29
HETATM   29  C   UNL     1      27.699  41.073  51.472  1.00  0.00     0.172 A 
HETATM   30  N   UNL     1      26.595  41.759  51.135  1.00  0.00    -0.147 NA
HETATM   31  N   UNL     1      26.180  41.095  50.019  1.00  0.00    -0.207 N 
HETATM   32  C   UNL     1      27.054  40.077  49.737  1.00  0.00     0.239 A 
HETATM   33  N   UNL     1      28.017  40.041  50.630  1.00  0.00    -0.223 NA
BRANCH  31  34
HETATM   34  C   UNL     1      25.012  41.438  49.289  1.00  0.00     0.153 A 
HETATM   35  N   UNL     1      24.245  42.452  49.762  1.00  0.00    -0.217 NA
HETATM   36  C   UNL     1      23.144  42.764  49.047  1.00  0.00     0.128 A 
HETATM   37 CL   UNL     1      22.221  44.055  49.691  1.00  0.00    -0.062 Cl
HETATM   38  C   UNL     1      22.754  42.120  47.886  1.00  0.00     0.044 A 
HETATM   39  C   UNL     1      23.552  41.080  47.420  1.00  0.00     0.007 A 
HETATM   40  C   UNL     1      24.701  40.729  48.128  1.00  0.00     0.052 A 
ENDBRANCH  31  34
ENDBRANCH  28  29
ENDBRANCH  27  28
ENDBRANCH   4  27
TORSDOF 10
ENDMDL
MODEL 5
REMARK VINA RESULT:      -8.8      3.205     10.773
REMARK  10 active torsions:
REMARK  status: ('A' for Active; 'I' for Inactive)
REMARK    1  A    between atoms: C_3  and  C_4 
REMARK       I    between atoms: C_4  and  N_5 
REMARK    2  A    between atoms: N_5  and  N_6 
REMARK    3  A    between atoms: N_6  and  C_7 
REMARK    4  A    between atoms: C_7  and  C_8 
REMARK    5  A    between atoms: C_8  and  O_9 
REMARK    6  A    between atoms: O_9  and  C_10 
REMARK    7  A    between atoms: C_22  and  O_23 
REMARK    8  A    between atoms: O_23  and  C_24 
REMARK    9  A    between atoms: C_24  and  C_25 
REMARK   10  A    between atoms: N_27  and  C_28 
ROOT
HETATM    1  C   UNL     1      27.256  49.209  48.846  1.00  0.00     0.001 A 
HETATM    2  C   UNL     1      26.929  48.301  49.854  1.00  0.00     0.020 A 
HETATM    3  C   UNL     1      25.584  48.013  50.104  1.00  0.00     0.067 A 
HETATM    4  C   UNL     1      24.570  48.649  49.380  1.00  0.00     0.085 A 
HETATM    5  C   UNL     1      24.904  49.540  48.360  1.00  0.00     0.038 A 
HETATM    6  C   UNL     1      26.246  49.822  48.100  1.00  0.00     0.003 A 
ENDROOT
BRANCH   3   7
HETATM    7  C   UNL     1      25.225  47.071  51.175  1.00  0.00     0.272 C 
HETATM    8  N   UNL     1      25.003  45.734  50.879  1.00  0.00    -0.264 N 
HETATM    9  H   UNL     1      25.155  45.137  51.695  1.00  0.00     0.190 HD
HETATM   10  O   UNL     1      25.188  47.470  52.334  1.00  0.00    -0.266 OA
BRANCH   8  11
HETATM   11  N   UNL     1      25.081  45.181  49.669  1.00  0.00    -0.285 N 
HETATM   12  H   UNL     1      24.726  45.719  48.874  1.00  0.00     0.188 HD
BRANCH  11  13
HETATM   13  C   UNL     1      25.713  44.041  49.373  1.00  0.00     0.114 C 
HETATM   14  N   UNL     1      25.336  43.169  48.453  1.00  0.00    -0.386 N 
HETATM   15  H   UNL     1      25.903  42.340  48.291  1.00  0.00     0.157 HD
HETATM   16  H   UNL     1      24.516  43.292  47.866  1.00  0.00     0.157 HD
BRANCH  13  17
HETATM   17  C   UNL     1      26.928  43.688  50.191  1.00  0.00     0.253 C 
BRANCH  17  18
HETATM   18  O   UNL     1      26.498  43.190  51.471  1.00  0.00    -0.342 OA
BRANCH  18  19
HETATM   19  C   UNL     1      27.509  43.302  52.390  1.00  0.00     0.091 A 
HETATM   20  C   UNL     1      28.457  42.285  52.571  1.00  0.00     0.069 A 
HETATM   21 CL   UNL     1      28.420  40.856  51.603  1.00  0.00    -0.081 Cl
HETATM   22  C   UNL     1      29.449  42.418  53.541  1.00  0.00     0.050 A 
HETATM   23  C   UNL     1      29.475  43.560  54.340  1.00  0.00     0.035 A 
HETATM   24 CL   UNL     1      30.696  43.734  55.539  1.00  0.00    -0.084 Cl
HETATM   25  C   UNL     1      28.516  44.563  54.183  1.00  0.00     0.026 A 
HETATM   26  C   UNL     1      27.524  44.432  53.210  1.00  0.00     0.040 A 
ENDBRANCH  18  19
ENDBRANCH  17  18
ENDBRANCH  13  17
ENDBRANCH  11  13
ENDBRANCH   8  11
ENDBRANCH   3   7
BRANCH   4  27
HETATM   27  O   UNL     1      23.273  48.254  49.581  1.00  0.00    -0.343 OA
BRANCH  27  28
HETATM   28  C   UNL     1      22.404  48.660  48.495  1.00  0.00     0.258 C 
BRANCH  28  29
HETATM   29  C   UNL     1      21.317  49.588  48.940  1.00  0.00     0.172 A 
HETATM   30  N   UNL     1      20.060  49.542  48.467  1.00  0.00    -0.147 NA
HETATM   31  N   UNL     1      19.477  50.592  49.111  1.00  0.00    -0.207 N 
HETATM   32  C   UNL     1      20.392  51.191  49.939  1.00  0.00     0.239 A 
HETATM   33  N   UNL     1      21.552  50.581  49.853  1.00  0.00    -0.223 NA
BRANCH  31  34
HETATM   34  C   UNL     1      18.123  50.977  48.922  1.00  0.00     0.153 A 
HETATM   35  N   UNL     1      17.508  50.586  47.778  1.00  0.00    -0.217 NA
HETATM   36  C   UNL     1      16.220  50.956  47.626  1.00  0.00     0.128 A 
HETATM   37 CL   UNL     1      15.497  50.429  46.165  1.00  0.00    -0.062 Cl
HETATM   38  C   UNL     1      15.504  51.701  48.545  1.00  0.00     0.044 A 
HETATM   39  C   UNL     1      16.154  52.096  49.710  1.00  0.00     0.007 A 
HETATM   40  C   UNL     1      17.485  51.730  49.908  1.00  0.00     0.052 A 
ENDBRANCH  31  34
ENDBRANCH  28  29
ENDBRANCH  27  28
ENDBRANCH   4  27
TORSDOF 10
ENDMDL
MODEL 6
REMARK VINA RESULT:      -8.7      2.362      3.946
REMARK  10 active torsions:
REMARK  status: ('A' for Active; 'I' for Inactive)
REMARK    1  A    between atoms: C_3  and  C_4 
REMARK       I    between atoms: C_4  and  N_5 
REMARK    2  A    between atoms: N_5  and  N_6 
REMARK    3  A    between atoms: N_6  and  C_7 
REMARK    4  A    between atoms: C_7  and  C_8 
REMARK    5  A    between atoms: C_8  and  O_9 
REMARK    6  A    between atoms: O_9  and  C_10 
REMARK    7  A    between atoms: C_22  and  O_23 
REMARK    8  A    between atoms: O_23  and  C_24 
REMARK    9  A    between atoms: C_24  and  C_25 
REMARK   10  A    between atoms: N_27  and  C_28 
ROOT
HETATM    1  C   UNL     1      23.651  50.418  47.971  1.00  0.00     0.001 A 
HETATM    2  C   UNL     1      22.597  49.583  47.602  1.00  0.00     0.020 A 
HETATM    3  C   UNL     1      22.552  48.278  48.103  1.00  0.00     0.067 A 
HETATM    4  C   UNL     1      23.566  47.797  48.937  1.00  0.00     0.085 A 
HETATM    5  C   UNL     1      24.606  48.644  49.319  1.00  0.00     0.038 A 
HETATM    6  C   UNL     1      24.649  49.950  48.830  1.00  0.00     0.003 A 
ENDROOT
BRANCH   3   7
HETATM    7  C   UNL     1      21.455  47.381  47.708  1.00  0.00     0.272 C 
HETATM    8  N   UNL     1      20.336  47.253  48.516  1.00  0.00    -0.264 N 
HETATM    9  H   UNL     1      19.519  46.947  47.984  1.00  0.00     0.190 HD
HETATM   10  O   UNL     1      21.517  46.801  46.629  1.00  0.00    -0.266 OA
BRANCH   8  11
HETATM   11  N   UNL     1      20.135  47.885  49.673  1.00  0.00    -0.285 N 
HETATM   12  H   UNL     1      20.947  48.296  50.140  1.00  0.00     0.188 HD
BRANCH  11  13
HETATM   13  C   UNL     1      18.943  48.159  50.215  1.00  0.00     0.114 C 
HETATM   14  N   UNL     1      18.687  48.236  51.510  1.00  0.00    -0.386 N 
HETATM   15  H   UNL     1      17.747  48.473  51.817  1.00  0.00     0.157 HD
HETATM   16  H   UNL     1      19.391  48.099  52.230  1.00  0.00     0.157 HD
BRANCH  13  17
HETATM   17  C   UNL     1      17.780  48.341  49.276  1.00  0.00     0.253 C 
BRANCH  17  18
HETATM   18  O   UNL     1      18.095  49.389  48.342  1.00  0.00    -0.342 OA
BRANCH  18  19
HETATM   19  C   UNL     1      17.530  50.572  48.743  1.00  0.00     0.091 A 
HETATM   20  C   UNL     1      18.301  51.613  49.280  1.00  0.00     0.069 A 
HETATM   21 CL   UNL     1      20.016  51.468  49.415  1.00  0.00    -0.081 Cl
HETATM   22  C   UNL     1      17.686  52.787  49.711  1.00  0.00     0.050 A 
HETATM   23  C   UNL     1      16.300  52.906  49.623  1.00  0.00     0.035 A 
HETATM   24 CL   UNL     1      15.532  54.351  50.153  1.00  0.00    -0.084 Cl
HETATM   25  C   UNL     1      15.525  51.860  49.116  1.00  0.00     0.026 A 
HETATM   26  C   UNL     1      16.140  50.685  48.682  1.00  0.00     0.040 A 
ENDBRANCH  18  19
ENDBRANCH  17  18
ENDBRANCH  13  17
ENDBRANCH  11  13
ENDBRANCH   8  11
ENDBRANCH   3   7
BRANCH   4  27
HETATM   27  O   UNL     1      23.424  46.552  49.493  1.00  0.00    -0.343 OA
BRANCH  27  28
HETATM   28  C   UNL     1      24.361  45.596  48.942  1.00  0.00     0.258 C 
BRANCH  28  29
HETATM   29  C   UNL     1      25.306  45.052  49.969  1.00  0.00     0.172 A 
HETATM   30  N   UNL     1      25.573  45.669  51.132  1.00  0.00    -0.147 NA
HETATM   31  N   UNL     1      26.507  44.841  51.682  1.00  0.00    -0.207 N 
HETATM   32  C   UNL     1      26.730  43.779  50.845  1.00  0.00     0.239 A 
HETATM   33  N   UNL     1      25.989  43.884  49.765  1.00  0.00    -0.223 NA
BRANCH  31  34
HETATM   34  C   UNL     1      27.130  45.083  52.934  1.00  0.00     0.153 A 
HETATM   35  N   UNL     1      26.785  46.210  53.607  1.00  0.00    -0.217 NA
HETATM   36  C   UNL     1      27.385  46.412  54.798  1.00  0.00     0.128 A 
HETATM   37 CL   UNL     1      26.905  47.848  55.600  1.00  0.00    -0.062 Cl
HETATM   38  C   UNL     1      28.318  45.560  55.361  1.00  0.00     0.044 A 
HETATM   39  C   UNL     1      28.661  44.412  54.654  1.00  0.00     0.007 A 
HETATM   40  C   UNL     1      28.060  44.163  53.421  1.00  0.00     0.052 A 
ENDBRANCH  31  34
ENDBRANCH  28  29
ENDBRANCH  27  28
ENDBRANCH   4  27
TORSDOF 10
ENDMDL
MODEL 7
REMARK VINA RESULT:      -8.7      5.760      8.886
REMARK  10 active torsions:
REMARK  status: ('A' for Active; 'I' for Inactive)
REMARK    1  A    between atoms: C_3  and  C_4 
REMARK       I    between atoms: C_4  and  N_5 
REMARK    2  A    between atoms: N_5  and  N_6 
REMARK    3  A    between atoms: N_6  and  C_7 
REMARK    4  A    between atoms: C_7  and  C_8 
REMARK    5  A    between atoms: C_8  and  O_9 
REMARK    6  A    between atoms: O_9  and  C_10 
REMARK    7  A    between atoms: C_22  and  O_23 
REMARK    8  A    between atoms: O_23  and  C_24 
REMARK    9  A    between atoms: C_24  and  C_25 
REMARK   10  A    between atoms: N_27  and  C_28 
ROOT
HETATM    1  C   UNL     1      26.648  49.655  48.344  1.00  0.00     0.001 A 
HETATM    2  C   UNL     1      25.261  49.568  48.456  1.00  0.00     0.020 A 
HETATM    3  C   UNL     1      24.704  48.664  49.365  1.00  0.00     0.067 A 
HETATM    4  C   UNL     1      25.520  47.826  50.132  1.00  0.00     0.085 A 
HETATM    5  C   UNL     1      26.907  47.932  50.030  1.00  0.00     0.038 A 
HETATM    6  C   UNL     1      27.468  48.842  49.132  1.00  0.00     0.003 A 
ENDROOT
BRANCH   3   7
HETATM    7  C   UNL     1      23.242  48.550  49.480  1.00  0.00     0.272 C 
HETATM    8  N   UNL     1      22.608  47.364  49.141  1.00  0.00    -0.264 N 
HETATM    9  H   UNL     1      21.708  47.268  49.615  1.00  0.00     0.190 HD
HETATM   10  O   UNL     1      22.603  49.492  49.937  1.00  0.00    -0.266 OA
BRANCH   8  11
HETATM   11  N   UNL     1      23.208  46.260  48.698  1.00  0.00    -0.285 N 
HETATM   12  H   UNL     1      24.003  46.370  48.063  1.00  0.00     0.188 HD
BRANCH  11  13
HETATM   13  C   UNL     1      22.960  45.015  49.119  1.00  0.00     0.114 C 
HETATM   14  N   UNL     1      21.775  44.546  49.473  1.00  0.00    -0.386 N 
HETATM   15  H   UNL     1      21.691  43.573  49.758  1.00  0.00     0.157 HD
HETATM   16  H   UNL     1      20.923  45.098  49.449  1.00  0.00     0.157 HD
BRANCH  13  17
HETATM   17  C   UNL     1      24.134  44.081  49.256  1.00  0.00     0.253 C 
BRANCH  17  18
HETATM   18  O   UNL     1      23.644  42.738  49.415  1.00  0.00    -0.342 OA
BRANCH  18  19
HETATM   19  C   UNL     1      24.689  41.853  49.470  1.00  0.00     0.091 A 
HETATM   20  C   UNL     1      24.886  40.881  48.479  1.00  0.00     0.069 A 
HETATM   21 CL   UNL     1      23.840  40.787  47.109  1.00  0.00    -0.081 Cl
HETATM   22  C   UNL     1      25.939  39.974  48.588  1.00  0.00     0.050 A 
HETATM   23  C   UNL     1      26.777  40.030  49.701  1.00  0.00     0.035 A 
HETATM   24 CL   UNL     1      28.079  38.915  49.845  1.00  0.00    -0.084 Cl
HETATM   25  C   UNL     1      26.568  40.977  50.705  1.00  0.00     0.026 A 
HETATM   26  C   UNL     1      25.516  41.887  50.595  1.00  0.00     0.040 A 
ENDBRANCH  18  19
ENDBRANCH  17  18
ENDBRANCH  13  17
ENDBRANCH  11  13
ENDBRANCH   8  11
ENDBRANCH   3   7
BRANCH   4  27
HETATM   27  O   UNL     1      24.937  47.036  51.088  1.00  0.00    -0.343 OA
BRANCH  27  28
HETATM   28  C   UNL     1      25.469  47.294  52.410  1.00  0.00     0.258 C 
BRANCH  28  29
HETATM   29  C   UNL     1      26.307  46.166  52.928  1.00  0.00     0.172 A 
HETATM   30  N   UNL     1      27.288  46.323  53.832  1.00  0.00    -0.147 NA
HETATM   31  N   UNL     1      27.782  45.057  53.935  1.00  0.00    -0.207 N 
HETATM   32  C   UNL     1      27.070  44.216  53.119  1.00  0.00     0.239 A 
HETATM   33  N   UNL     1      26.138  44.884  52.477  1.00  0.00    -0.223 NA
BRANCH  31  34
HETATM   34  C   UNL     1      28.872  44.705  54.773  1.00  0.00     0.153 A 
HETATM   35  N   UNL     1      29.124  45.491  55.850  1.00  0.00    -0.217 NA
HETATM   36  C   UNL     1      30.160  45.131  56.635  1.00  0.00     0.128 A 
HETATM   37 CL   UNL     1      30.423  46.160  57.979  1.00  0.00    -0.062 Cl
HETATM   38  C   UNL     1      30.970  44.034  56.409  1.00  0.00     0.044 A 
HETATM   39  C   UNL     1      30.699  43.242  55.298  1.00  0.00     0.007 A 
HETATM   40  C   UNL     1      29.634  43.577  54.463  1.00  0.00     0.052 A 
ENDBRANCH  31  34
ENDBRANCH  28  29
ENDBRANCH  27  28
ENDBRANCH   4  27
TORSDOF 10
ENDMDL
MODEL 8
REMARK VINA RESULT:      -8.5      3.390      5.442
REMARK  10 active torsions:
REMARK  status: ('A' for Active; 'I' for Inactive)
REMARK    1  A    between atoms: C_3  and  C_4 
REMARK       I    between atoms: C_4  and  N_5 
REMARK    2  A    between atoms: N_5  and  N_6 
REMARK    3  A    between atoms: N_6  and  C_7 
REMARK    4  A    between atoms: C_7  and  C_8 
REMARK    5  A    between atoms: C_8  and  O_9 
REMARK    6  A    between atoms: O_9  and  C_10 
REMARK    7  A    between atoms: C_22  and  O_23 
REMARK    8  A    between atoms: O_23  and  C_24 
REMARK    9  A    between atoms: C_24  and  C_25 
REMARK   10  A    between atoms: N_27  and  C_28 
ROOT
HETATM    1  C   UNL     1      18.080  52.085  49.128  1.00  0.00     0.001 A 
HETATM    2  C   UNL     1      17.921  50.969  49.949  1.00  0.00     0.020 A 
HETATM    3  C   UNL     1      18.972  50.055  50.072  1.00  0.00     0.067 A 
HETATM    4  C   UNL     1      20.160  50.232  49.356  1.00  0.00     0.085 A 
HETATM    5  C   UNL     1      20.321  51.361  48.552  1.00  0.00     0.038 A 
HETATM    6  C   UNL     1      19.278  52.281  48.436  1.00  0.00     0.003 A 
ENDROOT
BRANCH   3   7
HETATM    7  C   UNL     1      18.811  48.865  50.921  1.00  0.00     0.272 C 
HETATM    8  N   UNL     1      18.919  47.598  50.369  1.00  0.00    -0.264 N 
HETATM    9  H   UNL     1      19.180  46.902  51.070  1.00  0.00     0.190 HD
HETATM   10  O   UNL     1      18.642  49.010  52.127  1.00  0.00    -0.266 OA
BRANCH   8  11
HETATM   11  N   UNL     1      19.165  47.325  49.087  1.00  0.00    -0.285 N 
HETATM   12  H   UNL     1      19.828  47.925  48.590  1.00  0.00     0.188 HD
BRANCH  11  13
HETATM   13  C   UNL     1      18.731  46.249  48.422  1.00  0.00     0.114 C 
HETATM   14  N   UNL     1      17.497  45.775  48.448  1.00  0.00    -0.386 N 
HETATM   15  H   UNL     1      17.266  44.960  47.885  1.00  0.00     0.157 HD
HETATM   16  H   UNL     1      16.744  46.199  48.981  1.00  0.00     0.157 HD
BRANCH  13  17
HETATM   17  C   UNL     1      19.744  45.476  47.618  1.00  0.00     0.253 C 
BRANCH  17  18
HETATM   18  O   UNL     1      20.980  45.425  48.351  1.00  0.00    -0.342 OA
BRANCH  18  19
HETATM   19  C   UNL     1      21.813  44.476  47.817  1.00  0.00     0.091 A 
HETATM   20  C   UNL     1      22.709  43.748  48.614  1.00  0.00     0.069 A 
HETATM   21 CL   UNL     1      22.768  43.984  50.323  1.00  0.00    -0.081 Cl
HETATM   22  C   UNL     1      23.566  42.818  48.030  1.00  0.00     0.050 A 
HETATM   23  C   UNL     1      23.538  42.634  46.648  1.00  0.00     0.035 A 
HETATM   24 CL   UNL     1      24.592  41.488  45.918  1.00  0.00    -0.084 Cl
HETATM   25  C   UNL     1      22.668  43.377  45.847  1.00  0.00     0.026 A 
HETATM   26  C   UNL     1      21.808  44.308  46.431  1.00  0.00     0.040 A 
ENDBRANCH  18  19
ENDBRANCH  17  18
ENDBRANCH  13  17
ENDBRANCH  11  13
ENDBRANCH   8  11
ENDBRANCH   3   7
BRANCH   4  27
HETATM   27  O   UNL     1      21.204  49.375  49.591  1.00  0.00    -0.343 OA
BRANCH  27  28
HETATM   28  C   UNL     1      22.174  49.386  48.516  1.00  0.00     0.258 C 
BRANCH  28  29
HETATM   29  C   UNL     1      23.490  48.794  48.918  1.00  0.00     0.172 A 
HETATM   30  N   UNL     1      23.610  47.628  49.575  1.00  0.00    -0.147 NA
HETATM   31  N   UNL     1      24.958  47.547  49.762  1.00  0.00    -0.207 N 
HETATM   32  C   UNL     1      25.567  48.639  49.199  1.00  0.00     0.239 A 
HETATM   33  N   UNL     1      24.671  49.435  48.662  1.00  0.00    -0.223 NA
BRANCH  31  34
HETATM   34  C   UNL     1      25.594  46.477  50.445  1.00  0.00     0.153 A 
HETATM   35  N   UNL     1      25.908  45.367  49.730  1.00  0.00    -0.217 NA
HETATM   36  C   UNL     1      26.518  44.368  50.400  1.00  0.00     0.128 A 
HETATM   37 CL   UNL     1      26.893  42.997  49.443  1.00  0.00    -0.062 Cl
HETATM   38  C   UNL     1      26.832  44.404  51.746  1.00  0.00     0.044 A 
HETATM   39  C   UNL     1      26.499  45.549  52.462  1.00  0.00     0.007 A 
HETATM   40  C   UNL     1      25.870  46.606  51.806  1.00  0.00     0.052 A 
ENDBRANCH  31  34
ENDBRANCH  28  29
ENDBRANCH  27  28
ENDBRANCH   4  27
TORSDOF 10
ENDMDL
MODEL 9
REMARK VINA RESULT:      -8.4      2.337      3.947
REMARK  10 active torsions:
REMARK  status: ('A' for Active; 'I' for Inactive)
REMARK    1  A    between atoms: C_3  and  C_4 
REMARK       I    between atoms: C_4  and  N_5 
REMARK    2  A    between atoms: N_5  and  N_6 
REMARK    3  A    between atoms: N_6  and  C_7 
REMARK    4  A    between atoms: C_7  and  C_8 
REMARK    5  A    between atoms: C_8  and  O_9 
REMARK    6  A    between atoms: O_9  and  C_10 
REMARK    7  A    between atoms: C_22  and  O_23 
REMARK    8  A    between atoms: O_23  and  C_24 
REMARK    9  A    between atoms: C_24  and  C_25 
REMARK   10  A    between atoms: N_27  and  C_28 
ROOT
HETATM    1  C   UNL     1      23.068  50.407  47.659  1.00  0.00     0.001 A 
HETATM    2  C   UNL     1      22.086  49.417  47.723  1.00  0.00     0.020 A 
HETATM    3  C   UNL     1      22.343  48.247  48.443  1.00  0.00     0.067 A 
HETATM    4  C   UNL     1      23.579  48.046  49.066  1.00  0.00     0.085 A 
HETATM    5  C   UNL     1      24.548  49.048  49.015  1.00  0.00     0.038 A 
HETATM    6  C   UNL     1      24.292  50.223  48.307  1.00  0.00     0.003 A 
ENDROOT
BRANCH   3   7
HETATM    7  C   UNL     1      21.323  47.188  48.504  1.00  0.00     0.272 C 
HETATM    8  N   UNL     1      20.217  47.334  49.328  1.00  0.00    -0.264 N 
HETATM    9  H   UNL     1      19.429  46.771  49.005  1.00  0.00     0.190 HD
HETATM   10  O   UNL     1      21.433  46.210  47.772  1.00  0.00    -0.266 OA
BRANCH   8  11
HETATM   11  N   UNL     1      19.965  48.382  50.113  1.00  0.00    -0.285 N 
HETATM   12  H   UNL     1      20.652  49.139  50.134  1.00  0.00     0.188 HD
BRANCH  11  13
HETATM   13  C   UNL     1      18.822  48.605  50.771  1.00  0.00     0.114 C 
HETATM   14  N   UNL     1      18.590  48.294  52.035  1.00  0.00    -0.386 N 
HETATM   15  H   UNL     1      17.690  48.529  52.447  1.00  0.00     0.157 HD
HETATM   16  H   UNL     1      19.277  47.854  52.640  1.00  0.00     0.157 HD
BRANCH  13  17
HETATM   17  C   UNL     1      17.682  49.212  49.996  1.00  0.00     0.253 C 
BRANCH  17  18
HETATM   18  O   UNL     1      17.703  48.693  48.654  1.00  0.00    -0.342 OA
BRANCH  18  19
HETATM   19  C   UNL     1      17.560  49.711  47.747  1.00  0.00     0.091 A 
HETATM   20  C   UNL     1      18.153  49.656  46.477  1.00  0.00     0.069 A 
HETATM   21 CL   UNL     1      19.058  48.272  45.980  1.00  0.00    -0.081 Cl
HETATM   22  C   UNL     1      18.016  50.726  45.595  1.00  0.00     0.050 A 
HETATM   23  C   UNL     1      17.303  51.856  45.995  1.00  0.00     0.035 A 
HETATM   24 CL   UNL     1      17.128  53.181  44.913  1.00  0.00    -0.084 Cl
HETATM   25  C   UNL     1      16.735  51.927  47.269  1.00  0.00     0.026 A 
HETATM   26  C   UNL     1      16.870  50.855  48.152  1.00  0.00     0.040 A 
ENDBRANCH  18  19
ENDBRANCH  17  18
ENDBRANCH  13  17
ENDBRANCH  11  13
ENDBRANCH   8  11
ENDBRANCH   3   7
BRANCH   4  27
HETATM   27  O   UNL     1      23.746  46.937  49.852  1.00  0.00    -0.343 OA
BRANCH  27  28
HETATM   28  C   UNL     1      25.136  46.538  49.948  1.00  0.00     0.258 C 
BRANCH  28  29
HETATM   29  C   UNL     1      25.670  46.631  51.343  1.00  0.00     0.172 A 
HETATM   30  N   UNL     1      26.718  45.918  51.786  1.00  0.00    -0.147 NA
HETATM   31  N   UNL     1      26.782  46.293  53.095  1.00  0.00    -0.207 N 
HETATM   32  C   UNL     1      25.800  47.213  53.359  1.00  0.00     0.239 A 
HETATM   33  N   UNL     1      25.089  47.445  52.279  1.00  0.00    -0.223 NA
BRANCH  31  34
HETATM   34  C   UNL     1      27.737  45.783  54.014  1.00  0.00     0.153 A 
HETATM   35  N   UNL     1      28.259  44.555  53.767  1.00  0.00    -0.217 NA
HETATM   36  C   UNL     1      29.169  44.095  54.649  1.00  0.00     0.128 A 
HETATM   37 CL   UNL     1      29.794  42.543  54.282  1.00  0.00    -0.062 Cl
HETATM   38  C   UNL     1      29.591  44.784  55.773  1.00  0.00     0.044 A 
HETATM   39  C   UNL     1      29.041  46.040  56.010  1.00  0.00     0.007 A 
HETATM   40  C   UNL     1      28.099  46.553  55.119  1.00  0.00     0.052 A 
ENDBRANCH  31  34
ENDBRANCH  28  29
ENDBRANCH  27  28
ENDBRANCH   4  27
TORSDOF 10
ENDMDL
MODEL 10
REMARK VINA RESULT:      -8.4      2.959      4.737
REMARK  10 active torsions:
REMARK  status: ('A' for Active; 'I' for Inactive)
REMARK    1  A    between atoms: C_3  and  C_4 
REMARK       I    between atoms: C_4  and  N_5 
REMARK    2  A    between atoms: N_5  and  N_6 
REMARK    3  A    between atoms: N_6  and  C_7 
REMARK    4  A    between atoms: C_7  and  C_8 
REMARK    5  A    between atoms: C_8  and  O_9 
REMARK    6  A    between atoms: O_9  and  C_10 
REMARK    7  A    between atoms: C_22  and  O_23 
REMARK    8  A    between atoms: O_23  and  C_24 
REMARK    9  A    between atoms: C_24  and  C_25 
REMARK   10  A    between atoms: N_27  and  C_28 
ROOT
HETATM    1  C   UNL     1      21.609  44.578  46.496  1.00  0.00     0.001 A 
HETATM    2  C   UNL     1      21.542  45.946  46.759  1.00  0.00     0.020 A 
HETATM    3  C   UNL     1      22.236  46.466  47.857  1.00  0.00     0.067 A 
HETATM    4  C   UNL     1      22.961  45.625  48.707  1.00  0.00     0.085 A 
HETATM    5  C   UNL     1      23.041  44.261  48.426  1.00  0.00     0.038 A 
HETATM    6  C   UNL     1      22.359  43.740  47.325  1.00  0.00     0.003 A 
ENDROOT
BRANCH   3   7
HETATM    7  C   UNL     1      22.159  47.904  48.155  1.00  0.00     0.272 C 
HETATM    8  N   UNL     1      21.180  48.385  49.011  1.00  0.00    -0.264 N 
HETATM    9  H   UNL     1      21.456  49.271  49.439  1.00  0.00     0.190 HD
HETATM   10  O   UNL     1      23.008  48.657  47.689  1.00  0.00    -0.266 OA
BRANCH   8  11
HETATM   11  N   UNL     1      20.252  47.650  49.623  1.00  0.00    -0.285 N 
HETATM   12  H   UNL     1      20.555  46.795  50.096  1.00  0.00     0.188 HD
BRANCH  11  13
HETATM   13  C   UNL     1      18.973  47.999  49.801  1.00  0.00     0.114 C 
HETATM   14  N   UNL     1      18.367  48.130  50.968  1.00  0.00    -0.386 N 
HETATM   15  H   UNL     1      17.393  48.424  50.993  1.00  0.00     0.157 HD
HETATM   16  H   UNL     1      18.830  47.982  51.860  1.00  0.00     0.157 HD
BRANCH  13  17
HETATM   17  C   UNL     1      18.134  48.209  48.567  1.00  0.00     0.253 C 
BRANCH  17  18
HETATM   18  O   UNL     1      18.545  49.430  47.927  1.00  0.00    -0.342 OA
BRANCH  18  19
HETATM   19  C   UNL     1      17.890  50.501  48.478  1.00  0.00     0.091 A 
HETATM   20  C   UNL     1      18.586  51.554  49.091  1.00  0.00     0.069 A 
HETATM   21 CL   UNL     1      20.311  51.570  49.136  1.00  0.00    -0.081 Cl
HETATM   22  C   UNL     1      17.885  52.608  49.673  1.00  0.00     0.050 A 
HETATM   23  C   UNL     1      16.491  52.595  49.659  1.00  0.00     0.035 A 
HETATM   24 CL   UNL     1      15.617  53.892  50.375  1.00  0.00    -0.084 Cl
HETATM   25  C   UNL     1      15.794  51.534  49.075  1.00  0.00     0.026 A 
HETATM   26  C   UNL     1      16.495  50.479  48.490  1.00  0.00     0.040 A 
ENDBRANCH  18  19
ENDBRANCH  17  18
ENDBRANCH  13  17
ENDBRANCH  11  13
ENDBRANCH   8  11
ENDBRANCH   3   7
BRANCH   4  27
HETATM   27  O   UNL     1      23.715  46.190  49.703  1.00  0.00    -0.343 OA
BRANCH  27  28
HETATM   28  C   UNL     1      24.202  45.204  50.646  1.00  0.00     0.258 C 
BRANCH  28  29
HETATM   29  C   UNL     1      25.149  45.783  51.651  1.00  0.00     0.172 A 
HETATM   30  N   UNL     1      26.049  45.053  52.330  1.00  0.00    -0.147 NA
HETATM   31  N   UNL     1      26.617  45.990  53.142  1.00  0.00    -0.207 N 
HETATM   32  C   UNL     1      26.053  47.215  52.897  1.00  0.00     0.239 A 
HETATM   33  N   UNL     1      25.131  47.115  51.966  1.00  0.00    -0.223 NA
BRANCH  31  34
HETATM   34  C   UNL     1      27.635  45.697  54.087  1.00  0.00     0.153 A 
HETATM   35  N   UNL     1      28.381  44.581  53.889  1.00  0.00    -0.217 NA
HETATM   36  C   UNL     1      29.347  44.328  54.796  1.00  0.00     0.128 A 
HETATM   37 CL   UNL     1      30.256  42.910  54.489  1.00  0.00    -0.062 Cl
HETATM   38  C   UNL     1      29.613  45.120  55.899  1.00  0.00     0.044 A 
HETATM   39  C   UNL     1      28.835  46.258  56.086  1.00  0.00     0.007 A 
HETATM   40  C   UNL     1      27.829  46.557  55.168  1.00  0.00     0.052 A 
ENDBRANCH  31  34
ENDBRANCH  28  29
ENDBRANCH  27  28
ENDBRANCH   4  27
TORSDOF 10
ENDMDL
