MODEL 1
REMARK VINA RESULT:      -9.4      0.000      0.000
REMARK  3 active torsions:
REMARK  status: ('A' for Active; 'I' for Inactive)
REMARK    1  A    between atoms: C_6  and  N_7 
REMARK       I    between atoms: N_7  and  C_8 
REMARK    2  A    between atoms: C_8  and  C_9 
REMARK    3  A    between atoms: C_9  and  C_10 
ROOT
HETATM    1  C   UNL     1      25.928  45.344  51.378  1.00  0.00     0.286 C 
HETATM    2  N   UNL     1      26.844  46.044  50.372  1.00  0.00    -0.056 N 
HETATM    3  H   UNL     1      27.792  46.061  50.807  1.00  0.00     0.278 HD
HETATM    4  H   UNL     1      26.926  45.493  49.509  1.00  0.00     0.278 HD
HETATM    5  C   UNL     1      26.370  47.435  50.104  1.00  0.00     0.209 C 
HETATM    6  C   UNL     1      24.951  47.354  49.498  1.00  0.00     0.115 C 
HETATM    7  N   UNL     1      24.040  46.538  50.302  1.00  0.00    -0.353 N 
HETATM    8  C   UNL     1      24.456  45.374  50.923  1.00  0.00     0.249 C 
HETATM    9  O   UNL     1      23.661  44.474  51.165  1.00  0.00    -0.271 OA
HETATM   10  C   UNL     1      27.330  48.147  49.161  1.00  0.00     0.035 C 
HETATM   11  C   UNL     1      26.820  49.560  48.878  1.00  0.00     0.002 C 
HETATM   12  C   UNL     1      25.376  49.569  48.370  1.00  0.00     0.002 C 
HETATM   13  C   UNL     1      24.422  48.770  49.266  1.00  0.00     0.027 C 
HETATM   14  H   UNL     1      23.065  46.494  50.011  1.00  0.00     0.163 HD
ENDROOT
BRANCH   1  15
HETATM   15  C   UNL     1      26.441  43.930  51.678  1.00  0.00     0.146 C 
BRANCH  15  16
HETATM   16  C   UNL     1      27.028  43.920  53.072  1.00  0.00     0.224 C 
HETATM   17  N   UNL     1      28.342  44.317  53.146  1.00  0.00    -0.327 N 
HETATM   18  H   UNL     1      28.759  44.745  52.328  1.00  0.00     0.169 HD
HETATM   19  O   UNL     1      26.291  43.643  54.019  1.00  0.00    -0.273 OA
BRANCH  17  20
HETATM   20  C   UNL     1      29.146  44.301  54.316  1.00  0.00     0.040 A 
HETATM   21  C   UNL     1      29.094  45.391  55.207  1.00  0.00    -0.035 A 
HETATM   22  C   UNL     1      29.897  45.370  56.365  1.00  0.00     0.015 A 
HETATM   23  C   UNL     1      28.192  46.575  54.989  1.00  0.00     0.050 C 
HETATM   24  C   UNL     1      30.753  44.300  56.641  1.00  0.00    -0.061 A 
HETATM   25  C   UNL     1      31.588  44.269  57.888  1.00  0.00     0.048 C 
HETATM   26  C   UNL     1      30.806  43.234  55.746  1.00  0.00     0.009 A 
HETATM   27  C   UNL     1      30.014  43.237  54.596  1.00  0.00     0.030 A 
ENDBRANCH  17  20
ENDBRANCH  15  16
ENDBRANCH   1  15
TORSDOF 3
ENDMDL
MODEL 2
REMARK VINA RESULT:      -9.2      3.197      4.624
REMARK  3 active torsions:
REMARK  status: ('A' for Active; 'I' for Inactive)
REMARK    1  A    between atoms: C_6  and  N_7 
REMARK       I    between atoms: N_7  and  C_8 
REMARK    2  A    between atoms: C_8  and  C_9 
REMARK    3  A    between atoms: C_9  and  C_10 
ROOT
HETATM    1  C   UNL     1      25.801  43.567  51.553  1.00  0.00     0.286 C 
HETATM    2  N   UNL     1      26.763  42.452  51.968  1.00  0.00    -0.056 N 
HETATM    3  H   UNL     1      27.618  42.927  52.328  1.00  0.00     0.278 HD
HETATM    4  H   UNL     1      26.376  41.909  52.750  1.00  0.00     0.278 HD
HETATM    5  C   UNL     1      27.102  41.584  50.801  1.00  0.00     0.209 C 
HETATM    6  C   UNL     1      25.798  40.937  50.284  1.00  0.00     0.115 C 
HETATM    7  N   UNL     1      24.742  41.919  50.033  1.00  0.00    -0.353 N 
HETATM    8  C   UNL     1      24.540  43.005  50.866  1.00  0.00     0.249 C 
HETATM    9  O   UNL     1      23.436  43.524  50.964  1.00  0.00    -0.271 OA
HETATM   10  C   UNL     1      28.117  40.525  51.208  1.00  0.00     0.035 C 
HETATM   11  C   UNL     1      28.438  39.632  50.009  1.00  0.00     0.002 C 
HETATM   12  C   UNL     1      27.179  39.033  49.374  1.00  0.00     0.002 C 
HETATM   13  C   UNL     1      26.113  40.087  49.052  1.00  0.00     0.027 C 
HETATM   14  H   UNL     1      23.874  41.582  49.621  1.00  0.00     0.163 HD
ENDROOT
BRANCH   1  15
HETATM   15  C   UNL     1      25.486  44.477  52.747  1.00  0.00     0.146 C 
BRANCH  15  16
HETATM   16  C   UNL     1      26.436  44.133  53.873  1.00  0.00     0.224 C 
HETATM   17  N   UNL     1      27.684  44.701  53.766  1.00  0.00    -0.327 N 
HETATM   18  H   UNL     1      27.822  45.424  53.070  1.00  0.00     0.169 HD
HETATM   19  O   UNL     1      26.014  43.458  54.814  1.00  0.00    -0.273 OA
BRANCH  17  20
HETATM   20  C   UNL     1      28.779  44.457  54.635  1.00  0.00     0.040 A 
HETATM   21  C   UNL     1      29.127  45.423  55.599  1.00  0.00    -0.035 A 
HETATM   22  C   UNL     1      30.218  45.177  56.457  1.00  0.00     0.015 A 
HETATM   23  C   UNL     1      28.362  46.707  55.775  1.00  0.00     0.050 C 
HETATM   24  C   UNL     1      30.971  44.002  56.361  1.00  0.00    -0.061 A 
HETATM   25  C   UNL     1      32.116  43.730  57.292  1.00  0.00     0.048 C 
HETATM   26  C   UNL     1      30.625  43.060  55.395  1.00  0.00     0.009 A 
HETATM   27  C   UNL     1      29.545  43.287  54.541  1.00  0.00     0.030 A 
ENDBRANCH  17  20
ENDBRANCH  15  16
ENDBRANCH   1  15
TORSDOF 3
ENDMDL
MODEL 3
REMARK VINA RESULT:      -9.0      2.558      4.488
REMARK  3 active torsions:
REMARK  status: ('A' for Active; 'I' for Inactive)
REMARK    1  A    between atoms: C_6  and  N_7 
REMARK       I    between atoms: N_7  and  C_8 
REMARK    2  A    between atoms: C_8  and  C_9 
REMARK    3  A    between atoms: C_9  and  C_10 
ROOT
HETATM    1  C   UNL     1      26.065  44.127  51.239  1.00  0.00     0.286 C 
HETATM    2  N   UNL     1      25.908  42.636  51.542  1.00  0.00    -0.056 N 
HETATM    3  H   UNL     1      26.525  42.440  52.359  1.00  0.00     0.278 HD
HETATM    4  H   UNL     1      24.948  42.424  51.841  1.00  0.00     0.278 HD
HETATM    5  C   UNL     1      26.322  41.811  50.368  1.00  0.00     0.209 C 
HETATM    6  C   UNL     1      25.403  42.167  49.178  1.00  0.00     0.115 C 
HETATM    7  N   UNL     1      25.340  43.608  48.926  1.00  0.00    -0.353 N 
HETATM    8  C   UNL     1      25.312  44.531  49.957  1.00  0.00     0.249 C 
HETATM    9  O   UNL     1      24.790  45.627  49.802  1.00  0.00    -0.271 OA
HETATM   10  C   UNL     1      26.232  40.329  50.706  1.00  0.00     0.035 C 
HETATM   11  C   UNL     1      26.638  39.498  49.488  1.00  0.00     0.002 C 
HETATM   12  C   UNL     1      25.838  39.869  48.236  1.00  0.00     0.002 C 
HETATM   13  C   UNL     1      25.845  41.375  47.947  1.00  0.00     0.027 C 
HETATM   14  H   UNL     1      24.814  43.921  48.112  1.00  0.00     0.163 HD
ENDROOT
BRANCH   1  15
HETATM   15  C   UNL     1      25.674  44.968  52.462  1.00  0.00     0.146 C 
BRANCH  15  16
HETATM   16  C   UNL     1      26.537  44.543  53.630  1.00  0.00     0.224 C 
HETATM   17  N   UNL     1      27.852  44.937  53.546  1.00  0.00    -0.327 N 
HETATM   18  H   UNL     1      28.105  45.610  52.832  1.00  0.00     0.169 HD
HETATM   19  O   UNL     1      26.003  43.965  54.577  1.00  0.00    -0.273 OA
BRANCH  17  20
HETATM   20  C   UNL     1      28.879  44.582  54.459  1.00  0.00     0.040 A 
HETATM   21  C   UNL     1      29.615  43.400  54.248  1.00  0.00    -0.035 A 
HETATM   22  C   UNL     1      30.632  43.051  55.159  1.00  0.00     0.015 A 
HETATM   23  C   UNL     1      29.381  42.497  53.067  1.00  0.00     0.050 C 
HETATM   24  C   UNL     1      30.915  43.844  56.275  1.00  0.00    -0.061 A 
HETATM   25  C   UNL     1      32.015  43.484  57.230  1.00  0.00     0.048 C 
HETATM   26  C   UNL     1      30.173  45.005  56.481  1.00  0.00     0.009 A 
HETATM   27  C   UNL     1      29.165  45.366  55.585  1.00  0.00     0.030 A 
ENDBRANCH  17  20
ENDBRANCH  15  16
ENDBRANCH   1  15
TORSDOF 3
ENDMDL
MODEL 4
REMARK VINA RESULT:      -8.7      1.714      2.122
REMARK  3 active torsions:
REMARK  status: ('A' for Active; 'I' for Inactive)
REMARK    1  A    between atoms: C_6  and  N_7 
REMARK       I    between atoms: N_7  and  C_8 
REMARK    2  A    between atoms: C_8  and  C_9 
REMARK    3  A    between atoms: C_9  and  C_10 
ROOT
HETATM    1  C   UNL     1      24.207  44.180  50.740  1.00  0.00     0.286 C 
HETATM    2  N   UNL     1      25.156  45.249  50.194  1.00  0.00    -0.056 N 
HETATM    3  H   UNL     1      25.916  45.349  50.901  1.00  0.00     0.278 HD
HETATM    4  H   UNL     1      25.603  44.931  49.325  1.00  0.00     0.278 HD
HETATM    5  C   UNL     1      24.441  46.548  50.011  1.00  0.00     0.209 C 
HETATM    6  C   UNL     1      23.305  46.334  48.986  1.00  0.00     0.115 C 
HETATM    7  N   UNL     1      22.444  45.200  49.327  1.00  0.00    -0.353 N 
HETATM    8  C   UNL     1      22.953  44.028  49.857  1.00  0.00     0.249 C 
HETATM    9  O   UNL     1      22.373  42.962  49.694  1.00  0.00    -0.271 OA
HETATM   10  C   UNL     1      25.411  47.622  49.540  1.00  0.00     0.035 C 
HETATM   11  C   UNL     1      24.660  48.939  49.336  1.00  0.00     0.002 C 
HETATM   12  C   UNL     1      23.451  48.784  48.409  1.00  0.00     0.002 C 
HETATM   13  C   UNL     1      22.522  47.637  48.825  1.00  0.00     0.027 C 
HETATM   14  H   UNL     1      21.626  45.036  48.742  1.00  0.00     0.163 HD
ENDROOT
BRANCH   1  15
HETATM   15  C   UNL     1      24.956  42.859  50.961  1.00  0.00     0.146 C 
BRANCH  15  16
HETATM   16  C   UNL     1      26.324  43.174  51.526  1.00  0.00     0.224 C 
HETATM   17  N   UNL     1      26.428  43.035  52.890  1.00  0.00    -0.327 N 
HETATM   18  H   UNL     1      25.671  42.577  53.383  1.00  0.00     0.169 HD
HETATM   19  O   UNL     1      27.236  43.446  50.744  1.00  0.00    -0.273 OA
BRANCH  17  20
HETATM   20  C   UNL     1      27.568  43.364  53.669  1.00  0.00     0.040 A 
HETATM   21  C   UNL     1      27.649  44.631  54.278  1.00  0.00    -0.035 A 
HETATM   22  C   UNL     1      28.785  44.953  55.047  1.00  0.00     0.015 A 
HETATM   23  C   UNL     1      26.554  45.657  54.167  1.00  0.00     0.050 C 
HETATM   24  C   UNL     1      29.840  44.049  55.205  1.00  0.00    -0.061 A 
HETATM   25  C   UNL     1      31.037  44.383  56.046  1.00  0.00     0.048 C 
HETATM   26  C   UNL     1      29.755  42.803  54.588  1.00  0.00     0.009 A 
HETATM   27  C   UNL     1      28.634  42.468  53.826  1.00  0.00     0.030 A 
ENDBRANCH  17  20
ENDBRANCH  15  16
ENDBRANCH   1  15
TORSDOF 3
ENDMDL
MODEL 5
REMARK VINA RESULT:      -8.6      2.157      7.583
REMARK  3 active torsions:
REMARK  status: ('A' for Active; 'I' for Inactive)
REMARK    1  A    between atoms: C_6  and  N_7 
REMARK       I    between atoms: N_7  and  C_8 
REMARK    2  A    between atoms: C_8  and  C_9 
REMARK    3  A    between atoms: C_9  and  C_10 
ROOT
HETATM    1  C   UNL     1      27.050  42.455  51.266  1.00  0.00     0.286 C 
HETATM    2  N   UNL     1      26.797  43.086  52.636  1.00  0.00    -0.056 N 
HETATM    3  H   UNL     1      26.119  43.863  52.476  1.00  0.00     0.278 HD
HETATM    4  H   UNL     1      26.336  42.419  53.266  1.00  0.00     0.278 HD
HETATM    5  C   UNL     1      28.067  43.616  53.217  1.00  0.00     0.209 C 
HETATM    6  C   UNL     1      29.046  42.435  53.397  1.00  0.00     0.115 C 
HETATM    7  N   UNL     1      29.211  41.648  52.175  1.00  0.00    -0.353 N 
HETATM    8  C   UNL     1      28.149  41.376  51.331  1.00  0.00     0.249 C 
HETATM    9  O   UNL     1      28.150  40.376  50.624  1.00  0.00    -0.271 OA
HETATM   10  C   UNL     1      27.791  44.309  54.545  1.00  0.00     0.035 C 
HETATM   11  C   UNL     1      29.103  44.826  55.137  1.00  0.00     0.002 C 
HETATM   12  C   UNL     1      30.165  43.729  55.251  1.00  0.00     0.002 C 
HETATM   13  C   UNL     1      30.376  42.963  53.939  1.00  0.00     0.027 C 
HETATM   14  H   UNL     1      29.897  40.895  52.188  1.00  0.00     0.163 HD
ENDROOT
BRANCH   1  15
HETATM   15  C   UNL     1      25.737  41.946  50.658  1.00  0.00     0.146 C 
BRANCH  15  16
HETATM   16  C   UNL     1      24.761  43.101  50.593  1.00  0.00     0.224 C 
HETATM   17  N   UNL     1      25.053  44.047  49.639  1.00  0.00    -0.327 N 
HETATM   18  H   UNL     1      25.765  43.829  48.951  1.00  0.00     0.169 HD
HETATM   19  O   UNL     1      23.767  43.073  51.319  1.00  0.00    -0.273 OA
BRANCH  17  20
HETATM   20  C   UNL     1      24.354  45.267  49.445  1.00  0.00     0.040 A 
HETATM   21  C   UNL     1      24.798  46.431  50.101  1.00  0.00    -0.035 A 
HETATM   22  C   UNL     1      24.098  47.639  49.908  1.00  0.00     0.015 A 
HETATM   23  C   UNL     1      26.015  46.450  50.987  1.00  0.00     0.050 C 
HETATM   24  C   UNL     1      22.964  47.702  49.092  1.00  0.00    -0.061 A 
HETATM   25  C   UNL     1      22.236  48.995  48.866  1.00  0.00     0.048 C 
HETATM   26  C   UNL     1      22.527  46.542  48.458  1.00  0.00     0.009 A 
HETATM   27  C   UNL     1      23.212  45.338  48.636  1.00  0.00     0.030 A 
ENDBRANCH  17  20
ENDBRANCH  15  16
ENDBRANCH   1  15
TORSDOF 3
ENDMDL
MODEL 6
REMARK VINA RESULT:      -8.4      2.064      3.399
REMARK  3 active torsions:
REMARK  status: ('A' for Active; 'I' for Inactive)
REMARK    1  A    between atoms: C_6  and  N_7 
REMARK       I    between atoms: N_7  and  C_8 
REMARK    2  A    between atoms: C_8  and  C_9 
REMARK    3  A    between atoms: C_9  and  C_10 
ROOT
HETATM    1  C   UNL     1      25.696  45.754  51.794  1.00  0.00     0.286 C 
HETATM    2  N   UNL     1      25.163  44.321  51.869  1.00  0.00    -0.056 N 
HETATM    3  H   UNL     1      25.827  43.797  52.480  1.00  0.00     0.278 HD
HETATM    4  H   UNL     1      24.250  44.296  52.338  1.00  0.00     0.278 HD
HETATM    5  C   UNL     1      25.110  43.705  50.510  1.00  0.00     0.209 C 
HETATM    6  C   UNL     1      24.146  44.540  49.638  1.00  0.00     0.115 C 
HETATM    7  N   UNL     1      24.465  45.968  49.653  1.00  0.00    -0.353 N 
HETATM    8  C   UNL     1      24.885  46.612  50.804  1.00  0.00     0.249 C 
HETATM    9  O   UNL     1      24.689  47.810  50.959  1.00  0.00    -0.271 OA
HETATM   10  C   UNL     1      24.650  42.257  50.605  1.00  0.00     0.035 C 
HETATM   11  C   UNL     1      24.579  41.646  49.205  1.00  0.00     0.002 C 
HETATM   12  C   UNL     1      23.721  42.479  48.248  1.00  0.00     0.002 C 
HETATM   13  C   UNL     1      24.118  43.960  48.223  1.00  0.00     0.027 C 
HETATM   14  H   UNL     1      23.922  46.579  49.045  1.00  0.00     0.163 HD
ENDROOT
BRANCH   1  15
HETATM   15  C   UNL     1      25.784  46.368  53.197  1.00  0.00     0.146 C 
BRANCH  15  16
HETATM   16  C   UNL     1      26.612  45.450  54.070  1.00  0.00     0.224 C 
HETATM   17  N   UNL     1      27.913  45.854  54.258  1.00  0.00    -0.327 N 
HETATM   18  H   UNL     1      28.170  46.789  53.964  1.00  0.00     0.169 HD
HETATM   19  O   UNL     1      26.060  44.483  54.597  1.00  0.00    -0.273 OA
BRANCH  17  20
HETATM   20  C   UNL     1      28.913  45.122  54.948  1.00  0.00     0.040 A 
HETATM   21  C   UNL     1      29.242  45.477  56.272  1.00  0.00    -0.035 A 
HETATM   22  C   UNL     1      30.239  44.748  56.951  1.00  0.00     0.015 A 
HETATM   23  C   UNL     1      28.551  46.592  57.009  1.00  0.00     0.050 C 
HETATM   24  C   UNL     1      30.919  43.693  56.336  1.00  0.00    -0.061 A 
HETATM   25  C   UNL     1      31.961  42.902  57.070  1.00  0.00     0.048 C 
HETATM   26  C   UNL     1      30.594  43.359  55.023  1.00  0.00     0.009 A 
HETATM   27  C   UNL     1      29.606  44.069  54.338  1.00  0.00     0.030 A 
ENDBRANCH  17  20
ENDBRANCH  15  16
ENDBRANCH   1  15
TORSDOF 3
ENDMDL
MODEL 7
REMARK VINA RESULT:      -8.3      2.741      7.636
REMARK  3 active torsions:
REMARK  status: ('A' for Active; 'I' for Inactive)
REMARK    1  A    between atoms: C_6  and  N_7 
REMARK       I    between atoms: N_7  and  C_8 
REMARK    2  A    between atoms: C_8  and  C_9 
REMARK    3  A    between atoms: C_9  and  C_10 
ROOT
HETATM    1  C   UNL     1      26.674  45.891  54.386  1.00  0.00     0.286 C 
HETATM    2  N   UNL     1      27.775  44.978  53.841  1.00  0.00    -0.056 N 
HETATM    3  H   UNL     1      27.288  44.164  53.409  1.00  0.00     0.278 HD
HETATM    4  H   UNL     1      28.296  45.444  53.088  1.00  0.00     0.278 HD
HETATM    5  C   UNL     1      28.675  44.521  54.942  1.00  0.00     0.209 C 
HETATM    6  C   UNL     1      29.339  45.765  55.572  1.00  0.00     0.115 C 
HETATM    7  N   UNL     1      28.367  46.789  55.958  1.00  0.00    -0.353 N 
HETATM    8  C   UNL     1      27.258  47.074  55.182  1.00  0.00     0.249 C 
HETATM    9  O   UNL     1      26.739  48.183  55.214  1.00  0.00    -0.271 OA
HETATM   10  C   UNL     1      29.720  43.555  54.402  1.00  0.00     0.035 C 
HETATM   11  C   UNL     1      30.647  43.113  55.535  1.00  0.00     0.002 C 
HETATM   12  C   UNL     1      31.266  44.300  56.279  1.00  0.00     0.002 C 
HETATM   13  C   UNL     1      30.224  45.325  56.740  1.00  0.00     0.027 C 
HETATM   14  H   UNL     1      28.717  47.610  56.449  1.00  0.00     0.163 HD
ENDROOT
BRANCH   1  15
HETATM   15  C   UNL     1      25.731  46.327  53.257  1.00  0.00     0.146 C 
BRANCH  15  16
HETATM   16  C   UNL     1      25.146  45.087  52.617  1.00  0.00     0.224 C 
HETATM   17  N   UNL     1      25.207  45.065  51.244  1.00  0.00    -0.327 N 
HETATM   18  H   UNL     1      25.776  45.762  50.779  1.00  0.00     0.169 HD
HETATM   19  O   UNL     1      24.742  44.182  53.349  1.00  0.00    -0.273 OA
BRANCH  17  20
HETATM   20  C   UNL     1      24.641  44.067  50.408  1.00  0.00     0.040 A 
HETATM   21  C   UNL     1      25.483  43.115  49.799  1.00  0.00    -0.035 A 
HETATM   22  C   UNL     1      24.916  42.128  48.968  1.00  0.00     0.015 A 
HETATM   23  C   UNL     1      26.971  43.088  50.020  1.00  0.00     0.050 C 
HETATM   24  C   UNL     1      23.540  42.083  48.722  1.00  0.00    -0.061 A 
HETATM   25  C   UNL     1      22.936  41.016  47.858  1.00  0.00     0.048 C 
HETATM   26  C   UNL     1      22.719  43.037  49.320  1.00  0.00     0.009 A 
HETATM   27  C   UNL     1      23.265  44.018  50.149  1.00  0.00     0.030 A 
ENDBRANCH  17  20
ENDBRANCH  15  16
ENDBRANCH   1  15
TORSDOF 3
ENDMDL
MODEL 8
REMARK VINA RESULT:      -8.3      3.115      6.762
REMARK  3 active torsions:
REMARK  status: ('A' for Active; 'I' for Inactive)
REMARK    1  A    between atoms: C_6  and  N_7 
REMARK       I    between atoms: N_7  and  C_8 
REMARK    2  A    between atoms: C_8  and  C_9 
REMARK    3  A    between atoms: C_9  and  C_10 
ROOT
HETATM    1  C   UNL     1      26.626  45.065  53.304  1.00  0.00     0.286 C 
HETATM    2  N   UNL     1      28.031  44.460  53.263  1.00  0.00    -0.056 N 
HETATM    3  H   UNL     1      27.920  43.495  52.882  1.00  0.00     0.278 HD
HETATM    4  H   UNL     1      28.629  44.970  52.601  1.00  0.00     0.278 HD
HETATM    5  C   UNL     1      28.627  44.414  54.632  1.00  0.00     0.209 C 
HETATM    6  C   UNL     1      28.734  45.860  55.162  1.00  0.00     0.115 C 
HETATM    7  N   UNL     1      27.469  46.591  55.066  1.00  0.00    -0.353 N 
HETATM    8  C   UNL     1      26.622  46.449  53.982  1.00  0.00     0.249 C 
HETATM    9  O   UNL     1      25.863  47.353  53.657  1.00  0.00    -0.271 OA
HETATM   10  C   UNL     1      29.993  43.742  54.590  1.00  0.00     0.035 C 
HETATM   11  C   UNL     1      30.599  43.721  55.993  1.00  0.00     0.002 C 
HETATM   12  C   UNL     1      30.643  45.114  56.630  1.00  0.00     0.002 C 
HETATM   13  C   UNL     1      29.290  45.834  56.586  1.00  0.00     0.027 C 
HETATM   14  H   UNL     1      27.435  47.529  55.463  1.00  0.00     0.163 HD
ENDROOT
BRANCH   1  15
HETATM   15  C   UNL     1      26.005  45.076  51.901  1.00  0.00     0.146 C 
BRANCH  15  16
HETATM   16  C   UNL     1      26.803  44.141  51.018  1.00  0.00     0.224 C 
HETATM   17  N   UNL     1      26.426  42.820  51.091  1.00  0.00    -0.327 N 
HETATM   18  H   UNL     1      25.562  42.595  51.569  1.00  0.00     0.169 HD
HETATM   19  O   UNL     1      27.649  44.623  50.264  1.00  0.00    -0.273 OA
BRANCH  17  20
HETATM   20  C   UNL     1      27.077  41.739  50.441  1.00  0.00     0.040 A 
HETATM   21  C   UNL     1      27.917  40.888  51.186  1.00  0.00    -0.035 A 
HETATM   22  C   UNL     1      28.564  39.818  50.534  1.00  0.00     0.015 A 
HETATM   23  C   UNL     1      28.135  41.054  52.665  1.00  0.00     0.050 C 
HETATM   24  C   UNL     1      28.402  39.594  49.164  1.00  0.00    -0.061 A 
HETATM   25  C   UNL     1      29.071  38.439  48.477  1.00  0.00     0.048 C 
HETATM   26  C   UNL     1      27.580  40.450  48.435  1.00  0.00     0.009 A 
HETATM   27  C   UNL     1      26.929  41.512  49.066  1.00  0.00     0.030 A 
ENDBRANCH  17  20
ENDBRANCH  15  16
ENDBRANCH   1  15
TORSDOF 3
ENDMDL
MODEL 9
REMARK VINA RESULT:      -8.1      4.048      6.009
REMARK  3 active torsions:
REMARK  status: ('A' for Active; 'I' for Inactive)
REMARK    1  A    between atoms: C_6  and  N_7 
REMARK       I    between atoms: N_7  and  C_8 
REMARK    2  A    between atoms: C_8  and  C_9 
REMARK    3  A    between atoms: C_9  and  C_10 
ROOT
HETATM    1  C   UNL     1      26.021  41.867  49.741  1.00  0.00     0.286 C 
HETATM    2  N   UNL     1      27.092  40.928  50.299  1.00  0.00    -0.056 N 
HETATM    3  H   UNL     1      27.832  41.540  50.704  1.00  0.00     0.278 HD
HETATM    4  H   UNL     1      26.717  40.367  51.074  1.00  0.00     0.278 HD
HETATM    5  C   UNL     1      27.661  40.071  49.216  1.00  0.00     0.209 C 
HETATM    6  C   UNL     1      26.519  39.215  48.626  1.00  0.00     0.115 C 
HETATM    7  N   UNL     1      25.359  40.016  48.231  1.00  0.00    -0.353 N 
HETATM    8  C   UNL     1      24.925  41.094  48.982  1.00  0.00     0.249 C 
HETATM    9  O   UNL     1      23.753  41.446  48.955  1.00  0.00    -0.271 OA
HETATM   10  C   UNL     1      28.777  39.195  49.767  1.00  0.00     0.035 C 
HETATM   11  C   UNL     1      29.334  38.309  48.652  1.00  0.00     0.002 C 
HETATM   12  C   UNL     1      28.240  37.502  47.946  1.00  0.00     0.002 C 
HETATM   13  C   UNL     1      27.067  38.370  47.475  1.00  0.00     0.027 C 
HETATM   14  H   UNL     1      24.591  39.536  47.765  1.00  0.00     0.163 HD
ENDROOT
BRANCH   1  15
HETATM   15  C   UNL     1      25.467  42.769  50.852  1.00  0.00     0.146 C 
BRANCH  15  16
HETATM   16  C   UNL     1      26.631  43.439  51.548  1.00  0.00     0.224 C 
HETATM   17  N   UNL     1      26.750  43.141  52.885  1.00  0.00    -0.327 N 
HETATM   18  H   UNL     1      26.188  42.385  53.259  1.00  0.00     0.169 HD
HETATM   19  O   UNL     1      27.409  44.118  50.875  1.00  0.00    -0.273 OA
BRANCH  17  20
HETATM   20  C   UNL     1      27.693  43.714  53.779  1.00  0.00     0.040 A 
HETATM   21  C   UNL     1      28.946  43.095  53.955  1.00  0.00    -0.035 A 
HETATM   22  C   UNL     1      29.876  43.667  54.846  1.00  0.00     0.015 A 
HETATM   23  C   UNL     1      29.350  41.853  53.208  1.00  0.00     0.050 C 
HETATM   24  C   UNL     1      29.576  44.826  55.569  1.00  0.00    -0.061 A 
HETATM   25  C   UNL     1      30.577  45.448  56.498  1.00  0.00     0.048 C 
HETATM   26  C   UNL     1      28.329  45.422  55.396  1.00  0.00     0.009 A 
HETATM   27  C   UNL     1      27.398  44.870  54.514  1.00  0.00     0.030 A 
ENDBRANCH  17  20
ENDBRANCH  15  16
ENDBRANCH   1  15
TORSDOF 3
ENDMDL
MODEL 10
REMARK VINA RESULT:      -7.8      2.673      3.756
REMARK  3 active torsions:
REMARK  status: ('A' for Active; 'I' for Inactive)
REMARK    1  A    between atoms: C_6  and  N_7 
REMARK       I    between atoms: N_7  and  C_8 
REMARK    2  A    between atoms: C_8  and  C_9 
REMARK    3  A    between atoms: C_9  and  C_10 
ROOT
HETATM    1  C   UNL     1      25.542  46.159  53.212  1.00  0.00     0.286 C 
HETATM    2  N   UNL     1      26.606  45.865  52.152  1.00  0.00    -0.056 N 
HETATM    3  H   UNL     1      26.790  46.769  51.667  1.00  0.00     0.278 HD
HETATM    4  H   UNL     1      27.490  45.581  52.592  1.00  0.00     0.278 HD
HETATM    5  C   UNL     1      26.115  44.843  51.179  1.00  0.00     0.209 C 
HETATM    6  C   UNL     1      25.822  43.539  51.954  1.00  0.00     0.115 C 
HETATM    7  N   UNL     1      24.953  43.753  53.112  1.00  0.00    -0.353 N 
HETATM    8  C   UNL     1      25.069  44.872  53.917  1.00  0.00     0.249 C 
HETATM    9  O   UNL     1      24.725  44.839  55.091  1.00  0.00    -0.271 OA
HETATM   10  C   UNL     1      27.151  44.614  50.088  1.00  0.00     0.035 C 
HETATM   11  C   UNL     1      26.643  43.550  49.112  1.00  0.00     0.002 C 
HETATM   12  C   UNL     1      26.233  42.256  49.822  1.00  0.00     0.002 C 
HETATM   13  C   UNL     1      25.264  42.494  50.986  1.00  0.00     0.027 C 
HETATM   14  H   UNL     1      24.652  42.931  53.633  1.00  0.00     0.163 HD
ENDROOT
BRANCH   1  15
HETATM   15  C   UNL     1      26.039  47.235  54.186  1.00  0.00     0.146 C 
BRANCH  15  16
HETATM   16  C   UNL     1      27.455  46.894  54.595  1.00  0.00     0.224 C 
HETATM   17  N   UNL     1      27.616  45.628  55.107  1.00  0.00    -0.327 N 
HETATM   18  H   UNL     1      26.849  44.973  55.014  1.00  0.00     0.169 HD
HETATM   19  O   UNL     1      28.346  47.716  54.374  1.00  0.00    -0.273 OA
BRANCH  17  20
HETATM   20  C   UNL     1      28.818  45.104  55.651  1.00  0.00     0.040 A 
HETATM   21  C   UNL     1      29.479  44.054  54.985  1.00  0.00    -0.035 A 
HETATM   22  C   UNL     1      30.670  43.535  55.531  1.00  0.00     0.015 A 
HETATM   23  C   UNL     1      28.981  43.473  53.689  1.00  0.00     0.050 C 
HETATM   24  C   UNL     1      31.201  44.030  56.727  1.00  0.00    -0.061 A 
HETATM   25  C   UNL     1      32.483  43.494  57.293  1.00  0.00     0.048 C 
HETATM   26  C   UNL     1      30.532  45.060  57.383  1.00  0.00     0.009 A 
HETATM   27  C   UNL     1      29.352  45.587  56.853  1.00  0.00     0.030 A 
ENDBRANCH  17  20
ENDBRANCH  15  16
ENDBRANCH   1  15
TORSDOF 3
ENDMDL
