MODEL 1
REMARK VINA RESULT:     -10.1      0.000      0.000
REMARK  7 active torsions:
REMARK  status: ('A' for Active; 'I' for Inactive)
REMARK    1  A    between atoms: C_8  and  C_9 
REMARK    2  A    between atoms: C_9  and  C_10 
REMARK    3  A    between atoms: C_10  and  N_11 
REMARK    4  A    between atoms: C_10  and  C_19 
REMARK       I    between atoms: N_11  and  C_12 
REMARK    5  A    between atoms: C_12  and  C_13 
REMARK       I    between atoms: C_19  and  N_20 
REMARK    6  A    between atoms: N_20  and  N_21 
REMARK       I    between atoms: N_21  and  C_22 
REMARK       I    between atoms: C_22  and  N_23 
REMARK    7  A    between atoms: N_23  and  C_24 
ROOT
HETATM    1  C   UNL     1      26.767  45.832  52.340  1.00  0.00     0.183 C 
ENDROOT
BRANCH   1   2
HETATM    2  C   UNL     1      26.400  45.649  53.825  1.00  0.00     0.076 C 
BRANCH   2   3
HETATM    3  C   UNL     1      27.572  45.708  54.761  1.00  0.00    -0.028 A 
HETATM    4  C   UNL     1      28.643  44.764  54.885  1.00  0.00    -0.002 A 
HETATM    5  C   UNL     1      28.972  43.554  54.239  1.00  0.00     0.014 A 
HETATM    6  C   UNL     1      29.493  45.229  55.890  1.00  0.00     0.042 A 
HETATM    7  C   UNL     1      30.118  42.851  54.630  1.00  0.00     0.001 A 
HETATM    8  C   UNL     1      30.939  43.339  55.641  1.00  0.00     0.002 A 
HETATM    9  C   UNL     1      30.646  44.542  56.289  1.00  0.00     0.030 A 
HETATM   10  N   UNL     1      28.974  46.418  56.343  1.00  0.00    -0.365 N 
HETATM   11  H   UNL     1      29.393  46.990  57.064  1.00  0.00     0.165 HD
HETATM   12  C   UNL     1      27.817  46.713  55.677  1.00  0.00     0.096 A 
ENDBRANCH   2   3
ENDBRANCH   1   2
BRANCH   1  13
HETATM   13  N   UNL     1      26.881  44.583  51.583  1.00  0.00    -0.343 N 
HETATM   14  C   UNL     1      25.886  43.627  51.570  1.00  0.00     0.259 C 
HETATM   15  O   UNL     1      24.743  43.904  51.923  1.00  0.00    -0.267 OA
HETATM   16  H   UNL     1      27.820  44.214  51.476  1.00  0.00     0.163 HD
BRANCH  14  17
HETATM   17  C   UNL     1      26.281  42.310  51.085  1.00  0.00     0.072 A 
HETATM   18  S   UNL     1      25.331  41.428  49.958  1.00  0.00    -0.097 SA
HETATM   19  C   UNL     1      26.420  40.112  49.959  1.00  0.00     0.050 A 
HETATM   20  C   UNL     1      27.496  40.333  50.788  1.00  0.00     0.009 A 
HETATM   21  C   UNL     1      27.416  41.601  51.435  1.00  0.00     0.025 A 
ENDBRANCH  14  17
ENDBRANCH   1  13
BRANCH   1  22
HETATM   22  C   UNL     1      25.863  46.913  51.716  1.00  0.00     0.259 C 
HETATM   23  N   UNL     1      26.165  47.247  50.408  1.00  0.00    -0.264 N 
HETATM   24  H   UNL     1      26.569  46.529  49.807  1.00  0.00     0.190 HD
HETATM   25  O   UNL     1      25.048  47.556  52.383  1.00  0.00    -0.269 OA
BRANCH  23  26
HETATM   26  N   UNL     1      25.279  48.130  49.768  1.00  0.00    -0.249 N 
HETATM   27  C   UNL     1      25.757  48.952  48.789  1.00  0.00     0.339 C 
HETATM   28  N   UNL     1      24.879  49.825  48.215  1.00  0.00    -0.308 N 
HETATM   29  O   UNL     1      26.942  48.960  48.455  1.00  0.00    -0.245 OA
HETATM   30  H   UNL     1      25.367  50.518  47.659  1.00  0.00     0.170 HD
HETATM   31  H   UNL     1      24.493  48.434  50.332  1.00  0.00     0.192 HD
BRANCH  28  32
HETATM   32  C   UNL     1      23.474  49.902  48.235  1.00  0.00     0.036 A 
HETATM   33  C   UNL     1      22.619  48.867  47.846  1.00  0.00     0.031 A 
HETATM   34  C   UNL     1      21.229  49.028  47.913  1.00  0.00     0.026 A 
HETATM   35  C   UNL     1      20.689  50.234  48.347  1.00  0.00     0.034 A 
HETATM   36 CL   UNL     1      18.983  50.430  48.435  1.00  0.00    -0.084 Cl
HETATM   37  C   UNL     1      21.527  51.288  48.699  1.00  0.00     0.026 A 
HETATM   38  C   UNL     1      22.915  51.124  48.633  1.00  0.00     0.031 A 
ENDBRANCH  28  32
ENDBRANCH  23  26
ENDBRANCH   1  22
TORSDOF 7
ENDMDL
MODEL 2
REMARK VINA RESULT:     -10.0      1.738      2.349
REMARK  7 active torsions:
REMARK  status: ('A' for Active; 'I' for Inactive)
REMARK    1  A    between atoms: C_8  and  C_9 
REMARK    2  A    between atoms: C_9  and  C_10 
REMARK    3  A    between atoms: C_10  and  N_11 
REMARK    4  A    between atoms: C_10  and  C_19 
REMARK       I    between atoms: N_11  and  C_12 
REMARK    5  A    between atoms: C_12  and  C_13 
REMARK       I    between atoms: C_19  and  N_20 
REMARK    6  A    between atoms: N_20  and  N_21 
REMARK       I    between atoms: N_21  and  C_22 
REMARK       I    between atoms: C_22  and  N_23 
REMARK    7  A    between atoms: N_23  and  C_24 
ROOT
HETATM    1  C   UNL     1      26.008  45.177  51.696  1.00  0.00     0.183 C 
ENDROOT
BRANCH   1   2
HETATM    2  C   UNL     1      26.182  45.039  53.220  1.00  0.00     0.076 C 
BRANCH   2   3
HETATM    3  C   UNL     1      27.329  44.163  53.632  1.00  0.00    -0.028 A 
HETATM    4  C   UNL     1      28.422  44.498  54.497  1.00  0.00    -0.002 A 
HETATM    5  C   UNL     1      28.792  45.653  55.218  1.00  0.00     0.014 A 
HETATM    6  C   UNL     1      29.247  43.376  54.578  1.00  0.00     0.042 A 
HETATM    7  C   UNL     1      29.971  45.648  55.972  1.00  0.00     0.001 A 
HETATM    8  C   UNL     1      30.774  44.513  56.027  1.00  0.00     0.002 A 
HETATM    9  C   UNL     1      30.425  43.351  55.334  1.00  0.00     0.030 A 
HETATM   10  N   UNL     1      28.669  42.389  53.816  1.00  0.00    -0.365 N 
HETATM   11  H   UNL     1      29.042  41.457  53.703  1.00  0.00     0.165 HD
HETATM   12  C   UNL     1      27.519  42.853  53.237  1.00  0.00     0.096 A 
ENDBRANCH   2   3
ENDBRANCH   1   2
BRANCH   1  13
HETATM   13  N   UNL     1      25.398  44.014  51.045  1.00  0.00    -0.343 N 
HETATM   14  C   UNL     1      25.875  43.488  49.863  1.00  0.00     0.259 C 
HETATM   15  O   UNL     1      27.005  43.756  49.465  1.00  0.00    -0.267 OA
HETATM   16  H   UNL     1      24.399  43.905  51.182  1.00  0.00     0.163 HD
BRANCH  14  17
HETATM   17  C   UNL     1      24.969  42.586  49.162  1.00  0.00     0.072 A 
HETATM   18  S   UNL     1      23.262  42.707  49.310  1.00  0.00    -0.097 SA
HETATM   19  C   UNL     1      23.004  41.376  48.270  1.00  0.00     0.050 A 
HETATM   20  C   UNL     1      24.187  40.850  47.803  1.00  0.00     0.009 A 
HETATM   21  C   UNL     1      25.318  41.549  48.316  1.00  0.00     0.025 A 
ENDBRANCH  14  17
ENDBRANCH   1  13
BRANCH   1  22
HETATM   22  C   UNL     1      25.365  46.540  51.372  1.00  0.00     0.259 C 
HETATM   23  N   UNL     1      25.087  46.754  50.034  1.00  0.00    -0.264 N 
HETATM   24  H   UNL     1      24.862  45.947  49.451  1.00  0.00     0.190 HD
HETATM   25  O   UNL     1      25.267  47.438  52.212  1.00  0.00    -0.269 OA
BRANCH  23  26
HETATM   26  N   UNL     1      24.380  47.928  49.723  1.00  0.00    -0.249 N 
HETATM   27  C   UNL     1      25.032  48.944  49.087  1.00  0.00     0.339 C 
HETATM   28  N   UNL     1      24.328  50.085  48.835  1.00  0.00    -0.308 N 
HETATM   29  O   UNL     1      26.224  48.877  48.788  1.00  0.00    -0.245 OA
HETATM   30  H   UNL     1      24.945  50.838  48.553  1.00  0.00     0.170 HD
HETATM   31  H   UNL     1      23.611  48.146  50.348  1.00  0.00     0.192 HD
BRANCH  28  32
HETATM   32  C   UNL     1      22.950  50.371  48.865  1.00  0.00     0.036 A 
HETATM   33  C   UNL     1      22.249  50.768  50.008  1.00  0.00     0.031 A 
HETATM   34  C   UNL     1      20.878  51.047  49.941  1.00  0.00     0.026 A 
HETATM   35  C   UNL     1      20.198  50.908  48.735  1.00  0.00     0.034 A 
HETATM   36 CL   UNL     1      18.516  51.256  48.652  1.00  0.00    -0.084 Cl
HETATM   37  C   UNL     1      20.874  50.475  47.598  1.00  0.00     0.026 A 
HETATM   38  C   UNL     1      22.243  50.199  47.667  1.00  0.00     0.031 A 
ENDBRANCH  28  32
ENDBRANCH  23  26
ENDBRANCH   1  22
TORSDOF 7
ENDMDL
MODEL 3
REMARK VINA RESULT:      -9.9      1.917      2.311
REMARK  7 active torsions:
REMARK  status: ('A' for Active; 'I' for Inactive)
REMARK    1  A    between atoms: C_8  and  C_9 
REMARK    2  A    between atoms: C_9  and  C_10 
REMARK    3  A    between atoms: C_10  and  N_11 
REMARK    4  A    between atoms: C_10  and  C_19 
REMARK       I    between atoms: N_11  and  C_12 
REMARK    5  A    between atoms: C_12  and  C_13 
REMARK       I    between atoms: C_19  and  N_20 
REMARK    6  A    between atoms: N_20  and  N_21 
REMARK       I    between atoms: N_21  and  C_22 
REMARK       I    between atoms: C_22  and  N_23 
REMARK    7  A    between atoms: N_23  and  C_24 
ROOT
HETATM    1  C   UNL     1      25.904  45.775  51.694  1.00  0.00     0.183 C 
ENDROOT
BRANCH   1   2
HETATM    2  C   UNL     1      25.589  45.869  53.200  1.00  0.00     0.076 C 
BRANCH   2   3
HETATM    3  C   UNL     1      26.798  46.043  54.072  1.00  0.00    -0.028 A 
HETATM    4  C   UNL     1      27.840  45.092  54.326  1.00  0.00    -0.002 A 
HETATM    5  C   UNL     1      28.101  43.774  53.895  1.00  0.00     0.014 A 
HETATM    6  C   UNL     1      28.744  45.691  55.205  1.00  0.00     0.042 A 
HETATM    7  C   UNL     1      29.235  43.105  54.367  1.00  0.00     0.001 A 
HETATM    8  C   UNL     1      30.113  43.729  55.249  1.00  0.00     0.002 A 
HETATM    9  C   UNL     1      29.887  45.038  55.681  1.00  0.00     0.030 A 
HETATM   10  N   UNL     1      28.286  46.962  55.457  1.00  0.00    -0.365 N 
HETATM   11  H   UNL     1      28.752  47.634  56.050  1.00  0.00     0.165 HD
HETATM   12  C   UNL     1      27.114  47.183  54.786  1.00  0.00     0.096 A 
ENDBRANCH   2   3
ENDBRANCH   1   2
BRANCH   1  13
HETATM   13  N   UNL     1      25.956  44.409  51.168  1.00  0.00    -0.343 N 
HETATM   14  C   UNL     1      26.643  44.080  50.018  1.00  0.00     0.259 C 
HETATM   15  O   UNL     1      27.496  44.835  49.557  1.00  0.00    -0.267 OA
HETATM   16  H   UNL     1      25.141  43.833  51.350  1.00  0.00     0.163 HD
BRANCH  14  17
HETATM   17  C   UNL     1      26.311  42.789  49.429  1.00  0.00     0.072 A 
HETATM   18  S   UNL     1      24.726  42.414  48.883  1.00  0.00    -0.097 SA
HETATM   19  C   UNL     1      25.184  40.839  48.405  1.00  0.00     0.050 A 
HETATM   20  C   UNL     1      26.518  40.596  48.642  1.00  0.00     0.009 A 
HETATM   21  C   UNL     1      27.166  41.721  49.229  1.00  0.00     0.025 A 
ENDBRANCH  14  17
ENDBRANCH   1  13
BRANCH   1  22
HETATM   22  C   UNL     1      25.005  46.758  50.918  1.00  0.00     0.259 C 
HETATM   23  N   UNL     1      24.002  46.169  50.169  1.00  0.00    -0.264 N 
HETATM   24  H   UNL     1      23.608  45.287  50.497  1.00  0.00     0.190 HD
HETATM   25  O   UNL     1      25.265  47.960  50.831  1.00  0.00    -0.269 OA
BRANCH  23  26
HETATM   26  N   UNL     1      23.085  47.040  49.558  1.00  0.00    -0.249 N 
HETATM   27  C   UNL     1      22.543  46.692  48.355  1.00  0.00     0.339 C 
HETATM   28  N   UNL     1      21.686  47.577  47.769  1.00  0.00    -0.308 N 
HETATM   29  O   UNL     1      22.839  45.647  47.775  1.00  0.00    -0.245 OA
HETATM   30  H   UNL     1      21.504  47.324  46.805  1.00  0.00     0.170 HD
HETATM   31  H   UNL     1      23.210  48.022  49.781  1.00  0.00     0.192 HD
BRANCH  28  32
HETATM   32  C   UNL     1      21.015  48.712  48.265  1.00  0.00     0.036 A 
HETATM   33  C   UNL     1      21.433  50.030  48.059  1.00  0.00     0.031 A 
HETATM   34  C   UNL     1      20.693  51.100  48.578  1.00  0.00     0.026 A 
HETATM   35  C   UNL     1      19.545  50.855  49.325  1.00  0.00     0.034 A 
HETATM   36 CL   UNL     1      18.634  52.169  49.957  1.00  0.00    -0.084 Cl
HETATM   37  C   UNL     1      19.139  49.547  49.572  1.00  0.00     0.026 A 
HETATM   38  C   UNL     1      19.879  48.480  49.050  1.00  0.00     0.031 A 
ENDBRANCH  28  32
ENDBRANCH  23  26
ENDBRANCH   1  22
TORSDOF 7
ENDMDL
MODEL 4
REMARK VINA RESULT:      -9.8      1.796      2.125
REMARK  7 active torsions:
REMARK  status: ('A' for Active; 'I' for Inactive)
REMARK    1  A    between atoms: C_8  and  C_9 
REMARK    2  A    between atoms: C_9  and  C_10 
REMARK    3  A    between atoms: C_10  and  N_11 
REMARK    4  A    between atoms: C_10  and  C_19 
REMARK       I    between atoms: N_11  and  C_12 
REMARK    5  A    between atoms: C_12  and  C_13 
REMARK       I    between atoms: C_19  and  N_20 
REMARK    6  A    between atoms: N_20  and  N_21 
REMARK       I    between atoms: N_21  and  C_22 
REMARK       I    between atoms: C_22  and  N_23 
REMARK    7  A    between atoms: N_23  and  C_24 
ROOT
HETATM    1  C   UNL     1      26.169  44.496  52.138  1.00  0.00     0.183 C 
ENDROOT
BRANCH   1   2
HETATM    2  C   UNL     1      26.032  44.455  53.672  1.00  0.00     0.076 C 
BRANCH   2   3
HETATM    3  C   UNL     1      27.138  45.155  54.408  1.00  0.00    -0.028 A 
HETATM    4  C   UNL     1      28.412  44.622  54.788  1.00  0.00    -0.002 A 
HETATM    5  C   UNL     1      29.048  43.373  54.627  1.00  0.00     0.014 A 
HETATM    6  C   UNL     1      29.101  45.633  55.461  1.00  0.00     0.042 A 
HETATM    7  C   UNL     1      30.329  43.177  55.156  1.00  0.00     0.001 A 
HETATM    8  C   UNL     1      30.985  44.204  55.827  1.00  0.00     0.002 A 
HETATM    9  C   UNL     1      30.386  45.456  55.989  1.00  0.00     0.030 A 
HETATM   10  N   UNL     1      28.291  46.743  55.469  1.00  0.00    -0.365 N 
HETATM   11  H   UNL     1      28.540  47.633  55.876  1.00  0.00     0.165 HD
HETATM   12  C   UNL     1      27.106  46.466  54.844  1.00  0.00     0.096 A 
ENDBRANCH   2   3
ENDBRANCH   1   2
BRANCH   1  13
HETATM   13  N   UNL     1      26.611  43.236  51.533  1.00  0.00    -0.343 N 
HETATM   14  C   UNL     1      26.931  43.124  50.196  1.00  0.00     0.259 C 
HETATM   15  O   UNL     1      27.168  44.122  49.521  1.00  0.00    -0.267 OA
HETATM   16  H   UNL     1      26.234  42.390  51.948  1.00  0.00     0.163 HD
BRANCH  14  17
HETATM   17  C   UNL     1      26.997  41.765  49.673  1.00  0.00     0.072 A 
HETATM   18  S   UNL     1      26.350  40.424  50.530  1.00  0.00    -0.097 SA
HETATM   19  C   UNL     1      26.835  39.322  49.317  1.00  0.00     0.050 A 
HETATM   20  C   UNL     1      27.467  39.954  48.270  1.00  0.00     0.009 A 
HETATM   21  C   UNL     1      27.557  41.362  48.475  1.00  0.00     0.025 A 
ENDBRANCH  14  17
ENDBRANCH   1  13
BRANCH   1  22
HETATM   22  C   UNL     1      24.903  45.125  51.525  1.00  0.00     0.259 C 
HETATM   23  N   UNL     1      25.005  46.471  51.222  1.00  0.00    -0.264 N 
HETATM   24  H   UNL     1      25.920  46.840  50.962  1.00  0.00     0.190 HD
HETATM   25  O   UNL     1      23.828  44.523  51.471  1.00  0.00    -0.269 OA
BRANCH  23  26
HETATM   26  N   UNL     1      23.917  47.042  50.540  1.00  0.00    -0.249 N 
HETATM   27  C   UNL     1      24.140  48.100  49.708  1.00  0.00     0.339 C 
HETATM   28  N   UNL     1      23.058  48.656  49.091  1.00  0.00    -0.308 N 
HETATM   29  O   UNL     1      25.260  48.585  49.542  1.00  0.00    -0.245 OA
HETATM   30  H   UNL     1      23.298  49.545  48.667  1.00  0.00     0.170 HD
HETATM   31  H   UNL     1      23.023  46.962  51.013  1.00  0.00     0.192 HD
BRANCH  28  32
HETATM   32  C   UNL     1      21.733  48.210  48.922  1.00  0.00     0.036 A 
HETATM   33  C   UNL     1      21.374  47.023  48.277  1.00  0.00     0.031 A 
HETATM   34  C   UNL     1      20.029  46.650  48.169  1.00  0.00     0.026 A 
HETATM   35  C   UNL     1      19.034  47.475  48.685  1.00  0.00     0.034 A 
HETATM   36 CL   UNL     1      17.383  47.015  48.557  1.00  0.00    -0.084 Cl
HETATM   37  C   UNL     1      19.374  48.680  49.295  1.00  0.00     0.026 A 
HETATM   38  C   UNL     1      20.719  49.048  49.403  1.00  0.00     0.031 A 
ENDBRANCH  28  32
ENDBRANCH  23  26
ENDBRANCH   1  22
TORSDOF 7
ENDMDL
MODEL 5
REMARK VINA RESULT:      -9.8      4.070      8.071
REMARK  7 active torsions:
REMARK  status: ('A' for Active; 'I' for Inactive)
REMARK    1  A    between atoms: C_8  and  C_9 
REMARK    2  A    between atoms: C_9  and  C_10 
REMARK    3  A    between atoms: C_10  and  N_11 
REMARK    4  A    between atoms: C_10  and  C_19 
REMARK       I    between atoms: N_11  and  C_12 
REMARK    5  A    between atoms: C_12  and  C_13 
REMARK       I    between atoms: C_19  and  N_20 
REMARK    6  A    between atoms: N_20  and  N_21 
REMARK       I    between atoms: N_21  and  C_22 
REMARK       I    between atoms: C_22  and  N_23 
REMARK    7  A    between atoms: N_23  and  C_24 
ROOT
HETATM    1  C   UNL     1      25.579  44.960  51.870  1.00  0.00     0.183 C 
ENDROOT
BRANCH   1   2
HETATM    2  C   UNL     1      25.441  44.907  53.404  1.00  0.00     0.076 C 
BRANCH   2   3
HETATM    3  C   UNL     1      26.486  45.690  54.143  1.00  0.00    -0.028 A 
HETATM    4  C   UNL     1      27.762  45.230  54.606  1.00  0.00    -0.002 A 
HETATM    5  C   UNL     1      28.450  44.000  54.544  1.00  0.00     0.014 A 
HETATM    6  C   UNL     1      28.383  46.303  55.249  1.00  0.00     0.042 A 
HETATM    7  C   UNL     1      29.713  43.884  55.136  1.00  0.00     0.001 A 
HETATM    8  C   UNL     1      30.301  44.972  55.774  1.00  0.00     0.002 A 
HETATM    9  C   UNL     1      29.649  46.206  55.838  1.00  0.00     0.030 A 
HETATM   10  N   UNL     1      27.532  47.379  55.159  1.00  0.00    -0.365 N 
HETATM   11  H   UNL     1      27.730  48.299  55.525  1.00  0.00     0.165 HD
HETATM   12  C   UNL     1      26.387  47.021  54.503  1.00  0.00     0.096 A 
ENDBRANCH   2   3
ENDBRANCH   1   2
BRANCH   1  13
HETATM   13  N   UNL     1      25.805  46.302  51.326  1.00  0.00    -0.343 N 
HETATM   14  C   UNL     1      25.119  46.786  50.231  1.00  0.00     0.259 C 
HETATM   15  O   UNL     1      24.077  46.256  49.857  1.00  0.00    -0.267 OA
HETATM   16  H   UNL     1      26.745  46.668  51.429  1.00  0.00     0.163 HD
BRANCH  14  17
HETATM   17  C   UNL     1      25.695  47.964  49.594  1.00  0.00     0.072 A 
HETATM   18  S   UNL     1      24.729  49.131  48.785  1.00  0.00    -0.097 SA
HETATM   19  C   UNL     1      26.091  50.070  48.358  1.00  0.00     0.050 A 
HETATM   20  C   UNL     1      27.262  49.522  48.828  1.00  0.00     0.009 A 
HETATM   21  C   UNL     1      27.033  48.310  49.542  1.00  0.00     0.025 A 
ENDBRANCH  14  17
ENDBRANCH   1  13
BRANCH   1  22
HETATM   22  C   UNL     1      26.567  43.873  51.405  1.00  0.00     0.259 C 
HETATM   23  N   UNL     1      26.238  42.582  51.777  1.00  0.00    -0.264 N 
HETATM   24  H   UNL     1      25.251  42.345  51.880  1.00  0.00     0.190 HD
HETATM   25  O   UNL     1      27.656  44.148  50.893  1.00  0.00    -0.269 OA
BRANCH  23  26
HETATM   26  N   UNL     1      27.045  41.557  51.256  1.00  0.00    -0.249 N 
HETATM   27  C   UNL     1      27.877  40.877  52.098  1.00  0.00     0.339 C 
HETATM   28  N   UNL     1      28.675  39.914  51.555  1.00  0.00    -0.308 N 
HETATM   29  O   UNL     1      27.958  41.140  53.299  1.00  0.00    -0.245 OA
HETATM   30  H   UNL     1      29.388  39.619  52.212  1.00  0.00     0.170 HD
HETATM   31  H   UNL     1      27.306  41.667  50.283  1.00  0.00     0.192 HD
BRANCH  28  32
HETATM   32  C   UNL     1      28.657  39.266  50.305  1.00  0.00     0.036 A 
HETATM   33  C   UNL     1      27.590  39.316  49.403  1.00  0.00     0.031 A 
HETATM   34  C   UNL     1      27.666  38.651  48.173  1.00  0.00     0.026 A 
HETATM   35  C   UNL     1      28.800  37.913  47.850  1.00  0.00     0.034 A 
HETATM   36 CL   UNL     1      28.896  37.102  46.337  1.00  0.00    -0.084 Cl
HETATM   37  C   UNL     1      29.854  37.821  48.754  1.00  0.00     0.026 A 
HETATM   38  C   UNL     1      29.776  38.488  49.982  1.00  0.00     0.031 A 
ENDBRANCH  28  32
ENDBRANCH  23  26
ENDBRANCH   1  22
TORSDOF 7
ENDMDL
MODEL 6
REMARK VINA RESULT:      -9.6      4.025      8.266
REMARK  7 active torsions:
REMARK  status: ('A' for Active; 'I' for Inactive)
REMARK    1  A    between atoms: C_8  and  C_9 
REMARK    2  A    between atoms: C_9  and  C_10 
REMARK    3  A    between atoms: C_10  and  N_11 
REMARK    4  A    between atoms: C_10  and  C_19 
REMARK       I    between atoms: N_11  and  C_12 
REMARK    5  A    between atoms: C_12  and  C_13 
REMARK       I    between atoms: C_19  and  N_20 
REMARK    6  A    between atoms: N_20  and  N_21 
REMARK       I    between atoms: N_21  and  C_22 
REMARK       I    between atoms: C_22  and  N_23 
REMARK    7  A    between atoms: N_23  and  C_24 
ROOT
HETATM    1  C   UNL     1      26.904  43.767  52.238  1.00  0.00     0.183 C 
ENDROOT
BRANCH   1   2
HETATM    2  C   UNL     1      28.313  44.125  52.750  1.00  0.00     0.076 C 
BRANCH   2   3
HETATM    3  C   UNL     1      28.321  44.913  54.027  1.00  0.00    -0.028 A 
HETATM    4  C   UNL     1      29.240  44.800  55.121  1.00  0.00    -0.002 A 
HETATM    5  C   UNL     1      30.369  43.996  55.383  1.00  0.00     0.014 A 
HETATM    6  C   UNL     1      28.847  45.724  56.091  1.00  0.00     0.042 A 
HETATM    7  C   UNL     1      31.047  44.132  56.600  1.00  0.00     0.001 A 
HETATM    8  C   UNL     1      30.625  45.060  57.548  1.00  0.00     0.002 A 
HETATM    9  C   UNL     1      29.519  45.879  57.310  1.00  0.00     0.030 A 
HETATM   10  N   UNL     1      27.751  46.391  55.598  1.00  0.00    -0.365 N 
HETATM   11  H   UNL     1      27.263  47.131  56.083  1.00  0.00     0.165 HD
HETATM   12  C   UNL     1      27.421  45.908  54.362  1.00  0.00     0.096 A 
ENDBRANCH   2   3
ENDBRANCH   1   2
BRANCH   1  13
HETATM   13  N   UNL     1      26.219  44.854  51.532  1.00  0.00    -0.343 N 
HETATM   14  C   UNL     1      26.631  45.317  50.300  1.00  0.00     0.259 C 
HETATM   15  O   UNL     1      27.382  44.648  49.595  1.00  0.00    -0.267 OA
HETATM   16  H   UNL     1      25.778  45.553  52.119  1.00  0.00     0.163 HD
BRANCH  14  17
HETATM   17  C   UNL     1      26.093  46.611  49.899  1.00  0.00     0.072 A 
HETATM   18  S   UNL     1      24.404  46.915  49.820  1.00  0.00    -0.097 SA
HETATM   19  C   UNL     1      24.644  48.522  49.293  1.00  0.00     0.050 A 
HETATM   20  C   UNL     1      25.979  48.836  49.187  1.00  0.00     0.009 A 
HETATM   21  C   UNL     1      26.814  47.736  49.539  1.00  0.00     0.025 A 
ENDBRANCH  14  17
ENDBRANCH   1  13
BRANCH   1  22
HETATM   22  C   UNL     1      26.953  42.415  51.499  1.00  0.00     0.259 C 
HETATM   23  N   UNL     1      28.207  42.035  51.054  1.00  0.00    -0.264 N 
HETATM   24  H   UNL     1      29.022  42.342  51.585  1.00  0.00     0.190 HD
HETATM   25  O   UNL     1      25.932  41.804  51.175  1.00  0.00    -0.269 OA
BRANCH  23  26
HETATM   26  N   UNL     1      28.308  40.750  50.496  1.00  0.00    -0.249 N 
HETATM   27  C   UNL     1      28.820  39.738  51.255  1.00  0.00     0.339 C 
HETATM   28  N   UNL     1      28.941  38.511  50.672  1.00  0.00    -0.308 N 
HETATM   29  O   UNL     1      29.211  39.912  52.410  1.00  0.00    -0.245 OA
HETATM   30  H   UNL     1      29.510  37.893  51.239  1.00  0.00     0.170 HD
HETATM   31  H   UNL     1      28.431  40.726  49.490  1.00  0.00     0.192 HD
BRANCH  28  32
HETATM   32  C   UNL     1      28.407  37.971  49.487  1.00  0.00     0.036 A 
HETATM   33  C   UNL     1      29.040  38.016  48.241  1.00  0.00     0.031 A 
HETATM   34  C   UNL     1      28.439  37.438  47.116  1.00  0.00     0.026 A 
HETATM   35  C   UNL     1      27.191  36.832  47.227  1.00  0.00     0.034 A 
HETATM   36 CL   UNL     1      26.456  36.117  45.847  1.00  0.00    -0.084 Cl
HETATM   37  C   UNL     1      26.531  36.815  48.452  1.00  0.00     0.026 A 
HETATM   38  C   UNL     1      27.134  37.391  49.575  1.00  0.00     0.031 A 
ENDBRANCH  28  32
ENDBRANCH  23  26
ENDBRANCH   1  22
TORSDOF 7
ENDMDL
MODEL 7
REMARK VINA RESULT:      -9.1      4.087      7.603
REMARK  7 active torsions:
REMARK  status: ('A' for Active; 'I' for Inactive)
REMARK    1  A    between atoms: C_8  and  C_9 
REMARK    2  A    between atoms: C_9  and  C_10 
REMARK    3  A    between atoms: C_10  and  N_11 
REMARK    4  A    between atoms: C_10  and  C_19 
REMARK       I    between atoms: N_11  and  C_12 
REMARK    5  A    between atoms: C_12  and  C_13 
REMARK       I    between atoms: C_19  and  N_20 
REMARK    6  A    between atoms: N_20  and  N_21 
REMARK       I    between atoms: N_21  and  C_22 
REMARK       I    between atoms: C_22  and  N_23 
REMARK    7  A    between atoms: N_23  and  C_24 
ROOT
HETATM    1  C   UNL     1      27.419  43.808  52.700  1.00  0.00     0.183 C 
ENDROOT
BRANCH   1   2
HETATM    2  C   UNL     1      28.860  43.838  53.245  1.00  0.00     0.076 C 
BRANCH   2   3
HETATM    3  C   UNL     1      29.021  44.620  54.517  1.00  0.00    -0.028 A 
HETATM    4  C   UNL     1      29.937  44.370  55.589  1.00  0.00    -0.002 A 
HETATM    5  C   UNL     1      30.935  43.402  55.830  1.00  0.00     0.014 A 
HETATM    6  C   UNL     1      29.715  45.347  56.562  1.00  0.00     0.042 A 
HETATM    7  C   UNL     1      31.655  43.436  57.030  1.00  0.00     0.001 A 
HETATM    8  C   UNL     1      31.404  44.420  57.981  1.00  0.00     0.002 A 
HETATM    9  C   UNL     1      30.432  45.400  57.763  1.00  0.00     0.030 A 
HETATM   10  N   UNL     1      28.723  46.173  56.090  1.00  0.00    -0.365 N 
HETATM   11  H   UNL     1      28.367  46.981  56.581  1.00  0.00     0.165 HD
HETATM   12  C   UNL     1      28.293  45.742  54.865  1.00  0.00     0.096 A 
ENDBRANCH   2   3
ENDBRANCH   1   2
BRANCH   1  13
HETATM   13  N   UNL     1      26.994  45.044  52.036  1.00  0.00    -0.343 N 
HETATM   14  C   UNL     1      25.667  45.367  51.844  1.00  0.00     0.259 C 
HETATM   15  O   UNL     1      24.784  44.807  52.488  1.00  0.00    -0.267 OA
HETATM   16  H   UNL     1      27.621  45.401  51.324  1.00  0.00     0.163 HD
BRANCH  14  17
HETATM   17  C   UNL     1      25.407  46.419  50.869  1.00  0.00     0.072 A 
HETATM   18  S   UNL     1      23.979  46.447  49.914  1.00  0.00    -0.097 SA
HETATM   19  C   UNL     1      24.460  47.874  49.107  1.00  0.00     0.050 A 
HETATM   20  C   UNL     1      25.676  48.336  49.557  1.00  0.00     0.009 A 
HETATM   21  C   UNL     1      26.219  47.498  50.574  1.00  0.00     0.025 A 
ENDBRANCH  14  17
ENDBRANCH   1  13
BRANCH   1  22
HETATM   22  C   UNL     1      27.198  42.509  51.901  1.00  0.00     0.259 C 
HETATM   23  N   UNL     1      26.569  42.671  50.680  1.00  0.00    -0.264 N 
HETATM   24  H   UNL     1      26.710  43.547  50.175  1.00  0.00     0.190 HD
HETATM   25  O   UNL     1      27.405  41.394  52.386  1.00  0.00    -0.269 OA
BRANCH  23  26
HETATM   26  N   UNL     1      26.473  41.527  49.870  1.00  0.00    -0.249 N 
HETATM   27  C   UNL     1      25.258  41.185  49.350  1.00  0.00     0.339 C 
HETATM   28  N   UNL     1      25.191  40.047  48.600  1.00  0.00    -0.308 N 
HETATM   29  O   UNL     1      24.237  41.835  49.576  1.00  0.00    -0.245 OA
HETATM   30  H   UNL     1      24.228  39.776  48.436  1.00  0.00     0.170 HD
HETATM   31  H   UNL     1      27.149  40.799  50.072  1.00  0.00     0.192 HD
BRANCH  28  32
HETATM   32  C   UNL     1      26.185  39.242  48.012  1.00  0.00     0.036 A 
HETATM   33  C   UNL     1      26.746  38.112  48.615  1.00  0.00     0.031 A 
HETATM   34  C   UNL     1      27.722  37.361  47.948  1.00  0.00     0.026 A 
HETATM   35  C   UNL     1      28.159  37.750  46.686  1.00  0.00     0.034 A 
HETATM   36 CL   UNL     1      29.353  36.825  45.865  1.00  0.00    -0.084 Cl
HETATM   37  C   UNL     1      27.639  38.896  46.091  1.00  0.00     0.026 A 
HETATM   38  C   UNL     1      26.663  39.644  46.758  1.00  0.00     0.031 A 
ENDBRANCH  28  32
ENDBRANCH  23  26
ENDBRANCH   1  22
TORSDOF 7
ENDMDL
MODEL 8
REMARK VINA RESULT:      -9.0      3.935      8.730
REMARK  7 active torsions:
REMARK  status: ('A' for Active; 'I' for Inactive)
REMARK    1  A    between atoms: C_8  and  C_9 
REMARK    2  A    between atoms: C_9  and  C_10 
REMARK    3  A    between atoms: C_10  and  N_11 
REMARK    4  A    between atoms: C_10  and  C_19 
REMARK       I    between atoms: N_11  and  C_12 
REMARK    5  A    between atoms: C_12  and  C_13 
REMARK       I    between atoms: C_19  and  N_20 
REMARK    6  A    between atoms: N_20  and  N_21 
REMARK       I    between atoms: N_21  and  C_22 
REMARK       I    between atoms: C_22  and  N_23 
REMARK    7  A    between atoms: N_23  and  C_24 
ROOT
HETATM    1  C   UNL     1      24.429  45.721  49.973  1.00  0.00     0.183 C 
ENDROOT
BRANCH   1   2
HETATM    2  C   UNL     1      23.584  44.448  50.171  1.00  0.00     0.076 C 
BRANCH   2   3
HETATM    3  C   UNL     1      23.975  43.305  49.280  1.00  0.00    -0.028 A 
HETATM    4  C   UNL     1      24.839  42.205  49.593  1.00  0.00    -0.002 A 
HETATM    5  C   UNL     1      25.567  41.816  50.738  1.00  0.00     0.014 A 
HETATM    6  C   UNL     1      24.918  41.401  48.455  1.00  0.00     0.042 A 
HETATM    7  C   UNL     1      26.353  40.659  50.696  1.00  0.00     0.001 A 
HETATM    8  C   UNL     1      26.414  39.883  49.542  1.00  0.00     0.002 A 
HETATM    9  C   UNL     1      25.692  40.236  48.399  1.00  0.00     0.030 A 
HETATM   10  N   UNL     1      24.116  41.973  47.496  1.00  0.00    -0.365 N 
HETATM   11  H   UNL     1      23.968  41.595  46.571  1.00  0.00     0.165 HD
HETATM   12  C   UNL     1      23.549  43.121  47.979  1.00  0.00     0.096 A 
ENDBRANCH   2   3
ENDBRANCH   1   2
BRANCH   1  13
HETATM   13  N   UNL     1      23.652  46.962  49.904  1.00  0.00    -0.343 N 
HETATM   14  C   UNL     1      22.975  47.353  48.768  1.00  0.00     0.259 C 
HETATM   15  O   UNL     1      22.725  46.548  47.875  1.00  0.00    -0.267 OA
HETATM   16  H   UNL     1      23.989  47.727  50.477  1.00  0.00     0.163 HD
BRANCH  14  17
HETATM   17  C   UNL     1      22.562  48.751  48.728  1.00  0.00     0.072 A 
HETATM   18  S   UNL     1      20.933  49.230  48.987  1.00  0.00    -0.097 SA
HETATM   19  C   UNL     1      21.306  50.882  48.761  1.00  0.00     0.050 A 
HETATM   20  C   UNL     1      22.644  51.078  48.505  1.00  0.00     0.009 A 
HETATM   21  C   UNL     1      23.367  49.849  48.488  1.00  0.00     0.025 A 
ENDBRANCH  14  17
ENDBRANCH   1  13
BRANCH   1  22
HETATM   22  C   UNL     1      25.602  45.721  50.973  1.00  0.00     0.259 C 
HETATM   23  N   UNL     1      25.385  46.444  52.132  1.00  0.00    -0.264 N 
HETATM   24  H   UNL     1      24.431  46.516  52.486  1.00  0.00     0.190 HD
HETATM   25  O   UNL     1      26.711  45.262  50.687  1.00  0.00    -0.269 OA
BRANCH  23  26
HETATM   26  N   UNL     1      26.380  46.354  53.119  1.00  0.00    -0.249 N 
HETATM   27  C   UNL     1      26.349  47.224  54.171  1.00  0.00     0.339 C 
HETATM   28  N   UNL     1      27.352  47.136  55.092  1.00  0.00    -0.308 N 
HETATM   29  O   UNL     1      25.488  48.097  54.279  1.00  0.00    -0.245 OA
HETATM   30  H   UNL     1      27.353  47.942  55.706  1.00  0.00     0.170 HD
HETATM   31  H   UNL     1      27.273  45.994  52.799  1.00  0.00     0.192 HD
BRANCH  28  32
HETATM   32  C   UNL     1      28.320  46.145  55.344  1.00  0.00     0.036 A 
HETATM   33  C   UNL     1      28.510  45.007  54.555  1.00  0.00     0.031 A 
HETATM   34  C   UNL     1      29.511  44.080  54.873  1.00  0.00     0.026 A 
HETATM   35  C   UNL     1      30.309  44.275  55.996  1.00  0.00     0.034 A 
HETATM   36 CL   UNL     1      31.540  43.139  56.384  1.00  0.00    -0.084 Cl
HETATM   37  C   UNL     1      30.104  45.382  56.813  1.00  0.00     0.026 A 
HETATM   38  C   UNL     1      29.106  46.308  56.492  1.00  0.00     0.031 A 
ENDBRANCH  28  32
ENDBRANCH  23  26
ENDBRANCH   1  22
TORSDOF 7
ENDMDL
MODEL 9
REMARK VINA RESULT:      -8.9      2.312      5.221
REMARK  7 active torsions:
REMARK  status: ('A' for Active; 'I' for Inactive)
REMARK    1  A    between atoms: C_8  and  C_9 
REMARK    2  A    between atoms: C_9  and  C_10 
REMARK    3  A    between atoms: C_10  and  N_11 
REMARK    4  A    between atoms: C_10  and  C_19 
REMARK       I    between atoms: N_11  and  C_12 
REMARK    5  A    between atoms: C_12  and  C_13 
REMARK       I    between atoms: C_19  and  N_20 
REMARK    6  A    between atoms: N_20  and  N_21 
REMARK       I    between atoms: N_21  and  C_22 
REMARK       I    between atoms: C_22  and  N_23 
REMARK    7  A    between atoms: N_23  and  C_24 
ROOT
HETATM    1  C   UNL     1      26.877  43.616  51.706  1.00  0.00     0.183 C 
ENDROOT
BRANCH   1   2
HETATM    2  C   UNL     1      27.292  42.970  50.370  1.00  0.00     0.076 C 
BRANCH   2   3
HETATM    3  C   UNL     1      27.859  41.586  50.505  1.00  0.00    -0.028 A 
HETATM    4  C   UNL     1      28.060  40.617  49.469  1.00  0.00    -0.002 A 
HETATM    5  C   UNL     1      27.834  40.598  48.077  1.00  0.00     0.014 A 
HETATM    6  C   UNL     1      28.598  39.475  50.067  1.00  0.00     0.042 A 
HETATM    7  C   UNL     1      28.134  39.444  47.344  1.00  0.00     0.001 A 
HETATM    8  C   UNL     1      28.663  38.321  47.973  1.00  0.00     0.002 A 
HETATM    9  C   UNL     1      28.911  38.316  49.347  1.00  0.00     0.030 A 
HETATM   10  N   UNL     1      28.741  39.747  51.407  1.00  0.00    -0.365 N 
HETATM   11  H   UNL     1      29.124  39.104  52.086  1.00  0.00     0.165 HD
HETATM   12  C   UNL     1      28.295  41.010  51.683  1.00  0.00     0.096 A 
ENDBRANCH   2   3
ENDBRANCH   1   2
BRANCH   1  13
HETATM   13  N   UNL     1      27.981  43.831  52.646  1.00  0.00    -0.343 N 
HETATM   14  C   UNL     1      27.845  43.651  54.007  1.00  0.00     0.259 C 
HETATM   15  O   UNL     1      26.907  43.005  54.465  1.00  0.00    -0.267 OA
HETATM   16  H   UNL     1      28.656  44.540  52.381  1.00  0.00     0.163 HD
BRANCH  14  17
HETATM   17  C   UNL     1      28.893  44.242  54.830  1.00  0.00     0.072 A 
HETATM   18  S   UNL     1      28.739  45.808  55.521  1.00  0.00    -0.097 SA
HETATM   19  C   UNL     1      30.286  45.722  56.242  1.00  0.00     0.050 A 
HETATM   20  C   UNL     1      30.911  44.524  55.978  1.00  0.00     0.009 A 
HETATM   21  C   UNL     1      30.106  43.672  55.167  1.00  0.00     0.025 A 
ENDBRANCH  14  17
ENDBRANCH   1  13
BRANCH   1  22
HETATM   22  C   UNL     1      25.984  44.841  51.430  1.00  0.00     0.259 C 
HETATM   23  N   UNL     1      26.421  45.668  50.410  1.00  0.00    -0.264 N 
HETATM   24  H   UNL     1      26.944  45.250  49.640  1.00  0.00     0.190 HD
HETATM   25  O   UNL     1      25.052  45.157  52.173  1.00  0.00    -0.269 OA
BRANCH  23  26
HETATM   26  N   UNL     1      25.561  46.717  50.045  1.00  0.00    -0.249 N 
HETATM   27  C   UNL     1      26.075  47.792  49.379  1.00  0.00     0.339 C 
HETATM   28  N   UNL     1      25.222  48.812  49.074  1.00  0.00    -0.308 N 
HETATM   29  O   UNL     1      27.270  47.883  49.097  1.00  0.00    -0.245 OA
HETATM   30  H   UNL     1      25.732  49.633  48.770  1.00  0.00     0.170 HD
HETATM   31  H   UNL     1      24.759  46.847  50.652  1.00  0.00     0.192 HD
BRANCH  28  32
HETATM   32  C   UNL     1      23.817  48.901  49.076  1.00  0.00     0.036 A 
HETATM   33  C   UNL     1      22.957  47.847  48.753  1.00  0.00     0.031 A 
HETATM   34  C   UNL     1      21.568  48.023  48.797  1.00  0.00     0.026 A 
HETATM   35  C   UNL     1      21.034  49.262  49.140  1.00  0.00     0.034 A 
HETATM   36 CL   UNL     1      19.329  49.476  49.199  1.00  0.00    -0.084 Cl
HETATM   37  C   UNL     1      21.878  50.331  49.425  1.00  0.00     0.026 A 
HETATM   38  C   UNL     1      23.265  50.152  49.382  1.00  0.00     0.031 A 
ENDBRANCH  28  32
ENDBRANCH  23  26
ENDBRANCH   1  22
TORSDOF 7
ENDMDL
MODEL 10
REMARK VINA RESULT:      -8.7      3.543      8.852
REMARK  7 active torsions:
REMARK  status: ('A' for Active; 'I' for Inactive)
REMARK    1  A    between atoms: C_8  and  C_9 
REMARK    2  A    between atoms: C_9  and  C_10 
REMARK    3  A    between atoms: C_10  and  N_11 
REMARK    4  A    between atoms: C_10  and  C_19 
REMARK       I    between atoms: N_11  and  C_12 
REMARK    5  A    between atoms: C_12  and  C_13 
REMARK       I    between atoms: C_19  and  N_20 
REMARK    6  A    between atoms: N_20  and  N_21 
REMARK       I    between atoms: N_21  and  C_22 
REMARK       I    between atoms: C_22  and  N_23 
REMARK    7  A    between atoms: N_23  and  C_24 
ROOT
HETATM    1  C   UNL     1      24.525  46.713  50.269  1.00  0.00     0.183 C 
ENDROOT
BRANCH   1   2
HETATM    2  C   UNL     1      24.497  47.960  49.363  1.00  0.00     0.076 C 
BRANCH   2   3
HETATM    3  C   UNL     1      23.118  48.463  49.052  1.00  0.00    -0.028 A 
HETATM    4  C   UNL     1      22.131  47.853  48.212  1.00  0.00    -0.002 A 
HETATM    5  C   UNL     1      22.082  46.670  47.444  1.00  0.00     0.014 A 
HETATM    6  C   UNL     1      21.011  48.687  48.213  1.00  0.00     0.042 A 
HETATM    7  C   UNL     1      20.934  46.377  46.700  1.00  0.00     0.001 A 
HETATM    8  C   UNL     1      19.837  47.233  46.719  1.00  0.00     0.002 A 
HETATM    9  C   UNL     1      19.851  48.403  47.481  1.00  0.00     0.030 A 
HETATM   10  N   UNL     1      21.294  49.747  49.041  1.00  0.00    -0.365 N 
HETATM   11  H   UNL     1      20.655  50.503  49.245  1.00  0.00     0.165 HD
HETATM   12  C   UNL     1      22.559  49.627  49.545  1.00  0.00     0.096 A 
ENDBRANCH   2   3
ENDBRANCH   1   2
BRANCH   1  13
HETATM   13  N   UNL     1      24.548  45.438  49.548  1.00  0.00    -0.343 N 
HETATM   14  C   UNL     1      24.122  44.255  50.114  1.00  0.00     0.259 C 
HETATM   15  O   UNL     1      23.416  44.257  51.119  1.00  0.00    -0.267 OA
HETATM   16  H   UNL     1      25.284  45.333  48.858  1.00  0.00     0.163 HD
BRANCH  14  17
HETATM   17  C   UNL     1      24.536  43.038  49.426  1.00  0.00     0.072 A 
HETATM   18  S   UNL     1      26.188  42.599  49.259  1.00  0.00    -0.097 SA
HETATM   19  C   UNL     1      25.799  41.183  48.386  1.00  0.00     0.050 A 
HETATM   20  C   UNL     1      24.440  41.031  48.229  1.00  0.00     0.009 A 
HETATM   21  C   UNL     1      23.713  42.099  48.831  1.00  0.00     0.025 A 
ENDBRANCH  14  17
ENDBRANCH   1  13
BRANCH   1  22
HETATM   22  C   UNL     1      25.607  46.888  51.352  1.00  0.00     0.259 C 
HETATM   23  N   UNL     1      25.369  46.211  52.535  1.00  0.00    -0.264 N 
HETATM   24  H   UNL     1      24.843  45.338  52.494  1.00  0.00     0.190 HD
HETATM   25  O   UNL     1      26.524  47.706  51.241  1.00  0.00    -0.269 OA
BRANCH  23  26
HETATM   26  N   UNL     1      26.398  46.242  53.491  1.00  0.00    -0.249 N 
HETATM   27  C   UNL     1      26.386  47.220  54.443  1.00  0.00     0.339 C 
HETATM   28  N   UNL     1      27.420  47.246  55.333  1.00  0.00    -0.308 N 
HETATM   29  O   UNL     1      25.514  48.088  54.487  1.00  0.00    -0.245 OA
HETATM   30  H   UNL     1      27.427  48.113  55.857  1.00  0.00     0.170 HD
HETATM   31  H   UNL     1      27.285  45.862  53.181  1.00  0.00     0.192 HD
BRANCH  28  32
HETATM   32  C   UNL     1      28.413  46.301  55.656  1.00  0.00     0.036 A 
HETATM   33  C   UNL     1      28.833  45.273  54.806  1.00  0.00     0.031 A 
HETATM   34  C   UNL     1      29.841  44.387  55.207  1.00  0.00     0.026 A 
HETATM   35  C   UNL     1      30.415  44.509  56.468  1.00  0.00     0.034 A 
HETATM   36 CL   UNL     1      31.656  43.424  56.957  1.00  0.00    -0.084 Cl
HETATM   37  C   UNL     1      29.979  45.502  57.340  1.00  0.00     0.026 A 
HETATM   38  C   UNL     1      28.974  46.388  56.937  1.00  0.00     0.031 A 
ENDBRANCH  28  32
ENDBRANCH  23  26
ENDBRANCH   1  22
TORSDOF 7
ENDMDL
