MODEL 1
REMARK VINA RESULT:     -11.0      0.000      0.000
REMARK  6 active torsions:
REMARK  status: ('A' for Active; 'I' for Inactive)
REMARK    1  A    between atoms: C_4  and  C_5 
REMARK    2  A    between atoms: C_8  and  C_9 
REMARK    3  A    between atoms: C_9  and  N_10 
REMARK       I    between atoms: N_10  and  C_11 
REMARK       I    between atoms: C_11  and  N_12 
REMARK    4  A    between atoms: N_12  and  C_13 
REMARK    5  A    between atoms: C_15  and  C_16 
REMARK    6  A    between atoms: C_30  and  C_31 
ROOT
HETATM    1  C   UNL     1      26.488  43.992  51.832  1.00  0.00     0.068 C 
HETATM    2  C   UNL     1      27.275  44.044  50.485  1.00  0.00     0.001 C 
HETATM    3  C   UNL     1      27.174  45.428  49.801  1.00  0.00     0.040 C 
HETATM    4  C   UNL     1      25.706  45.839  49.601  1.00  0.00     0.206 C 
HETATM    5  N   UNL     1      24.852  44.672  50.094  1.00  0.00    -0.065 N 
HETATM    6  H   UNL     1      23.857  44.959  49.964  1.00  0.00     0.280 HD
HETATM    7  C   UNL     1      25.024  44.384  51.570  1.00  0.00     0.246 C 
HETATM    8  C   UNL     1      26.593  43.035  49.526  1.00  0.00     0.033 C 
HETATM    9  C   UNL     1      25.131  43.433  49.279  1.00  0.00     0.236 C 
ENDROOT
BRANCH   4  10
HETATM   10  C   UNL     1      25.346  47.197  50.265  1.00  0.00     0.157 C 
BRANCH  10  11
HETATM   11  N   UNL     1      23.921  47.527  50.331  1.00  0.00    -0.341 N 
HETATM   12  C   UNL     1      23.263  48.272  49.380  1.00  0.00     0.320 C 
HETATM   13  N   UNL     1      21.911  48.314  49.608  1.00  0.00    -0.309 N 
HETATM   14  O   UNL     1      23.876  48.845  48.487  1.00  0.00    -0.247 OA
HETATM   15  H   UNL     1      21.583  47.905  50.472  1.00  0.00     0.170 HD
HETATM   16  H   UNL     1      23.345  46.829  50.786  1.00  0.00     0.164 HD
BRANCH  13  17
HETATM   17  C   UNL     1      20.925  48.956  48.826  1.00  0.00     0.037 A 
HETATM   18  C   UNL     1      20.362  50.194  49.144  1.00  0.00     0.045 A 
HETATM   19  C   UNL     1      19.380  50.777  48.322  1.00  0.00     0.050 A 
HETATM   20  C   UNL     1      18.965  50.097  47.168  1.00  0.00     0.016 A 
HETATM   21  C   UNL     1      19.529  48.866  46.840  1.00  0.00     0.003 A 
HETATM   22  C   UNL     1      20.504  48.301  47.663  1.00  0.00     0.029 A 
BRANCH  19  23
HETATM   23  C   UNL     1      18.754  52.100  48.689  1.00  0.00     0.417 C 
HETATM   24  F   UNL     1      17.446  52.197  48.315  1.00  0.00    -0.166 F 
HETATM   25  F   UNL     1      18.778  52.345  50.027  1.00  0.00    -0.166 F 
HETATM   26  F   UNL     1      19.387  53.151  48.099  1.00  0.00    -0.166 F 
ENDBRANCH  19  23
ENDBRANCH  13  17
ENDBRANCH  10  11
ENDBRANCH   4  10
BRANCH   1  27
HETATM   27  C   UNL     1      27.051  44.806  52.981  1.00  0.00     0.045 A 
HETATM   28  N   UNL     1      26.406  45.931  53.334  1.00  0.00    -0.238 NA
HETATM   29  C   UNL     1      26.899  46.627  54.376  1.00  0.00     0.123 A 
HETATM   30  C   UNL     1      26.237  47.920  54.737  1.00  0.00     0.093 C 
HETATM   31  N   UNL     1      27.930  46.230  55.130  1.00  0.00    -0.233 NA
HETATM   32  C   UNL     1      28.545  45.079  54.787  1.00  0.00     0.077 A 
HETATM   33  C   UNL     1      28.141  44.336  53.693  1.00  0.00     0.060 A 
BRANCH  32  34
HETATM   34  C   UNL     1      29.637  44.692  55.699  1.00  0.00     0.033 A 
HETATM   35  S   UNL     1      29.971  45.566  57.145  1.00  0.00    -0.100 SA
HETATM   36  C   UNL     1      31.290  44.561  57.549  1.00  0.00     0.050 A 
HETATM   37  C   UNL     1      31.487  43.572  56.614  1.00  0.00     0.008 A 
HETATM   38  C   UNL     1      30.538  43.647  55.556  1.00  0.00     0.021 A 
ENDBRANCH  32  34
ENDBRANCH   1  27
TORSDOF 6
ENDMDL
MODEL 2
REMARK VINA RESULT:     -10.6      1.360      1.881
REMARK  6 active torsions:
REMARK  status: ('A' for Active; 'I' for Inactive)
REMARK    1  A    between atoms: C_4  and  C_5 
REMARK    2  A    between atoms: C_8  and  C_9 
REMARK    3  A    between atoms: C_9  and  N_10 
REMARK       I    between atoms: N_10  and  C_11 
REMARK       I    between atoms: C_11  and  N_12 
REMARK    4  A    between atoms: N_12  and  C_13 
REMARK    5  A    between atoms: C_15  and  C_16 
REMARK    6  A    between atoms: C_30  and  C_31 
ROOT
HETATM    1  C   UNL     1      26.531  43.992  51.880  1.00  0.00     0.068 C 
HETATM    2  C   UNL     1      27.311  44.073  50.531  1.00  0.00     0.001 C 
HETATM    3  C   UNL     1      27.121  45.437  49.826  1.00  0.00     0.040 C 
HETATM    4  C   UNL     1      25.630  45.751  49.623  1.00  0.00     0.206 C 
HETATM    5  N   UNL     1      24.853  44.540  50.135  1.00  0.00    -0.065 N 
HETATM    6  H   UNL     1      23.841  44.760  50.003  1.00  0.00     0.280 HD
HETATM    7  C   UNL     1      25.044  44.285  51.615  1.00  0.00     0.246 C 
HETATM    8  C   UNL     1      26.694  43.008  49.588  1.00  0.00     0.033 C 
HETATM    9  C   UNL     1      25.210  43.308  49.339  1.00  0.00     0.236 C 
ENDROOT
BRANCH   4  10
HETATM   10  C   UNL     1      25.185  47.093  50.267  1.00  0.00     0.157 C 
BRANCH  10  11
HETATM   11  N   UNL     1      23.757  47.407  50.187  1.00  0.00    -0.341 N 
HETATM   12  C   UNL     1      23.252  48.522  49.559  1.00  0.00     0.320 C 
HETATM   13  N   UNL     1      21.882  48.504  49.506  1.00  0.00    -0.309 N 
HETATM   14  O   UNL     1      23.991  49.414  49.158  1.00  0.00    -0.247 OA
HETATM   15  H   UNL     1      21.417  47.761  50.010  1.00  0.00     0.170 HD
HETATM   16  H   UNL     1      23.147  46.599  50.157  1.00  0.00     0.164 HD
BRANCH  13  17
HETATM   17  C   UNL     1      21.030  49.462  48.913  1.00  0.00     0.037 A 
HETATM   18  C   UNL     1      20.274  49.226  47.763  1.00  0.00     0.045 A 
HETATM   19  C   UNL     1      19.445  50.227  47.221  1.00  0.00     0.050 A 
HETATM   20  C   UNL     1      19.386  51.477  47.852  1.00  0.00     0.016 A 
HETATM   21  C   UNL     1      20.131  51.717  49.005  1.00  0.00     0.003 A 
HETATM   22  C   UNL     1      20.946  50.714  49.532  1.00  0.00     0.029 A 
BRANCH  19  23
HETATM   23  C   UNL     1      18.655  49.975  45.960  1.00  0.00     0.417 C 
HETATM   24  F   UNL     1      17.308  49.934  46.169  1.00  0.00    -0.166 F 
HETATM   25  F   UNL     1      18.856  50.927  45.010  1.00  0.00    -0.166 F 
HETATM   26  F   UNL     1      18.976  48.785  45.381  1.00  0.00    -0.166 F 
ENDBRANCH  19  23
ENDBRANCH  13  17
ENDBRANCH  10  11
ENDBRANCH   4  10
BRANCH   1  27
HETATM   27  C   UNL     1      27.042  44.857  53.015  1.00  0.00     0.045 A 
HETATM   28  N   UNL     1      26.360  45.976  53.314  1.00  0.00    -0.238 NA
HETATM   29  C   UNL     1      26.807  46.719  54.344  1.00  0.00     0.123 A 
HETATM   30  C   UNL     1      26.102  48.005  54.645  1.00  0.00     0.093 C 
HETATM   31  N   UNL     1      27.828  46.373  55.137  1.00  0.00    -0.233 NA
HETATM   32  C   UNL     1      28.480  45.229  54.849  1.00  0.00     0.077 A 
HETATM   33  C   UNL     1      28.124  44.440  53.771  1.00  0.00     0.060 A 
BRANCH  32  34
HETATM   34  C   UNL     1      29.557  44.900  55.802  1.00  0.00     0.033 A 
HETATM   35  S   UNL     1      30.665  43.613  55.519  1.00  0.00    -0.100 SA
HETATM   36  C   UNL     1      31.481  43.878  56.994  1.00  0.00     0.050 A 
HETATM   37  C   UNL     1      30.937  44.923  57.702  1.00  0.00     0.008 A 
HETATM   38  C   UNL     1      29.836  45.510  57.016  1.00  0.00     0.021 A 
ENDBRANCH  32  34
ENDBRANCH   1  27
TORSDOF 6
ENDMDL
MODEL 3
REMARK VINA RESULT:      -9.9      5.345      9.400
REMARK  6 active torsions:
REMARK  status: ('A' for Active; 'I' for Inactive)
REMARK    1  A    between atoms: C_4  and  C_5 
REMARK    2  A    between atoms: C_8  and  C_9 
REMARK    3  A    between atoms: C_9  and  N_10 
REMARK       I    between atoms: N_10  and  C_11 
REMARK       I    between atoms: C_11  and  N_12 
REMARK    4  A    between atoms: N_12  and  C_13 
REMARK    5  A    between atoms: C_15  and  C_16 
REMARK    6  A    between atoms: C_30  and  C_31 
ROOT
HETATM    1  C   UNL     1      20.732  46.881  47.500  1.00  0.00     0.068 C 
HETATM    2  C   UNL     1      19.926  45.939  48.448  1.00  0.00     0.001 C 
HETATM    3  C   UNL     1      20.849  45.029  49.293  1.00  0.00     0.040 C 
HETATM    4  C   UNL     1      21.805  44.226  48.396  1.00  0.00     0.206 C 
HETATM    5  N   UNL     1      21.441  44.567  46.952  1.00  0.00    -0.065 N 
HETATM    6  H   UNL     1      22.098  44.027  46.346  1.00  0.00     0.280 HD
HETATM    7  C   UNL     1      21.649  46.027  46.608  1.00  0.00     0.246 C 
HETATM    8  C   UNL     1      19.096  44.993  47.542  1.00  0.00     0.033 C 
HETATM    9  C   UNL     1      20.022  44.152  46.653  1.00  0.00     0.236 C 
ENDROOT
BRANCH   4  10
HETATM   10  C   UNL     1      23.306  44.453  48.729  1.00  0.00     0.157 C 
BRANCH  10  11
HETATM   11  N   UNL     1      23.682  44.322  50.138  1.00  0.00    -0.341 N 
HETATM   12  C   UNL     1      24.971  44.450  50.602  1.00  0.00     0.320 C 
HETATM   13  N   UNL     1      25.028  44.422  51.971  1.00  0.00    -0.309 N 
HETATM   14  O   UNL     1      25.919  44.528  49.828  1.00  0.00    -0.247 OA
HETATM   15  H   UNL     1      24.168  44.209  52.458  1.00  0.00     0.170 HD
HETATM   16  H   UNL     1      22.971  44.617  50.796  1.00  0.00     0.164 HD
BRANCH  13  17
HETATM   17  C   UNL     1      26.172  44.556  52.789  1.00  0.00     0.037 A 
HETATM   18  C   UNL     1      27.214  43.628  52.830  1.00  0.00     0.045 A 
HETATM   19  C   UNL     1      28.326  43.820  53.670  1.00  0.00     0.050 A 
HETATM   20  C   UNL     1      28.378  44.965  54.478  1.00  0.00     0.016 A 
HETATM   21  C   UNL     1      27.348  45.900  54.437  1.00  0.00     0.003 A 
HETATM   22  C   UNL     1      26.252  45.697  53.596  1.00  0.00     0.029 A 
BRANCH  19  23
HETATM   23  C   UNL     1      29.433  42.796  53.732  1.00  0.00     0.417 C 
HETATM   24  F   UNL     1      30.226  42.795  52.622  1.00  0.00    -0.166 F 
HETATM   25  F   UNL     1      30.270  42.982  54.788  1.00  0.00    -0.166 F 
HETATM   26  F   UNL     1      28.954  41.527  53.845  1.00  0.00    -0.166 F 
ENDBRANCH  19  23
ENDBRANCH  13  17
ENDBRANCH  10  11
ENDBRANCH   4  10
BRANCH   1  27
HETATM   27  C   UNL     1      21.528  47.990  48.160  1.00  0.00     0.045 A 
HETATM   28  N   UNL     1      20.860  48.901  48.888  1.00  0.00    -0.238 NA
HETATM   29  C   UNL     1      21.582  49.863  49.493  1.00  0.00     0.123 A 
HETATM   30  C   UNL     1      20.848  50.927  50.248  1.00  0.00     0.093 C 
HETATM   31  N   UNL     1      22.918  49.920  49.487  1.00  0.00    -0.233 NA
HETATM   32  C   UNL     1      23.579  48.979  48.783  1.00  0.00     0.077 A 
HETATM   33  C   UNL     1      22.910  47.993  48.081  1.00  0.00     0.060 A 
BRANCH  32  34
HETATM   34  C   UNL     1      25.047  49.089  48.871  1.00  0.00     0.033 A 
HETATM   35  S   UNL     1      25.991  47.985  49.795  1.00  0.00    -0.100 SA
HETATM   36  C   UNL     1      27.450  48.783  49.416  1.00  0.00     0.050 A 
HETATM   37  C   UNL     1      27.245  49.870  48.600  1.00  0.00     0.008 A 
HETATM   38  C   UNL     1      25.867  50.043  48.286  1.00  0.00     0.021 A 
ENDBRANCH  32  34
ENDBRANCH   1  27
TORSDOF 6
ENDMDL
MODEL 4
REMARK VINA RESULT:      -9.8      6.209     10.375
REMARK  6 active torsions:
REMARK  status: ('A' for Active; 'I' for Inactive)
REMARK    1  A    between atoms: C_4  and  C_5 
REMARK    2  A    between atoms: C_8  and  C_9 
REMARK    3  A    between atoms: C_9  and  N_10 
REMARK       I    between atoms: N_10  and  C_11 
REMARK       I    between atoms: C_11  and  N_12 
REMARK    4  A    between atoms: N_12  and  C_13 
REMARK    5  A    between atoms: C_15  and  C_16 
REMARK    6  A    between atoms: C_30  and  C_31 
ROOT
HETATM    1  C   UNL     1      23.688  44.079  48.794  1.00  0.00     0.068 C 
HETATM    2  C   UNL     1      23.205  42.920  49.720  1.00  0.00     0.001 C 
HETATM    3  C   UNL     1      24.305  42.462  50.708  1.00  0.00     0.040 C 
HETATM    4  C   UNL     1      25.591  42.075  49.961  1.00  0.00     0.206 C 
HETATM    5  N   UNL     1      25.291  42.212  48.470  1.00  0.00    -0.065 N 
HETATM    6  H   UNL     1      26.169  41.956  47.966  1.00  0.00     0.280 HD
HETATM    7  C   UNL     1      24.958  43.629  48.052  1.00  0.00     0.246 C 
HETATM    8  C   UNL     1      22.912  41.704  48.805  1.00  0.00     0.033 C 
HETATM    9  C   UNL     1      24.184  41.270  48.065  1.00  0.00     0.236 C 
ENDROOT
BRANCH   4  10
HETATM   10  C   UNL     1      26.841  42.876  50.420  1.00  0.00     0.157 C 
BRANCH  10  11
HETATM   11  N   UNL     1      26.855  43.307  51.820  1.00  0.00    -0.341 N 
HETATM   12  C   UNL     1      28.001  43.619  52.513  1.00  0.00     0.320 C 
HETATM   13  N   UNL     1      27.725  44.126  53.757  1.00  0.00    -0.309 N 
HETATM   14  O   UNL     1      29.110  43.402  52.038  1.00  0.00    -0.247 OA
HETATM   15  H   UNL     1      26.758  44.108  54.051  1.00  0.00     0.170 HD
HETATM   16  H   UNL     1      26.036  43.826  52.112  1.00  0.00     0.164 HD
BRANCH  13  17
HETATM   17  C   UNL     1      28.646  44.580  54.727  1.00  0.00     0.037 A 
HETATM   18  C   UNL     1      29.629  43.774  55.306  1.00  0.00     0.045 A 
HETATM   19  C   UNL     1      30.515  44.289  56.270  1.00  0.00     0.050 A 
HETATM   20  C   UNL     1      30.401  45.633  56.651  1.00  0.00     0.016 A 
HETATM   21  C   UNL     1      29.430  46.446  56.071  1.00  0.00     0.003 A 
HETATM   22  C   UNL     1      28.559  45.922  55.114  1.00  0.00     0.029 A 
BRANCH  19  23
HETATM   23  C   UNL     1      31.553  43.403  56.914  1.00  0.00     0.417 C 
HETATM   24  F   UNL     1      32.507  42.970  56.040  1.00  0.00    -0.166 F 
HETATM   25  F   UNL     1      32.225  44.020  57.923  1.00  0.00    -0.166 F 
HETATM   26  F   UNL     1      31.007  42.278  57.453  1.00  0.00    -0.166 F 
ENDBRANCH  19  23
ENDBRANCH  13  17
ENDBRANCH  10  11
ENDBRANCH   4  10
BRANCH   1  27
HETATM   27  C   UNL     1      23.915  45.426  49.451  1.00  0.00     0.045 A 
HETATM   28  N   UNL     1      24.831  45.505  50.431  1.00  0.00    -0.238 NA
HETATM   29  C   UNL     1      25.045  46.714  50.985  1.00  0.00     0.123 A 
HETATM   30  C   UNL     1      26.009  46.807  52.127  1.00  0.00     0.093 C 
HETATM   31  N   UNL     1      24.470  47.848  50.568  1.00  0.00    -0.233 NA
HETATM   32  C   UNL     1      23.581  47.760  49.558  1.00  0.00     0.077 A 
HETATM   33  C   UNL     1      23.258  46.548  48.976  1.00  0.00     0.060 A 
BRANCH  32  34
HETATM   34  C   UNL     1      23.035  49.061  49.130  1.00  0.00     0.033 A 
HETATM   35  S   UNL     1      21.342  49.335  48.979  1.00  0.00    -0.100 SA
HETATM   36  C   UNL     1      21.563  50.943  48.450  1.00  0.00     0.050 A 
HETATM   37  C   UNL     1      22.893  51.284  48.385  1.00  0.00     0.008 A 
HETATM   38  C   UNL     1      23.736  50.205  48.777  1.00  0.00     0.021 A 
ENDBRANCH  32  34
ENDBRANCH   1  27
TORSDOF 6
ENDMDL
MODEL 5
REMARK VINA RESULT:      -9.7      5.644     10.431
REMARK  6 active torsions:
REMARK  status: ('A' for Active; 'I' for Inactive)
REMARK    1  A    between atoms: C_4  and  C_5 
REMARK    2  A    between atoms: C_8  and  C_9 
REMARK    3  A    between atoms: C_9  and  N_10 
REMARK       I    between atoms: N_10  and  C_11 
REMARK       I    between atoms: C_11  and  N_12 
REMARK    4  A    between atoms: N_12  and  C_13 
REMARK    5  A    between atoms: C_15  and  C_16 
REMARK    6  A    between atoms: C_30  and  C_31 
ROOT
HETATM    1  C   UNL     1      23.687  43.817  48.386  1.00  0.00     0.068 C 
HETATM    2  C   UNL     1      23.370  42.542  49.228  1.00  0.00     0.001 C 
HETATM    3  C   UNL     1      23.421  42.818  50.750  1.00  0.00     0.040 C 
HETATM    4  C   UNL     1      24.773  43.427  51.155  1.00  0.00     0.206 C 
HETATM    5  N   UNL     1      25.630  43.474  49.892  1.00  0.00    -0.065 N 
HETATM    6  H   UNL     1      26.544  43.896  50.169  1.00  0.00     0.280 HD
HETATM    7  C   UNL     1      25.059  44.368  48.811  1.00  0.00     0.246 C 
HETATM    8  C   UNL     1      24.495  41.517  48.935  1.00  0.00     0.033 C 
HETATM    9  C   UNL     1      25.858  42.081  49.357  1.00  0.00     0.236 C 
ENDROOT
BRANCH   4  10
HETATM   10  C   UNL     1      24.645  44.801  51.871  1.00  0.00     0.157 C 
BRANCH  10  11
HETATM   11  N   UNL     1      25.853  45.301  52.530  1.00  0.00    -0.341 N 
HETATM   12  C   UNL     1      26.632  44.545  53.376  1.00  0.00     0.320 C 
HETATM   13  N   UNL     1      27.776  45.205  53.744  1.00  0.00    -0.309 N 
HETATM   14  O   UNL     1      26.268  43.438  53.755  1.00  0.00    -0.247 OA
HETATM   15  H   UNL     1      27.857  46.171  53.455  1.00  0.00     0.170 HD
HETATM   16  H   UNL     1      26.363  46.000  52.005  1.00  0.00     0.164 HD
BRANCH  13  17
HETATM   17  C   UNL     1      28.816  44.729  54.572  1.00  0.00     0.037 A 
HETATM   18  C   UNL     1      29.124  45.267  55.824  1.00  0.00     0.045 A 
HETATM   19  C   UNL     1      30.178  44.746  56.599  1.00  0.00     0.050 A 
HETATM   20  C   UNL     1      30.926  43.672  56.096  1.00  0.00     0.016 A 
HETATM   21  C   UNL     1      30.620  43.124  54.853  1.00  0.00     0.003 A 
HETATM   22  C   UNL     1      29.569  43.649  54.097  1.00  0.00     0.029 A 
BRANCH  19  23
HETATM   23  C   UNL     1      30.524  45.353  57.936  1.00  0.00     0.417 C 
HETATM   24  F   UNL     1      30.785  46.690  57.868  1.00  0.00    -0.166 F 
HETATM   25  F   UNL     1      29.532  45.213  58.855  1.00  0.00    -0.166 F 
HETATM   26  F   UNL     1      31.634  44.787  58.486  1.00  0.00    -0.166 F 
ENDBRANCH  19  23
ENDBRANCH  13  17
ENDBRANCH  10  11
ENDBRANCH   4  10
BRANCH   1  27
HETATM   27  C   UNL     1      22.650  44.922  48.406  1.00  0.00     0.045 A 
HETATM   28  N   UNL     1      21.353  44.571  48.406  1.00  0.00    -0.238 NA
HETATM   29  C   UNL     1      20.441  45.562  48.455  1.00  0.00     0.123 A 
HETATM   30  C   UNL     1      18.993  45.193  48.383  1.00  0.00     0.093 C 
HETATM   31  N   UNL     1      20.743  46.859  48.589  1.00  0.00    -0.233 NA
HETATM   32  C   UNL     1      22.049  47.194  48.625  1.00  0.00     0.077 A 
HETATM   33  C   UNL     1      23.047  46.244  48.518  1.00  0.00     0.060 A 
BRANCH  32  34
HETATM   34  C   UNL     1      22.289  48.635  48.824  1.00  0.00     0.033 A 
HETATM   35  S   UNL     1      23.860  49.326  48.687  1.00  0.00    -0.100 SA
HETATM   36  C   UNL     1      23.298  50.892  49.068  1.00  0.00     0.050 A 
HETATM   37  C   UNL     1      21.942  50.909  49.297  1.00  0.00     0.008 A 
HETATM   38  C   UNL     1      21.365  49.616  49.155  1.00  0.00     0.021 A 
ENDBRANCH  32  34
ENDBRANCH   1  27
TORSDOF 6
ENDMDL
MODEL 6
REMARK VINA RESULT:      -9.7     13.041     14.830
REMARK  6 active torsions:
REMARK  status: ('A' for Active; 'I' for Inactive)
REMARK    1  A    between atoms: C_4  and  C_5 
REMARK    2  A    between atoms: C_8  and  C_9 
REMARK    3  A    between atoms: C_9  and  N_10 
REMARK       I    between atoms: N_10  and  C_11 
REMARK       I    between atoms: C_11  and  N_12 
REMARK    4  A    between atoms: N_12  and  C_13 
REMARK    5  A    between atoms: C_15  and  C_16 
REMARK    6  A    between atoms: C_30  and  C_31 
ROOT
HETATM    1  C   UNL     1      36.398  50.851  42.000  1.00  0.00     0.068 C 
HETATM    2  C   UNL     1      37.080  52.234  42.241  1.00  0.00     0.001 C 
HETATM    3  C   UNL     1      36.565  53.319  41.267  1.00  0.00     0.040 C 
HETATM    4  C   UNL     1      36.725  52.870  39.805  1.00  0.00     0.206 C 
HETATM    5  N   UNL     1      37.422  51.511  39.838  1.00  0.00    -0.065 N 
HETATM    6  H   UNL     1      37.522  51.205  38.845  1.00  0.00     0.280 HD
HETATM    7  C   UNL     1      36.613  50.437  40.535  1.00  0.00     0.246 C 
HETATM    8  C   UNL     1      38.588  52.053  41.931  1.00  0.00     0.033 C 
HETATM    9  C   UNL     1      38.788  51.633  40.468  1.00  0.00     0.236 C 
ENDROOT
BRANCH   4  10
HETATM   10  C   UNL     1      35.392  52.866  39.007  1.00  0.00     0.157 C 
BRANCH  10  11
HETATM   11  N   UNL     1      34.184  53.195  39.765  1.00  0.00    -0.341 N 
HETATM   12  C   UNL     1      32.953  52.628  39.529  1.00  0.00     0.320 C 
HETATM   13  N   UNL     1      32.027  53.005  40.467  1.00  0.00    -0.309 N 
HETATM   14  O   UNL     1      32.760  51.916  38.550  1.00  0.00    -0.247 OA
HETATM   15  H   UNL     1      32.313  53.712  41.130  1.00  0.00     0.170 HD
HETATM   16  H   UNL     1      34.346  53.451  40.732  1.00  0.00     0.164 HD
BRANCH  13  17
HETATM   17  C   UNL     1      30.677  52.597  40.558  1.00  0.00     0.037 A 
HETATM   18  C   UNL     1      30.034  51.812  39.599  1.00  0.00     0.045 A 
HETATM   19  C   UNL     1      28.684  51.442  39.749  1.00  0.00     0.050 A 
HETATM   20  C   UNL     1      27.982  51.875  40.883  1.00  0.00     0.016 A 
HETATM   21  C   UNL     1      28.619  52.651  41.849  1.00  0.00     0.003 A 
HETATM   22  C   UNL     1      29.959  53.007  41.687  1.00  0.00     0.029 A 
BRANCH  19  23
HETATM   23  C   UNL     1      27.987  50.620  38.692  1.00  0.00     0.417 C 
HETATM   24  F   UNL     1      28.851  49.996  37.842  1.00  0.00    -0.166 F 
HETATM   25  F   UNL     1      27.204  49.639  39.215  1.00  0.00    -0.166 F 
HETATM   26  F   UNL     1      27.174  51.378  37.905  1.00  0.00    -0.166 F 
ENDBRANCH  19  23
ENDBRANCH  13  17
ENDBRANCH  10  11
ENDBRANCH   4  10
BRANCH   1  27
HETATM   27  C   UNL     1      34.931  50.743  42.365  1.00  0.00     0.045 A 
HETATM   28  N   UNL     1      34.455  51.561  43.319  1.00  0.00    -0.238 NA
HETATM   29  C   UNL     1      33.143  51.476  43.612  1.00  0.00     0.123 A 
HETATM   30  C   UNL     1      32.611  52.328  44.721  1.00  0.00     0.093 C 
HETATM   31  N   UNL     1      32.273  50.695  42.961  1.00  0.00    -0.233 NA
HETATM   32  C   UNL     1      32.758  49.905  41.981  1.00  0.00     0.077 A 
HETATM   33  C   UNL     1      34.102  49.887  41.660  1.00  0.00     0.060 A 
BRANCH  32  34
HETATM   34  C   UNL     1      31.724  49.117  41.285  1.00  0.00     0.033 A 
HETATM   35  S   UNL     1      30.212  48.744  42.019  1.00  0.00    -0.100 SA
HETATM   36  C   UNL     1      29.677  47.854  40.666  1.00  0.00     0.050 A 
HETATM   37  C   UNL     1      30.617  47.830  39.663  1.00  0.00     0.008 A 
HETATM   38  C   UNL     1      31.789  48.556  40.018  1.00  0.00     0.021 A 
ENDBRANCH  32  34
ENDBRANCH   1  27
TORSDOF 6
ENDMDL
MODEL 7
REMARK VINA RESULT:      -9.6      5.592     10.769
REMARK  6 active torsions:
REMARK  status: ('A' for Active; 'I' for Inactive)
REMARK    1  A    between atoms: C_4  and  C_5 
REMARK    2  A    between atoms: C_8  and  C_9 
REMARK    3  A    between atoms: C_9  and  N_10 
REMARK       I    between atoms: N_10  and  C_11 
REMARK       I    between atoms: C_11  and  N_12 
REMARK    4  A    between atoms: N_12  and  C_13 
REMARK    5  A    between atoms: C_15  and  C_16 
REMARK    6  A    between atoms: C_30  and  C_31 
ROOT
HETATM    1  C   UNL     1      23.531  44.381  48.316  1.00  0.00     0.068 C 
HETATM    2  C   UNL     1      22.924  43.062  48.888  1.00  0.00     0.001 C 
HETATM    3  C   UNL     1      22.993  43.007  50.432  1.00  0.00     0.040 C 
HETATM    4  C   UNL     1      24.433  43.215  50.929  1.00  0.00     0.206 C 
HETATM    5  N   UNL     1      25.313  43.330  49.685  1.00  0.00    -0.065 N 
HETATM    6  H   UNL     1      26.289  43.479  50.026  1.00  0.00     0.280 HD
HETATM    7  C   UNL     1      24.978  44.525  48.819  1.00  0.00     0.246 C 
HETATM    8  C   UNL     1      23.810  41.898  48.373  1.00  0.00     0.033 C 
HETATM    9  C   UNL     1      25.251  42.058  48.875  1.00  0.00     0.236 C 
ENDROOT
BRANCH   4  10
HETATM   10  C   UNL     1      24.585  44.411  51.910  1.00  0.00     0.157 C 
BRANCH  10  11
HETATM   11  N   UNL     1      25.956  44.794  52.255  1.00  0.00    -0.341 N 
HETATM   12  C   UNL     1      26.577  44.439  53.430  1.00  0.00     0.320 C 
HETATM   13  N   UNL     1      27.898  44.804  53.441  1.00  0.00    -0.309 N 
HETATM   14  O   UNL     1      25.954  43.904  54.341  1.00  0.00    -0.247 OA
HETATM   15  H   UNL     1      28.222  45.365  52.666  1.00  0.00     0.170 HD
HETATM   16  H   UNL     1      26.582  44.887  51.464  1.00  0.00     0.164 HD
BRANCH  13  17
HETATM   17  C   UNL     1      28.847  44.576  54.463  1.00  0.00     0.037 A 
HETATM   18  C   UNL     1      28.893  45.297  55.658  1.00  0.00     0.045 A 
HETATM   19  C   UNL     1      29.868  45.020  56.636  1.00  0.00     0.050 A 
HETATM   20  C   UNL     1      30.804  44.004  56.396  1.00  0.00     0.016 A 
HETATM   21  C   UNL     1      30.759  43.275  55.210  1.00  0.00     0.003 A 
HETATM   22  C   UNL     1      29.784  43.558  54.251  1.00  0.00     0.029 A 
BRANCH  19  23
HETATM   23  C   UNL     1      29.931  45.825  57.911  1.00  0.00     0.417 C 
HETATM   24  F   UNL     1      30.025  45.052  59.030  1.00  0.00    -0.166 F 
HETATM   25  F   UNL     1      30.995  46.671  57.952  1.00  0.00    -0.166 F 
HETATM   26  F   UNL     1      28.824  46.598  58.087  1.00  0.00    -0.166 F 
ENDBRANCH  19  23
ENDBRANCH  13  17
ENDBRANCH  10  11
ENDBRANCH   4  10
BRANCH   1  27
HETATM   27  C   UNL     1      22.756  45.657  48.578  1.00  0.00     0.045 A 
HETATM   28  N   UNL     1      23.452  46.784  48.806  1.00  0.00    -0.238 NA
HETATM   29  C   UNL     1      22.751  47.917  49.007  1.00  0.00     0.123 A 
HETATM   30  C   UNL     1      23.508  49.166  49.334  1.00  0.00     0.093 C 
HETATM   31  N   UNL     1      21.420  48.007  48.911  1.00  0.00    -0.233 NA
HETATM   32  C   UNL     1      20.736  46.876  48.645  1.00  0.00     0.077 A 
HETATM   33  C   UNL     1      21.374  45.660  48.487  1.00  0.00     0.060 A 
BRANCH  32  34
HETATM   34  C   UNL     1      19.281  47.077  48.508  1.00  0.00     0.033 A 
HETATM   35  S   UNL     1      18.239  45.834  47.930  1.00  0.00    -0.100 SA
HETATM   36  C   UNL     1      16.855  46.826  48.040  1.00  0.00     0.050 A 
HETATM   37  C   UNL     1      17.159  48.083  48.508  1.00  0.00     0.008 A 
HETATM   38  C   UNL     1      18.550  48.224  48.777  1.00  0.00     0.021 A 
ENDBRANCH  32  34
ENDBRANCH   1  27
TORSDOF 6
ENDMDL
MODEL 8
REMARK VINA RESULT:      -9.6      5.609     10.742
REMARK  6 active torsions:
REMARK  status: ('A' for Active; 'I' for Inactive)
REMARK    1  A    between atoms: C_4  and  C_5 
REMARK    2  A    between atoms: C_8  and  C_9 
REMARK    3  A    between atoms: C_9  and  N_10 
REMARK       I    between atoms: N_10  and  C_11 
REMARK       I    between atoms: C_11  and  N_12 
REMARK    4  A    between atoms: N_12  and  C_13 
REMARK    5  A    between atoms: C_15  and  C_16 
REMARK    6  A    between atoms: C_30  and  C_31 
ROOT
HETATM    1  C   UNL     1      20.785  46.438  46.899  1.00  0.00     0.068 C 
HETATM    2  C   UNL     1      20.103  45.406  47.850  1.00  0.00     0.001 C 
HETATM    3  C   UNL     1      21.036  44.968  49.004  1.00  0.00     0.040 C 
HETATM    4  C   UNL     1      22.368  44.426  48.462  1.00  0.00     0.206 C 
HETATM    5  N   UNL     1      22.262  44.445  46.938  1.00  0.00    -0.065 N 
HETATM    6  H   UNL     1      23.171  44.084  46.574  1.00  0.00     0.280 HD
HETATM    7  C   UNL     1      22.095  45.836  46.364  1.00  0.00     0.246 C 
HETATM    8  C   UNL     1      19.827  44.133  47.010  1.00  0.00     0.033 C 
HETATM    9  C   UNL     1      21.141  43.547  46.476  1.00  0.00     0.236 C 
ENDROOT
BRANCH   4  10
HETATM   10  C   UNL     1      23.613  45.180  49.008  1.00  0.00     0.157 C 
BRANCH  10  11
HETATM   11  N   UNL     1      23.982  44.898  50.396  1.00  0.00    -0.341 N 
HETATM   12  C   UNL     1      25.261  45.023  50.889  1.00  0.00     0.320 C 
HETATM   13  N   UNL     1      25.307  44.835  52.246  1.00  0.00    -0.309 N 
HETATM   14  O   UNL     1      26.211  45.230  50.143  1.00  0.00    -0.247 OA
HETATM   15  H   UNL     1      24.453  44.531  52.693  1.00  0.00     0.170 HD
HETATM   16  H   UNL     1      23.254  45.085  51.075  1.00  0.00     0.164 HD
BRANCH  13  17
HETATM   17  C   UNL     1      26.438  44.917  53.089  1.00  0.00     0.037 A 
HETATM   18  C   UNL     1      27.491  44.001  53.071  1.00  0.00     0.045 A 
HETATM   19  C   UNL     1      28.589  44.140  53.941  1.00  0.00     0.050 A 
HETATM   20  C   UNL     1      28.615  45.217  54.839  1.00  0.00     0.016 A 
HETATM   21  C   UNL     1      27.572  46.140  54.857  1.00  0.00     0.003 A 
HETATM   22  C   UNL     1      26.491  45.991  53.986  1.00  0.00     0.029 A 
BRANCH  19  23
HETATM   23  C   UNL     1      29.709  43.128  53.937  1.00  0.00     0.417 C 
HETATM   24  F   UNL     1      29.277  41.849  54.131  1.00  0.00    -0.166 F 
HETATM   25  F   UNL     1      30.406  43.113  52.770  1.00  0.00    -0.166 F 
HETATM   26  F   UNL     1      30.619  43.364  54.922  1.00  0.00    -0.166 F 
ENDBRANCH  19  23
ENDBRANCH  13  17
ENDBRANCH  10  11
ENDBRANCH   4  10
BRANCH   1  27
HETATM   27  C   UNL     1      21.036  47.822  47.465  1.00  0.00     0.045 A 
HETATM   28  N   UNL     1      22.289  48.306  47.419  1.00  0.00    -0.238 NA
HETATM   29  C   UNL     1      22.494  49.548  47.897  1.00  0.00     0.123 A 
HETATM   30  C   UNL     1      23.895  50.074  47.920  1.00  0.00     0.093 C 
HETATM   31  N   UNL     1      21.522  50.358  48.332  1.00  0.00    -0.233 NA
HETATM   32  C   UNL     1      20.263  49.874  48.338  1.00  0.00     0.077 A 
HETATM   33  C   UNL     1      19.977  48.587  47.923  1.00  0.00     0.060 A 
BRANCH  32  34
HETATM   34  C   UNL     1      19.252  50.850  48.785  1.00  0.00     0.033 A 
HETATM   35  S   UNL     1      17.968  50.412  49.845  1.00  0.00    -0.100 SA
HETATM   36  C   UNL     1      17.301  51.982  49.826  1.00  0.00     0.050 A 
HETATM   37  C   UNL     1      18.029  52.839  49.034  1.00  0.00     0.008 A 
HETATM   38  C   UNL     1      19.148  52.189  48.440  1.00  0.00     0.021 A 
ENDBRANCH  32  34
ENDBRANCH   1  27
TORSDOF 6
ENDMDL
MODEL 9
REMARK VINA RESULT:      -9.4      5.174     10.524
REMARK  6 active torsions:
REMARK  status: ('A' for Active; 'I' for Inactive)
REMARK    1  A    between atoms: C_4  and  C_5 
REMARK    2  A    between atoms: C_8  and  C_9 
REMARK    3  A    between atoms: C_9  and  N_10 
REMARK       I    between atoms: N_10  and  C_11 
REMARK       I    between atoms: C_11  and  N_12 
REMARK    4  A    between atoms: N_12  and  C_13 
REMARK    5  A    between atoms: C_15  and  C_16 
REMARK    6  A    between atoms: C_30  and  C_31 
ROOT
HETATM    1  C   UNL     1      19.702  49.235  48.145  1.00  0.00     0.068 C 
HETATM    2  C   UNL     1      20.524  50.500  47.746  1.00  0.00     0.001 C 
HETATM    3  C   UNL     1      22.037  50.203  47.628  1.00  0.00     0.040 C 
HETATM    4  C   UNL     1      22.580  49.576  48.923  1.00  0.00     0.206 C 
HETATM    5  N   UNL     1      21.417  49.540  49.913  1.00  0.00    -0.065 N 
HETATM    6  H   UNL     1      21.787  49.106  50.788  1.00  0.00     0.280 HD
HETATM    7  C   UNL     1      20.267  48.666  49.458  1.00  0.00     0.246 C 
HETATM    8  C   UNL     1      20.371  51.520  48.904  1.00  0.00     0.033 C 
HETATM    9  C   UNL     1      20.931  50.938  50.209  1.00  0.00     0.236 C 
ENDROOT
BRANCH   4  10
HETATM   10  C   UNL     1      23.256  48.194  48.707  1.00  0.00     0.157 C 
BRANCH  10  11
HETATM   11  N   UNL     1      23.519  47.407  49.915  1.00  0.00    -0.341 N 
HETATM   12  C   UNL     1      24.706  47.444  50.609  1.00  0.00     0.320 C 
HETATM   13  N   UNL     1      24.640  46.725  51.774  1.00  0.00    -0.309 N 
HETATM   14  O   UNL     1      25.686  48.029  50.160  1.00  0.00    -0.247 OA
HETATM   15  H   UNL     1      23.801  46.183  51.927  1.00  0.00     0.170 HD
HETATM   16  H   UNL     1      22.705  47.229  50.490  1.00  0.00     0.164 HD
BRANCH  13  17
HETATM   17  C   UNL     1      25.652  46.566  52.747  1.00  0.00     0.037 A 
HETATM   18  C   UNL     1      26.533  45.483  52.785  1.00  0.00     0.045 A 
HETATM   19  C   UNL     1      27.519  45.384  53.784  1.00  0.00     0.050 A 
HETATM   20  C   UNL     1      27.609  46.392  54.755  1.00  0.00     0.016 A 
HETATM   21  C   UNL     1      26.739  47.479  54.719  1.00  0.00     0.003 A 
HETATM   22  C   UNL     1      25.769  47.566  53.719  1.00  0.00     0.029 A 
BRANCH  19  23
HETATM   23  C   UNL     1      28.447  44.195  53.837  1.00  0.00     0.417 C 
HETATM   24  F   UNL     1      27.862  43.081  54.364  1.00  0.00    -0.166 F 
HETATM   25  F   UNL     1      28.910  43.829  52.612  1.00  0.00    -0.166 F 
HETATM   26  F   UNL     1      29.546  44.433  54.604  1.00  0.00    -0.166 F 
ENDBRANCH  19  23
ENDBRANCH  13  17
ENDBRANCH  10  11
ENDBRANCH   4  10
BRANCH   1  27
HETATM   27  C   UNL     1      19.592  48.139  47.104  1.00  0.00     0.045 A 
HETATM   28  N   UNL     1      19.009  48.437  45.930  1.00  0.00    -0.238 NA
HETATM   29  C   UNL     1      18.945  47.463  45.003  1.00  0.00     0.123 A 
HETATM   30  C   UNL     1      18.235  47.757  43.718  1.00  0.00     0.093 C 
HETATM   31  N   UNL     1      19.497  46.252  45.141  1.00  0.00    -0.233 NA
HETATM   32  C   UNL     1      20.112  45.977  46.310  1.00  0.00     0.077 A 
HETATM   33  C   UNL     1      20.167  46.901  47.337  1.00  0.00     0.060 A 
BRANCH  32  34
HETATM   34  C   UNL     1      20.733  44.641  46.357  1.00  0.00     0.033 A 
HETATM   35  S   UNL     1      22.281  44.378  47.062  1.00  0.00    -0.100 SA
HETATM   36  C   UNL     1      22.260  42.712  46.695  1.00  0.00     0.050 A 
HETATM   37  C   UNL     1      21.104  42.342  46.049  1.00  0.00     0.008 A 
HETATM   38  C   UNL     1      20.228  43.448  45.858  1.00  0.00     0.021 A 
ENDBRANCH  32  34
ENDBRANCH   1  27
TORSDOF 6
ENDMDL
MODEL 10
REMARK VINA RESULT:      -9.3      2.414      3.382
REMARK  6 active torsions:
REMARK  status: ('A' for Active; 'I' for Inactive)
REMARK    1  A    between atoms: C_4  and  C_5 
REMARK    2  A    between atoms: C_8  and  C_9 
REMARK    3  A    between atoms: C_9  and  N_10 
REMARK       I    between atoms: N_10  and  C_11 
REMARK       I    between atoms: C_11  and  N_12 
REMARK    4  A    between atoms: N_12  and  C_13 
REMARK    5  A    between atoms: C_15  and  C_16 
REMARK    6  A    between atoms: C_30  and  C_31 
ROOT
HETATM    1  C   UNL     1      27.619  41.180  50.863  1.00  0.00     0.068 C 
HETATM    2  C   UNL     1      27.854  41.353  49.330  1.00  0.00     0.001 C 
HETATM    3  C   UNL     1      26.671  42.064  48.632  1.00  0.00     0.040 C 
HETATM    4  C   UNL     1      25.346  41.334  48.911  1.00  0.00     0.206 C 
HETATM    5  N   UNL     1      25.693  40.096  49.735  1.00  0.00    -0.065 N 
HETATM    6  H   UNL     1      24.790  39.608  49.929  1.00  0.00     0.280 HD
HETATM    7  C   UNL     1      26.299  40.421  51.083  1.00  0.00     0.246 C 
HETATM    8  C   UNL     1      27.924  39.929  48.722  1.00  0.00     0.033 C 
HETATM    9  C   UNL     1      26.605  39.180  48.955  1.00  0.00     0.236 C 
ENDROOT
BRANCH   4  10
HETATM   10  C   UNL     1      24.267  42.237  49.569  1.00  0.00     0.157 C 
BRANCH  10  11
HETATM   11  N   UNL     1      24.296  43.654  49.200  1.00  0.00    -0.341 N 
HETATM   12  C   UNL     1      23.172  44.441  49.095  1.00  0.00     0.320 C 
HETATM   13  N   UNL     1      23.488  45.757  48.874  1.00  0.00    -0.309 N 
HETATM   14  O   UNL     1      22.049  43.955  49.154  1.00  0.00    -0.247 OA
HETATM   15  H   UNL     1      24.463  45.970  48.710  1.00  0.00     0.170 HD
HETATM   16  H   UNL     1      25.128  44.151  49.493  1.00  0.00     0.164 HD
BRANCH  13  17
HETATM   17  C   UNL     1      22.599  46.847  48.746  1.00  0.00     0.037 A 
HETATM   18  C   UNL     1      22.928  48.164  49.069  1.00  0.00     0.045 A 
HETATM   19  C   UNL     1      21.992  49.205  48.920  1.00  0.00     0.050 A 
HETATM   20  C   UNL     1      20.710  48.903  48.440  1.00  0.00     0.016 A 
HETATM   21  C   UNL     1      20.376  47.593  48.107  1.00  0.00     0.003 A 
HETATM   22  C   UNL     1      21.316  46.572  48.257  1.00  0.00     0.029 A 
BRANCH  19  23
HETATM   23  C   UNL     1      22.347  50.622  49.302  1.00  0.00     0.417 C 
HETATM   24  F   UNL     1      22.026  50.926  50.592  1.00  0.00    -0.166 F 
HETATM   25  F   UNL     1      23.674  50.889  49.174  1.00  0.00    -0.166 F 
HETATM   26  F   UNL     1      21.698  51.539  48.533  1.00  0.00    -0.166 F 
ENDBRANCH  19  23
ENDBRANCH  13  17
ENDBRANCH  10  11
ENDBRANCH   4  10
BRANCH   1  27
HETATM   27  C   UNL     1      27.644  42.442  51.702  1.00  0.00     0.045 A 
HETATM   28  N   UNL     1      26.669  43.347  51.513  1.00  0.00    -0.238 NA
HETATM   29  C   UNL     1      26.685  44.449  52.286  1.00  0.00     0.123 A 
HETATM   30  C   UNL     1      25.649  45.501  52.040  1.00  0.00     0.093 C 
HETATM   31  N   UNL     1      27.555  44.660  53.282  1.00  0.00    -0.233 NA
HETATM   32  C   UNL     1      28.506  43.726  53.485  1.00  0.00     0.077 A 
HETATM   33  C   UNL     1      28.597  42.596  52.695  1.00  0.00     0.060 A 
BRANCH  32  34
HETATM   34  C   UNL     1      29.389  44.015  54.631  1.00  0.00     0.033 A 
HETATM   35  S   UNL     1      29.191  45.421  55.604  1.00  0.00    -0.100 SA
HETATM   36  C   UNL     1      30.526  45.031  56.591  1.00  0.00     0.050 A 
HETATM   37  C   UNL     1      31.124  43.854  56.205  1.00  0.00     0.008 A 
HETATM   38  C   UNL     1      30.470  43.272  55.083  1.00  0.00     0.021 A 
ENDBRANCH  32  34
ENDBRANCH   1  27
TORSDOF 6
ENDMDL
