MODEL 1
REMARK VINA RESULT:      -8.6      0.000      0.000
REMARK  8 active torsions:
REMARK  status: ('A' for Active; 'I' for Inactive)
REMARK    1  A    between atoms: C_2  and  C_3 
REMARK    2  A    between atoms: C_3  and  O_4 
REMARK    3  A    between atoms: O_4  and  C_5 
REMARK    4  A    between atoms: C_7  and  C_8 
REMARK    5  A    between atoms: N_9  and  C_10 
REMARK    6  A    between atoms: C_10  and  C_11 
REMARK    7  A    between atoms: C_24  and  C_25 
REMARK    8  A    between atoms: C_26  and  O_27 
ROOT
HETATM    1  C   UNL     1      24.620  43.608  50.368  1.00  0.00     0.159 A 
HETATM    2  N   UNL     1      23.657  43.621  49.232  1.00  0.00    -0.329 N 
HETATM    3  C   UNL     1      24.107  42.942  48.098  1.00  0.00     0.273 A 
HETATM    4  O   UNL     1      23.526  42.753  47.045  1.00  0.00    -0.266 OA
HETATM    5  C   UNL     1      25.397  42.501  48.469  1.00  0.00     0.129 A 
HETATM    6  C   UNL     1      25.726  42.842  49.748  1.00  0.00     0.034 A 
HETATM    7  N   UNL     1      26.428  41.828  47.939  1.00  0.00    -0.272 N 
HETATM    8  H   UNL     1      26.525  41.429  47.009  1.00  0.00     0.189 HD
HETATM    9  N   UNL     1      27.453  41.714  48.823  1.00  0.00    -0.173 NA
HETATM   10  C   UNL     1      27.002  42.294  49.969  1.00  0.00     0.101 A 
ENDROOT
BRANCH   1  11
HETATM   11  C   UNL     1      25.155  44.977  50.719  1.00  0.00    -0.028 A 
HETATM   12  C   UNL     1      25.863  45.712  49.752  1.00  0.00     0.046 A 
HETATM   13  C   UNL     1      26.361  46.991  50.025  1.00  0.00     0.069 A 
HETATM   14  C   UNL     1      26.167  47.546  51.288  1.00  0.00     0.037 A 
HETATM   15  C   UNL     1      25.475  46.829  52.267  1.00  0.00     0.003 A 
HETATM   16  C   UNL     1      24.974  45.558  51.986  1.00  0.00     0.010 A 
BRANCH  13  17
HETATM   17  O   UNL     1      27.014  47.582  48.978  1.00  0.00    -0.348 OA
BRANCH  17  18
HETATM   18  C   UNL     1      27.662  48.825  49.240  1.00  0.00     0.202 C 
BRANCH  18  19
HETATM   19  C   UNL     1      26.927  49.885  48.476  1.00  0.00    -0.011 C 
HETATM   20  C   UNL     1      25.623  49.843  48.174  1.00  0.00     0.009 C 
ENDBRANCH  18  19
ENDBRANCH  17  18
ENDBRANCH  13  17
ENDBRANCH   1  11
BRANCH   2  21
HETATM   21  C   UNL     1      22.315  44.142  49.364  1.00  0.00     0.165 C 
BRANCH  21  22
HETATM   22  C   UNL     1      22.115  45.399  48.558  1.00  0.00    -0.037 A 
HETATM   23  C   UNL     1      22.710  46.603  48.943  1.00  0.00     0.028 A 
HETATM   24  C   UNL     1      22.488  47.731  48.167  1.00  0.00     0.116 A 
HETATM   25  N   UNL     1      21.721  47.740  47.056  1.00  0.00    -0.273 NA
HETATM   26  C   UNL     1      21.156  46.566  46.699  1.00  0.00     0.116 A 
HETATM   27  C   UNL     1      21.322  45.387  47.405  1.00  0.00     0.028 A 
ENDBRANCH  21  22
ENDBRANCH   2  21
BRANCH  10  28
HETATM   28  C   UNL     1      27.835  42.310  51.174  1.00  0.00     0.028 A 
HETATM   29  C   UNL     1      28.309  41.119  51.752  1.00  0.00     0.078 A 
HETATM   30  C   UNL     1      29.126  41.136  52.881  1.00  0.00     0.037 A 
HETATM   31  C   UNL     1      29.465  42.351  53.471  1.00  0.00     0.003 A 
HETATM   32  C   UNL     1      28.982  43.543  52.934  1.00  0.00     0.001 A 
HETATM   33  C   UNL     1      28.169  43.523  51.795  1.00  0.00     0.017 A 
BRANCH  29  34
HETATM   34  O   UNL     1      27.993  39.882  51.249  1.00  0.00    -0.360 OA
HETATM   35  H   UNL     1      27.150  39.999  50.754  1.00  0.00     0.217 HD
ENDBRANCH  29  34
ENDBRANCH  10  28
TORSDOF 8
ENDMDL
MODEL 2
REMARK VINA RESULT:      -8.6      1.664      2.750
REMARK  8 active torsions:
REMARK  status: ('A' for Active; 'I' for Inactive)
REMARK    1  A    between atoms: C_2  and  C_3 
REMARK    2  A    between atoms: C_3  and  O_4 
REMARK    3  A    between atoms: O_4  and  C_5 
REMARK    4  A    between atoms: C_7  and  C_8 
REMARK    5  A    between atoms: N_9  and  C_10 
REMARK    6  A    between atoms: C_10  and  C_11 
REMARK    7  A    between atoms: C_24  and  C_25 
REMARK    8  A    between atoms: C_26  and  O_27 
ROOT
HETATM    1  C   UNL     1      24.874  43.229  51.052  1.00  0.00     0.159 A 
HETATM    2  N   UNL     1      23.961  42.795  49.959  1.00  0.00    -0.329 N 
HETATM    3  C   UNL     1      24.475  41.768  49.165  1.00  0.00     0.273 A 
HETATM    4  O   UNL     1      23.944  41.188  48.235  1.00  0.00    -0.266 OA
HETATM    5  C   UNL     1      25.757  41.537  49.713  1.00  0.00     0.129 A 
HETATM    6  C   UNL     1      26.022  42.331  50.791  1.00  0.00     0.034 A 
HETATM    7  N   UNL     1      26.824  40.754  49.498  1.00  0.00    -0.272 N 
HETATM    8  H   UNL     1      26.969  40.049  48.782  1.00  0.00     0.189 HD
HETATM    9  N   UNL     1      27.811  41.006  50.397  1.00  0.00    -0.173 NA
HETATM   10  C   UNL     1      27.299  41.946  51.237  1.00  0.00     0.101 A 
ENDROOT
BRANCH   1  11
HETATM   11  C   UNL     1      25.365  44.650  50.899  1.00  0.00    -0.028 A 
HETATM   12  C   UNL     1      25.172  45.567  51.947  1.00  0.00     0.046 A 
HETATM   13  C   UNL     1      25.626  46.887  51.858  1.00  0.00     0.069 A 
HETATM   14  C   UNL     1      26.271  47.312  50.699  1.00  0.00     0.037 A 
HETATM   15  C   UNL     1      26.465  46.422  49.642  1.00  0.00     0.003 A 
HETATM   16  C   UNL     1      26.018  45.104  49.740  1.00  0.00     0.010 A 
BRANCH  13  17
HETATM   17  O   UNL     1      25.374  47.650  52.965  1.00  0.00    -0.348 OA
BRANCH  17  18
HETATM   18  C   UNL     1      25.832  47.143  54.217  1.00  0.00     0.202 C 
BRANCH  18  19
HETATM   19  C   UNL     1      27.275  47.529  54.357  1.00  0.00    -0.011 C 
HETATM   20  C   UNL     1      28.071  47.157  55.368  1.00  0.00     0.009 C 
ENDBRANCH  18  19
ENDBRANCH  17  18
ENDBRANCH  13  17
ENDBRANCH   1  11
BRANCH   2  21
HETATM   21  C   UNL     1      22.604  43.281  49.848  1.00  0.00     0.165 C 
BRANCH  21  22
HETATM   22  C   UNL     1      22.455  44.294  48.744  1.00  0.00    -0.037 A 
HETATM   23  C   UNL     1      22.189  43.894  47.431  1.00  0.00     0.028 A 
HETATM   24  C   UNL     1      22.068  44.868  46.453  1.00  0.00     0.116 A 
HETATM   25  N   UNL     1      22.197  46.191  46.688  1.00  0.00    -0.273 NA
HETATM   26  C   UNL     1      22.453  46.558  47.963  1.00  0.00     0.116 A 
HETATM   27  C   UNL     1      22.587  45.661  49.009  1.00  0.00     0.028 A 
ENDBRANCH  21  22
ENDBRANCH   2  21
BRANCH  10  28
HETATM   28  C   UNL     1      28.078  42.427  52.380  1.00  0.00     0.028 A 
HETATM   29  C   UNL     1      28.693  41.534  53.276  1.00  0.00     0.078 A 
HETATM   30  C   UNL     1      29.458  41.992  54.346  1.00  0.00     0.037 A 
HETATM   31  C   UNL     1      29.604  43.362  54.555  1.00  0.00     0.003 A 
HETATM   32  C   UNL     1      28.981  44.267  53.698  1.00  0.00     0.001 A 
HETATM   33  C   UNL     1      28.219  43.802  52.620  1.00  0.00     0.017 A 
BRANCH  29  34
HETATM   34  O   UNL     1      28.568  40.173  53.157  1.00  0.00    -0.360 OA
HETATM   35  H   UNL     1      27.635  40.009  52.891  1.00  0.00     0.217 HD
ENDBRANCH  29  34
ENDBRANCH  10  28
TORSDOF 8
ENDMDL
MODEL 3
REMARK VINA RESULT:      -8.2      3.455      8.301
REMARK  8 active torsions:
REMARK  status: ('A' for Active; 'I' for Inactive)
REMARK    1  A    between atoms: C_2  and  C_3 
REMARK    2  A    between atoms: C_3  and  O_4 
REMARK    3  A    between atoms: O_4  and  C_5 
REMARK    4  A    between atoms: C_7  and  C_8 
REMARK    5  A    between atoms: N_9  and  C_10 
REMARK    6  A    between atoms: C_10  and  C_11 
REMARK    7  A    between atoms: C_24  and  C_25 
REMARK    8  A    between atoms: C_26  and  O_27 
ROOT
HETATM    1  C   UNL     1      23.957  47.544  49.717  1.00  0.00     0.159 A 
HETATM    2  N   UNL     1      25.355  47.031  49.722  1.00  0.00    -0.329 N 
HETATM    3  C   UNL     1      26.276  47.887  49.115  1.00  0.00     0.273 A 
HETATM    4  O   UNL     1      27.482  47.754  49.008  1.00  0.00    -0.266 OA
HETATM    5  C   UNL     1      25.479  48.966  48.670  1.00  0.00     0.129 A 
HETATM    6  C   UNL     1      24.163  48.823  49.000  1.00  0.00     0.034 A 
HETATM    7  N   UNL     1      25.620  50.123  48.008  1.00  0.00    -0.272 N 
HETATM    8  H   UNL     1      26.460  50.541  47.616  1.00  0.00     0.189 HD
HETATM    9  N   UNL     1      24.430  50.763  47.870  1.00  0.00    -0.173 NA
HETATM   10  C   UNL     1      23.529  49.987  48.531  1.00  0.00     0.101 A 
ENDROOT
BRANCH   1  11
HETATM   11  C   UNL     1      23.011  46.705  48.889  1.00  0.00    -0.028 A 
HETATM   12  C   UNL     1      21.656  47.072  48.803  1.00  0.00     0.046 A 
HETATM   13  C   UNL     1      20.747  46.337  48.033  1.00  0.00     0.069 A 
HETATM   14  C   UNL     1      21.187  45.207  47.348  1.00  0.00     0.037 A 
HETATM   15  C   UNL     1      22.526  44.819  47.428  1.00  0.00     0.003 A 
HETATM   16  C   UNL     1      23.430  45.560  48.190  1.00  0.00     0.010 A 
BRANCH  13  17
HETATM   17  O   UNL     1      19.471  46.829  48.039  1.00  0.00    -0.348 OA
BRANCH  17  18
HETATM   18  C   UNL     1      19.052  47.523  49.213  1.00  0.00     0.202 C 
BRANCH  18  19
HETATM   19  C   UNL     1      17.649  47.998  48.978  1.00  0.00    -0.011 C 
HETATM   20  C   UNL     1      16.583  47.197  48.851  1.00  0.00     0.009 C 
ENDBRANCH  18  19
ENDBRANCH  17  18
ENDBRANCH  13  17
ENDBRANCH   1  11
BRANCH   2  21
HETATM   21  C   UNL     1      25.737  45.838  50.445  1.00  0.00     0.165 C 
BRANCH  21  22
HETATM   22  C   UNL     1      25.733  46.056  51.935  1.00  0.00    -0.037 A 
HETATM   23  C   UNL     1      26.134  47.276  52.486  1.00  0.00     0.028 A 
HETATM   24  C   UNL     1      26.115  47.420  53.864  1.00  0.00     0.116 A 
HETATM   25  N   UNL     1      25.737  46.444  54.717  1.00  0.00    -0.273 NA
HETATM   26  C   UNL     1      25.352  45.272  54.166  1.00  0.00     0.116 A 
HETATM   27  C   UNL     1      25.332  45.034  52.802  1.00  0.00     0.028 A 
ENDBRANCH  21  22
ENDBRANCH   2  21
BRANCH  10  28
HETATM   28  C   UNL     1      22.127  50.400  48.638  1.00  0.00     0.028 A 
HETATM   29  C   UNL     1      21.585  50.840  49.860  1.00  0.00     0.078 A 
HETATM   30  C   UNL     1      20.260  51.261  49.954  1.00  0.00     0.037 A 
HETATM   31  C   UNL     1      19.441  51.226  48.828  1.00  0.00     0.003 A 
HETATM   32  C   UNL     1      19.947  50.766  47.614  1.00  0.00     0.001 A 
HETATM   33  C   UNL     1      21.281  50.352  47.521  1.00  0.00     0.017 A 
BRANCH  29  34
HETATM   34  O   UNL     1      22.317  50.872  51.019  1.00  0.00    -0.360 OA
HETATM   35  H   UNL     1      22.210  49.985  51.431  1.00  0.00     0.217 HD
ENDBRANCH  29  34
ENDBRANCH  10  28
TORSDOF 8
ENDMDL
MODEL 4
REMARK VINA RESULT:      -7.9      3.040      8.222
REMARK  8 active torsions:
REMARK  status: ('A' for Active; 'I' for Inactive)
REMARK    1  A    between atoms: C_2  and  C_3 
REMARK    2  A    between atoms: C_3  and  O_4 
REMARK    3  A    between atoms: O_4  and  C_5 
REMARK    4  A    between atoms: C_7  and  C_8 
REMARK    5  A    between atoms: N_9  and  C_10 
REMARK    6  A    between atoms: C_10  and  C_11 
REMARK    7  A    between atoms: C_24  and  C_25 
REMARK    8  A    between atoms: C_26  and  O_27 
ROOT
HETATM    1  C   UNL     1      24.003  47.598  49.720  1.00  0.00     0.159 A 
HETATM    2  N   UNL     1      25.416  47.126  49.695  1.00  0.00    -0.329 N 
HETATM    3  C   UNL     1      26.302  48.019  49.090  1.00  0.00     0.273 A 
HETATM    4  O   UNL     1      27.509  47.924  48.963  1.00  0.00    -0.266 OA
HETATM    5  C   UNL     1      25.468  49.082  48.676  1.00  0.00     0.129 A 
HETATM    6  C   UNL     1      24.161  48.895  49.022  1.00  0.00     0.034 A 
HETATM    7  N   UNL     1      25.565  50.254  48.032  1.00  0.00    -0.272 N 
HETATM    8  H   UNL     1      26.385  50.703  47.636  1.00  0.00     0.189 HD
HETATM    9  N   UNL     1      24.354  50.861  47.923  1.00  0.00    -0.173 NA
HETATM   10  C   UNL     1      23.486  50.048  48.584  1.00  0.00     0.101 A 
ENDROOT
BRANCH   1  11
HETATM   11  C   UNL     1      23.069  46.746  48.892  1.00  0.00    -0.028 A 
HETATM   12  C   UNL     1      22.914  45.384  49.204  1.00  0.00     0.046 A 
HETATM   13  C   UNL     1      22.046  44.561  48.478  1.00  0.00     0.069 A 
HETATM   14  C   UNL     1      21.330  45.096  47.409  1.00  0.00     0.037 A 
HETATM   15  C   UNL     1      21.476  46.444  47.075  1.00  0.00     0.003 A 
HETATM   16  C   UNL     1      22.336  47.262  47.809  1.00  0.00     0.010 A 
BRANCH  13  17
HETATM   17  O   UNL     1      21.995  43.266  48.913  1.00  0.00    -0.348 OA
BRANCH  17  18
HETATM   18  C   UNL     1      23.120  42.787  49.648  1.00  0.00     0.202 C 
BRANCH  18  19
HETATM   19  C   UNL     1      23.908  41.896  48.735  1.00  0.00    -0.011 C 
HETATM   20  C   UNL     1      24.969  41.168  49.106  1.00  0.00     0.009 C 
ENDBRANCH  18  19
ENDBRANCH  17  18
ENDBRANCH  13  17
ENDBRANCH   1  11
BRANCH   2  21
HETATM   21  C   UNL     1      25.843  45.933  50.391  1.00  0.00     0.165 C 
BRANCH  21  22
HETATM   22  C   UNL     1      25.797  46.104  51.886  1.00  0.00    -0.037 A 
HETATM   23  C   UNL     1      25.346  45.073  52.716  1.00  0.00     0.028 A 
HETATM   24  C   UNL     1      25.319  45.288  54.085  1.00  0.00     0.116 A 
HETATM   25  N   UNL     1      25.698  46.442  54.673  1.00  0.00    -0.273 NA
HETATM   26  C   UNL     1      26.132  47.426  53.856  1.00  0.00     0.116 A 
HETATM   27  C   UNL     1      26.200  47.306  52.478  1.00  0.00     0.028 A 
ENDBRANCH  21  22
ENDBRANCH   2  21
BRANCH  10  28
HETATM   28  C   UNL     1      22.075  50.418  48.720  1.00  0.00     0.028 A 
HETATM   29  C   UNL     1      21.545  50.847  49.950  1.00  0.00     0.078 A 
HETATM   30  C   UNL     1      20.210  51.227  50.071  1.00  0.00     0.037 A 
HETATM   31  C   UNL     1      19.369  51.161  48.963  1.00  0.00     0.003 A 
HETATM   32  C   UNL     1      19.863  50.710  47.740  1.00  0.00     0.001 A 
HETATM   33  C   UNL     1      21.207  50.337  47.621  1.00  0.00     0.017 A 
BRANCH  29  34
HETATM   34  O   UNL     1      22.301  50.908  51.094  1.00  0.00    -0.360 OA
HETATM   35  H   UNL     1      23.185  50.549  50.853  1.00  0.00     0.217 HD
ENDBRANCH  29  34
ENDBRANCH  10  28
TORSDOF 8
ENDMDL
MODEL 5
REMARK VINA RESULT:      -7.3      2.520      4.130
REMARK  8 active torsions:
REMARK  status: ('A' for Active; 'I' for Inactive)
REMARK    1  A    between atoms: C_2  and  C_3 
REMARK    2  A    between atoms: C_3  and  O_4 
REMARK    3  A    between atoms: O_4  and  C_5 
REMARK    4  A    between atoms: C_7  and  C_8 
REMARK    5  A    between atoms: N_9  and  C_10 
REMARK    6  A    between atoms: C_10  and  C_11 
REMARK    7  A    between atoms: C_24  and  C_25 
REMARK    8  A    between atoms: C_26  and  O_27 
ROOT
HETATM    1  C   UNL     1      26.118  44.471  50.770  1.00  0.00     0.159 A 
HETATM    2  N   UNL     1      26.377  43.325  49.855  1.00  0.00    -0.329 N 
HETATM    3  C   UNL     1      27.397  42.474  50.287  1.00  0.00     0.273 A 
HETATM    4  O   UNL     1      27.796  41.444  49.772  1.00  0.00    -0.266 OA
HETATM    5  C   UNL     1      27.845  43.076  51.484  1.00  0.00     0.129 A 
HETATM    6  C   UNL     1      27.143  44.201  51.805  1.00  0.00     0.034 A 
HETATM    7  N   UNL     1      28.772  42.878  52.431  1.00  0.00    -0.272 N 
HETATM    8  H   UNL     1      29.465  42.139  52.507  1.00  0.00     0.189 HD
HETATM    9  N   UNL     1      28.724  43.847  53.382  1.00  0.00    -0.173 NA
HETATM   10  C   UNL     1      27.678  44.642  53.028  1.00  0.00     0.101 A 
ENDROOT
BRANCH   1  11
HETATM   11  C   UNL     1      26.435  45.815  50.157  1.00  0.00    -0.028 A 
HETATM   12  C   UNL     1      25.440  46.808  50.113  1.00  0.00     0.046 A 
HETATM   13  C   UNL     1      25.692  48.074  49.572  1.00  0.00     0.069 A 
HETATM   14  C   UNL     1      26.953  48.355  49.049  1.00  0.00     0.037 A 
HETATM   15  C   UNL     1      27.952  47.381  49.073  1.00  0.00     0.003 A 
HETATM   16  C   UNL     1      27.698  46.124  49.622  1.00  0.00     0.010 A 
BRANCH  13  17
HETATM   17  O   UNL     1      24.628  48.931  49.615  1.00  0.00    -0.348 OA
BRANCH  17  18
HETATM   18  C   UNL     1      23.603  48.739  48.641  1.00  0.00     0.202 C 
BRANCH  18  19
HETATM   19  C   UNL     1      23.418  50.041  47.921  1.00  0.00    -0.011 C 
HETATM   20  C   UNL     1      23.044  51.189  48.501  1.00  0.00     0.009 C 
ENDBRANCH  18  19
ENDBRANCH  17  18
ENDBRANCH  13  17
ENDBRANCH   1  11
BRANCH   2  21
HETATM   21  C   UNL     1      25.529  43.036  48.721  1.00  0.00     0.165 C 
BRANCH  21  22
HETATM   22  C   UNL     1      24.129  43.553  48.917  1.00  0.00    -0.037 A 
HETATM   23  C   UNL     1      23.562  44.458  48.015  1.00  0.00     0.028 A 
HETATM   24  C   UNL     1      22.270  44.906  48.248  1.00  0.00     0.116 A 
HETATM   25  N   UNL     1      21.521  44.524  49.304  1.00  0.00    -0.273 NA
HETATM   26  C   UNL     1      22.085  43.648  50.164  1.00  0.00     0.116 A 
HETATM   27  C   UNL     1      23.365  43.141  50.014  1.00  0.00     0.028 A 
ENDBRANCH  21  22
ENDBRANCH   2  21
BRANCH  10  28
HETATM   28  C   UNL     1      27.290  45.780  53.866  1.00  0.00     0.028 A 
HETATM   29  C   UNL     1      27.998  46.100  55.039  1.00  0.00     0.078 A 
HETATM   30  C   UNL     1      27.647  47.200  55.820  1.00  0.00     0.037 A 
HETATM   31  C   UNL     1      26.559  47.989  55.453  1.00  0.00     0.003 A 
HETATM   32  C   UNL     1      25.825  47.674  54.312  1.00  0.00     0.001 A 
HETATM   33  C   UNL     1      26.185  46.574  53.526  1.00  0.00     0.017 A 
BRANCH  29  34
HETATM   34  O   UNL     1      29.059  45.353  55.484  1.00  0.00    -0.360 OA
HETATM   35  H   UNL     1      29.521  45.032  54.677  1.00  0.00     0.217 HD
ENDBRANCH  29  34
ENDBRANCH  10  28
TORSDOF 8
ENDMDL
MODEL 6
REMARK VINA RESULT:      -7.3      4.399      7.588
REMARK  8 active torsions:
REMARK  status: ('A' for Active; 'I' for Inactive)
REMARK    1  A    between atoms: C_2  and  C_3 
REMARK    2  A    between atoms: C_3  and  O_4 
REMARK    3  A    between atoms: O_4  and  C_5 
REMARK    4  A    between atoms: C_7  and  C_8 
REMARK    5  A    between atoms: N_9  and  C_10 
REMARK    6  A    between atoms: C_10  and  C_11 
REMARK    7  A    between atoms: C_24  and  C_25 
REMARK    8  A    between atoms: C_26  and  O_27 
ROOT
HETATM    1  C   UNL     1      21.036  46.355  47.031  1.00  0.00     0.159 A 
HETATM    2  N   UNL     1      20.830  44.933  46.639  1.00  0.00    -0.329 N 
HETATM    3  C   UNL     1      19.601  44.406  47.039  1.00  0.00     0.273 A 
HETATM    4  O   UNL     1      19.143  43.298  46.825  1.00  0.00    -0.266 OA
HETATM    5  C   UNL     1      18.994  45.476  47.734  1.00  0.00     0.129 A 
HETATM    6  C   UNL     1      19.762  46.604  47.745  1.00  0.00     0.034 A 
HETATM    7  N   UNL     1      17.862  45.736  48.404  1.00  0.00    -0.272 N 
HETATM    8  H   UNL     1      17.072  45.125  48.591  1.00  0.00     0.189 HD
HETATM    9  N   UNL     1      17.849  47.008  48.879  1.00  0.00    -0.173 NA
HETATM   10  C   UNL     1      19.002  47.571  48.426  1.00  0.00     0.101 A 
ENDROOT
BRANCH   1  11
HETATM   11  C   UNL     1      22.158  46.550  48.023  1.00  0.00    -0.028 A 
HETATM   12  C   UNL     1      22.717  47.829  48.195  1.00  0.00     0.046 A 
HETATM   13  C   UNL     1      23.744  48.061  49.116  1.00  0.00     0.069 A 
HETATM   14  C   UNL     1      24.240  47.000  49.870  1.00  0.00     0.037 A 
HETATM   15  C   UNL     1      23.708  45.720  49.709  1.00  0.00     0.003 A 
HETATM   16  C   UNL     1      22.677  45.496  48.796  1.00  0.00     0.010 A 
BRANCH  13  17
HETATM   17  O   UNL     1      24.170  49.360  49.175  1.00  0.00    -0.348 OA
BRANCH  17  18
HETATM   18  C   UNL     1      24.978  49.824  48.095  1.00  0.00     0.202 C 
BRANCH  18  19
HETATM   19  C   UNL     1      26.377  49.975  48.613  1.00  0.00    -0.011 C 
HETATM   20  C   UNL     1      27.222  48.960  48.838  1.00  0.00     0.009 C 
ENDBRANCH  18  19
ENDBRANCH  17  18
ENDBRANCH  13  17
ENDBRANCH   1  11
BRANCH   2  21
HETATM   21  C   UNL     1      21.752  44.230  45.775  1.00  0.00     0.165 C 
BRANCH  21  22
HETATM   22  C   UNL     1      21.475  44.497  44.319  1.00  0.00    -0.037 A 
HETATM   23  C   UNL     1      22.132  45.526  43.638  1.00  0.00     0.028 A 
HETATM   24  C   UNL     1      21.835  45.731  42.299  1.00  0.00     0.116 A 
HETATM   25  N   UNL     1      20.938  44.996  41.607  1.00  0.00    -0.273 NA
HETATM   26  C   UNL     1      20.315  44.006  42.281  1.00  0.00     0.116 A 
HETATM   27  C   UNL     1      20.547  43.721  43.616  1.00  0.00     0.028 A 
ENDBRANCH  21  22
ENDBRANCH   2  21
BRANCH  10  28
HETATM   28  C   UNL     1      19.305  48.977  48.705  1.00  0.00     0.028 A 
HETATM   29  C   UNL     1      19.379  49.462  50.023  1.00  0.00     0.078 A 
HETATM   30  C   UNL     1      19.697  50.793  50.289  1.00  0.00     0.037 A 
HETATM   31  C   UNL     1      19.924  51.673  49.234  1.00  0.00     0.003 A 
HETATM   32  C   UNL     1      19.828  51.222  47.919  1.00  0.00     0.001 A 
HETATM   33  C   UNL     1      19.516  49.884  47.656  1.00  0.00     0.017 A 
BRANCH  29  34
HETATM   34  O   UNL     1      19.136  48.666  51.114  1.00  0.00    -0.360 OA
HETATM   35  H   UNL     1      18.241  48.915  51.437  1.00  0.00     0.217 HD
ENDBRANCH  29  34
ENDBRANCH  10  28
TORSDOF 8
ENDMDL
MODEL 7
REMARK VINA RESULT:      -7.3     19.064     22.248
REMARK  8 active torsions:
REMARK  status: ('A' for Active; 'I' for Inactive)
REMARK    1  A    between atoms: C_2  and  C_3 
REMARK    2  A    between atoms: C_3  and  O_4 
REMARK    3  A    between atoms: O_4  and  C_5 
REMARK    4  A    between atoms: C_7  and  C_8 
REMARK    5  A    between atoms: N_9  and  C_10 
REMARK    6  A    between atoms: C_10  and  C_11 
REMARK    7  A    between atoms: C_24  and  C_25 
REMARK    8  A    between atoms: C_26  and  O_27 
ROOT
HETATM    1  C   UNL     1      39.692  43.405  65.272  1.00  0.00     0.159 A 
HETATM    2  N   UNL     1      40.860  44.220  64.839  1.00  0.00    -0.329 N 
HETATM    3  C   UNL     1      40.515  45.434  64.242  1.00  0.00     0.273 A 
HETATM    4  O   UNL     1      41.249  46.315  63.833  1.00  0.00    -0.266 OA
HETATM    5  C   UNL     1      39.102  45.414  64.246  1.00  0.00     0.129 A 
HETATM    6  C   UNL     1      38.591  44.292  64.831  1.00  0.00     0.034 A 
HETATM    7  N   UNL     1      38.078  46.179  63.845  1.00  0.00    -0.272 N 
HETATM    8  H   UNL     1      38.094  47.079  63.374  1.00  0.00     0.189 HD
HETATM    9  N   UNL     1      36.884  45.599  64.132  1.00  0.00    -0.173 NA
HETATM   10  C   UNL     1      37.194  44.451  64.794  1.00  0.00     0.101 A 
ENDROOT
BRANCH   1  11
HETATM   11  C   UNL     1      39.554  42.101  64.519  1.00  0.00    -0.028 A 
HETATM   12  C   UNL     1      39.675  40.885  65.214  1.00  0.00     0.046 A 
HETATM   13  C   UNL     1      39.536  39.654  64.564  1.00  0.00     0.069 A 
HETATM   14  C   UNL     1      39.289  39.628  63.193  1.00  0.00     0.037 A 
HETATM   15  C   UNL     1      39.176  40.824  62.481  1.00  0.00     0.003 A 
HETATM   16  C   UNL     1      39.306  42.049  63.137  1.00  0.00     0.010 A 
BRANCH  13  17
HETATM   17  O   UNL     1      39.667  38.563  65.379  1.00  0.00    -0.348 OA
BRANCH  17  18
HETATM   18  C   UNL     1      40.482  38.718  66.539  1.00  0.00     0.202 C 
BRANCH  18  19
HETATM   19  C   UNL     1      40.539  37.388  67.229  1.00  0.00    -0.011 C 
HETATM   20  C   UNL     1      40.121  36.232  66.697  1.00  0.00     0.009 C 
ENDBRANCH  18  19
ENDBRANCH  17  18
ENDBRANCH  13  17
ENDBRANCH   1  11
BRANCH   2  21
HETATM   21  C   UNL     1      42.220  43.855  65.168  1.00  0.00     0.165 C 
BRANCH  21  22
HETATM   22  C   UNL     1      42.371  43.497  66.623  1.00  0.00    -0.037 A 
HETATM   23  C   UNL     1      42.649  42.184  67.016  1.00  0.00     0.028 A 
HETATM   24  C   UNL     1      42.772  41.909  68.369  1.00  0.00     0.116 A 
HETATM   25  N   UNL     1      42.633  42.835  69.341  1.00  0.00    -0.273 NA
HETATM   26  C   UNL     1      42.367  44.098  68.942  1.00  0.00     0.116 A 
HETATM   27  C   UNL     1      42.230  44.472  67.616  1.00  0.00     0.028 A 
ENDBRANCH  21  22
ENDBRANCH   2  21
BRANCH  10  28
HETATM   28  C   UNL     1      36.137  43.580  65.312  1.00  0.00     0.028 A 
HETATM   29  C   UNL     1      35.173  44.057  66.220  1.00  0.00     0.078 A 
HETATM   30  C   UNL     1      34.150  43.236  66.689  1.00  0.00     0.037 A 
HETATM   31  C   UNL     1      34.085  41.907  66.275  1.00  0.00     0.003 A 
HETATM   32  C   UNL     1      35.045  41.404  65.399  1.00  0.00     0.001 A 
HETATM   33  C   UNL     1      36.066  42.234  64.924  1.00  0.00     0.017 A 
BRANCH  29  34
HETATM   34  O   UNL     1      35.190  45.343  66.699  1.00  0.00    -0.360 OA
HETATM   35  H   UNL     1      35.785  45.847  66.099  1.00  0.00     0.217 HD
ENDBRANCH  29  34
ENDBRANCH  10  28
TORSDOF 8
ENDMDL
MODEL 8
REMARK VINA RESULT:      -7.3     19.023     22.332
REMARK  8 active torsions:
REMARK  status: ('A' for Active; 'I' for Inactive)
REMARK    1  A    between atoms: C_2  and  C_3 
REMARK    2  A    between atoms: C_3  and  O_4 
REMARK    3  A    between atoms: O_4  and  C_5 
REMARK    4  A    between atoms: C_7  and  C_8 
REMARK    5  A    between atoms: N_9  and  C_10 
REMARK    6  A    between atoms: C_10  and  C_11 
REMARK    7  A    between atoms: C_24  and  C_25 
REMARK    8  A    between atoms: C_26  and  O_27 
ROOT
HETATM    1  C   UNL     1      40.412  43.945  66.534  1.00  0.00     0.159 A 
HETATM    2  N   UNL     1      41.143  42.683  66.839  1.00  0.00    -0.329 N 
HETATM    3  C   UNL     1      42.513  42.855  67.039  1.00  0.00     0.273 A 
HETATM    4  O   UNL     1      43.348  42.022  67.341  1.00  0.00    -0.266 OA
HETATM    5  C   UNL     1      42.706  44.240  66.833  1.00  0.00     0.129 A 
HETATM    6  C   UNL     1      41.543  44.900  66.558  1.00  0.00     0.034 A 
HETATM    7  N   UNL     1      43.704  45.134  66.826  1.00  0.00    -0.272 N 
HETATM    8  H   UNL     1      44.697  44.989  66.990  1.00  0.00     0.189 HD
HETATM    9  N   UNL     1      43.251  46.382  66.542  1.00  0.00    -0.173 NA
HETATM   10  C   UNL     1      41.901  46.254  66.428  1.00  0.00     0.101 A 
ENDROOT
BRANCH   1  11
HETATM   11  C   UNL     1      39.819  43.976  65.145  1.00  0.00    -0.028 A 
HETATM   12  C   UNL     1      38.535  44.516  64.953  1.00  0.00     0.046 A 
HETATM   13  C   UNL     1      37.952  44.585  63.682  1.00  0.00     0.069 A 
HETATM   14  C   UNL     1      38.651  44.093  62.582  1.00  0.00     0.037 A 
HETATM   15  C   UNL     1      39.923  43.543  62.751  1.00  0.00     0.003 A 
HETATM   16  C   UNL     1      40.502  43.486  64.019  1.00  0.00     0.010 A 
BRANCH  13  17
HETATM   17  O   UNL     1      36.706  45.149  63.659  1.00  0.00    -0.348 OA
BRANCH  17  18
HETATM   18  C   UNL     1      36.173  45.588  64.907  1.00  0.00     0.202 C 
BRANCH  18  19
HETATM   19  C   UNL     1      36.312  47.080  64.954  1.00  0.00    -0.011 C 
HETATM   20  C   UNL     1      36.098  47.833  66.041  1.00  0.00     0.009 C 
ENDBRANCH  18  19
ENDBRANCH  17  18
ENDBRANCH  13  17
ENDBRANCH   1  11
BRANCH   2  21
HETATM   21  C   UNL     1      40.457  41.432  67.074  1.00  0.00     0.165 C 
BRANCH  21  22
HETATM   22  C   UNL     1      40.458  40.550  65.853  1.00  0.00    -0.037 A 
HETATM   23  C   UNL     1      39.328  40.453  65.035  1.00  0.00     0.028 A 
HETATM   24  C   UNL     1      39.382  39.622  63.926  1.00  0.00     0.116 A 
HETATM   25  N   UNL     1      40.463  38.889  63.588  1.00  0.00    -0.273 NA
HETATM   26  C   UNL     1      41.545  38.997  64.389  1.00  0.00     0.116 A 
HETATM   27  C   UNL     1      41.590  39.803  65.514  1.00  0.00     0.028 A 
ENDBRANCH  21  22
ENDBRANCH   2  21
BRANCH  10  28
HETATM   28  C   UNL     1      41.060  47.426  66.173  1.00  0.00     0.028 A 
HETATM   29  C   UNL     1      40.572  47.711  64.884  1.00  0.00     0.078 A 
HETATM   30  C   UNL     1      39.747  48.809  64.648  1.00  0.00     0.037 A 
HETATM   31  C   UNL     1      39.414  49.662  65.697  1.00  0.00     0.003 A 
HETATM   32  C   UNL     1      39.909  49.417  66.976  1.00  0.00     0.001 A 
HETATM   33  C   UNL     1      40.730  48.308  67.212  1.00  0.00     0.017 A 
BRANCH  29  34
HETATM   34  O   UNL     1      40.882  46.937  63.794  1.00  0.00    -0.360 OA
HETATM   35  H   UNL     1      40.883  46.007  64.114  1.00  0.00     0.217 HD
ENDBRANCH  29  34
ENDBRANCH  10  28
TORSDOF 8
ENDMDL
MODEL 9
REMARK VINA RESULT:      -7.3      3.857      8.393
REMARK  8 active torsions:
REMARK  status: ('A' for Active; 'I' for Inactive)
REMARK    1  A    between atoms: C_2  and  C_3 
REMARK    2  A    between atoms: C_3  and  O_4 
REMARK    3  A    between atoms: O_4  and  C_5 
REMARK    4  A    between atoms: C_7  and  C_8 
REMARK    5  A    between atoms: N_9  and  C_10 
REMARK    6  A    between atoms: C_10  and  C_11 
REMARK    7  A    between atoms: C_24  and  C_25 
REMARK    8  A    between atoms: C_26  and  O_27 
ROOT
HETATM    1  C   UNL     1      20.394  47.232  46.958  1.00  0.00     0.159 A 
HETATM    2  N   UNL     1      20.370  45.758  46.748  1.00  0.00    -0.329 N 
HETATM    3  C   UNL     1      19.296  45.114  47.367  1.00  0.00     0.273 A 
HETATM    4  O   UNL     1      18.997  43.934  47.335  1.00  0.00    -0.266 OA
HETATM    5  C   UNL     1      18.617  46.164  48.024  1.00  0.00     0.129 A 
HETATM    6  C   UNL     1      19.193  47.383  47.811  1.00  0.00     0.034 A 
HETATM    7  N   UNL     1      17.548  46.341  48.814  1.00  0.00    -0.272 N 
HETATM    8  H   UNL     1      16.893  45.652  49.172  1.00  0.00     0.189 HD
HETATM    9  N   UNL     1      17.392  47.647  49.151  1.00  0.00    -0.173 NA
HETATM   10  C   UNL     1      18.378  48.308  48.487  1.00  0.00     0.101 A 
ENDROOT
BRANCH   1  11
HETATM   11  C   UNL     1      21.584  47.707  47.759  1.00  0.00    -0.028 A 
HETATM   12  C   UNL     1      22.321  46.781  48.518  1.00  0.00     0.046 A 
HETATM   13  C   UNL     1      23.442  47.170  49.260  1.00  0.00     0.069 A 
HETATM   14  C   UNL     1      23.830  48.508  49.263  1.00  0.00     0.037 A 
HETATM   15  C   UNL     1      23.106  49.446  48.525  1.00  0.00     0.003 A 
HETATM   16  C   UNL     1      21.995  49.051  47.779  1.00  0.00     0.010 A 
BRANCH  13  17
HETATM   17  O   UNL     1      24.059  46.151  49.933  1.00  0.00    -0.348 OA
BRANCH  17  18
HETATM   18  C   UNL     1      24.894  46.515  51.031  1.00  0.00     0.202 C 
BRANCH  18  19
HETATM   19  C   UNL     1      26.281  46.039  50.717  1.00  0.00    -0.011 C 
HETATM   20  C   UNL     1      26.602  45.242  49.690  1.00  0.00     0.009 C 
ENDBRANCH  18  19
ENDBRANCH  17  18
ENDBRANCH  13  17
ENDBRANCH   1  11
BRANCH   2  21
HETATM   21  C   UNL     1      21.279  45.092  45.842  1.00  0.00     0.165 C 
BRANCH  21  22
HETATM   22  C   UNL     1      21.045  45.495  44.410  1.00  0.00    -0.037 A 
HETATM   23  C   UNL     1      22.105  45.574  43.502  1.00  0.00     0.028 A 
HETATM   24  C   UNL     1      21.833  45.955  42.197  1.00  0.00     0.116 A 
HETATM   25  N   UNL     1      20.599  46.265  41.746  1.00  0.00    -0.273 NA
HETATM   26  C   UNL     1      19.588  46.182  42.637  1.00  0.00     0.116 A 
HETATM   27  C   UNL     1      19.758  45.806  43.959  1.00  0.00     0.028 A 
ENDBRANCH  21  22
ENDBRANCH   2  21
BRANCH  10  28
HETATM   28  C   UNL     1      18.487  49.767  48.574  1.00  0.00     0.028 A 
HETATM   29  C   UNL     1      18.587  50.421  49.815  1.00  0.00     0.078 A 
HETATM   30  C   UNL     1      18.721  51.806  49.895  1.00  0.00     0.037 A 
HETATM   31  C   UNL     1      18.733  52.568  48.730  1.00  0.00     0.003 A 
HETATM   32  C   UNL     1      18.606  51.945  47.490  1.00  0.00     0.001 A 
HETATM   33  C   UNL     1      18.480  50.553  47.412  1.00  0.00     0.017 A 
BRANCH  29  34
HETATM   34  O   UNL     1      18.550  49.744  51.007  1.00  0.00    -0.360 OA
HETATM   35  H   UNL     1      18.717  48.799  50.787  1.00  0.00     0.217 HD
ENDBRANCH  29  34
ENDBRANCH  10  28
TORSDOF 8
ENDMDL
MODEL 10
REMARK VINA RESULT:      -7.3     19.150     21.490
REMARK  8 active torsions:
REMARK  status: ('A' for Active; 'I' for Inactive)
REMARK    1  A    between atoms: C_2  and  C_3 
REMARK    2  A    between atoms: C_3  and  O_4 
REMARK    3  A    between atoms: O_4  and  C_5 
REMARK    4  A    between atoms: C_7  and  C_8 
REMARK    5  A    between atoms: N_9  and  C_10 
REMARK    6  A    between atoms: C_10  and  C_11 
REMARK    7  A    between atoms: C_24  and  C_25 
REMARK    8  A    between atoms: C_26  and  O_27 
ROOT
HETATM    1  C   UNL     1      37.888  44.308  64.457  1.00  0.00     0.159 A 
HETATM    2  N   UNL     1      37.482  42.875  64.432  1.00  0.00    -0.329 N 
HETATM    3  C   UNL     1      36.387  42.582  65.248  1.00  0.00     0.273 A 
HETATM    4  O   UNL     1      35.813  41.518  65.396  1.00  0.00    -0.266 OA
HETATM    5  C   UNL     1      36.082  43.823  65.850  1.00  0.00     0.129 A 
HETATM    6  C   UNL     1      36.896  44.832  65.423  1.00  0.00     0.034 A 
HETATM    7  N   UNL     1      35.213  44.334  66.734  1.00  0.00    -0.272 N 
HETATM    8  H   UNL     1      34.471  43.867  67.247  1.00  0.00     0.189 HD
HETATM    9  N   UNL     1      35.424  45.662  66.926  1.00  0.00    -0.173 NA
HETATM   10  C   UNL     1      36.433  45.990  66.074  1.00  0.00     0.101 A 
ENDROOT
BRANCH   1  11
HETATM   11  C   UNL     1      39.261  44.533  65.048  1.00  0.00    -0.028 A 
HETATM   12  C   UNL     1      40.236  45.209  64.294  1.00  0.00     0.046 A 
HETATM   13  C   UNL     1      41.514  45.459  64.807  1.00  0.00     0.069 A 
HETATM   14  C   UNL     1      41.837  45.014  66.087  1.00  0.00     0.037 A 
HETATM   15  C   UNL     1      40.887  44.332  66.849  1.00  0.00     0.003 A 
HETATM   16  C   UNL     1      39.611  44.094  66.337  1.00  0.00     0.010 A 
BRANCH  13  17
HETATM   17  O   UNL     1      42.344  46.138  63.958  1.00  0.00    -0.348 OA
BRANCH  17  18
HETATM   18  C   UNL     1      43.740  45.867  64.063  1.00  0.00     0.202 C 
BRANCH  18  19
HETATM   19  C   UNL     1      44.358  46.986  64.847  1.00  0.00    -0.011 C 
HETATM   20  C   UNL     1      45.673  47.215  64.946  1.00  0.00     0.009 C 
ENDBRANCH  18  19
ENDBRANCH  17  18
ENDBRANCH  13  17
ENDBRANCH   1  11
BRANCH   2  21
HETATM   21  C   UNL     1      38.063  41.924  63.512  1.00  0.00     0.165 C 
BRANCH  21  22
HETATM   22  C   UNL     1      39.053  41.014  64.192  1.00  0.00    -0.037 A 
HETATM   23  C   UNL     1      40.397  41.377  64.318  1.00  0.00     0.028 A 
HETATM   24  C   UNL     1      41.265  40.499  64.948  1.00  0.00     0.116 A 
HETATM   25  N   UNL     1      40.892  39.301  65.446  1.00  0.00    -0.273 NA
HETATM   26  C   UNL     1      39.590  38.968  65.317  1.00  0.00     0.116 A 
HETATM   27  C   UNL     1      38.646  39.779  64.708  1.00  0.00     0.028 A 
ENDBRANCH  21  22
ENDBRANCH   2  21
BRANCH  10  28
HETATM   28  C   UNL     1      36.900  47.375  65.969  1.00  0.00     0.028 A 
HETATM   29  C   UNL     1      36.951  48.217  67.095  1.00  0.00     0.078 A 
HETATM   30  C   UNL     1      37.422  49.525  67.000  1.00  0.00     0.037 A 
HETATM   31  C   UNL     1      37.832  50.025  65.766  1.00  0.00     0.003 A 
HETATM   32  C   UNL     1      37.763  49.219  64.632  1.00  0.00     0.001 A 
HETATM   33  C   UNL     1      37.296  47.903  64.732  1.00  0.00     0.017 A 
BRANCH  29  34
HETATM   34  O   UNL     1      36.535  47.809  68.337  1.00  0.00    -0.360 OA
HETATM   35  H   UNL     1      35.622  48.162  68.446  1.00  0.00     0.217 HD
ENDBRANCH  29  34
ENDBRANCH  10  28
TORSDOF 8
ENDMDL
