MODEL 1
REMARK VINA RESULT:      -8.3      0.000      0.000
REMARK  4 active torsions:
REMARK  status: ('A' for Active; 'I' for Inactive)
REMARK    1  A    between atoms: O_2  and  C_3 
REMARK    2  A    between atoms: C_8  and  C_9 
REMARK    3  A    between atoms: N_11  and  C_12 
REMARK    4  A    between atoms: C_12  and  C_13 
ROOT
HETATM    1  C   UNL     1      30.371  44.381  55.895  1.00  0.00     0.069 A 
HETATM    2  C   UNL     1      29.504  45.465  56.011  1.00  0.00     0.056 A 
HETATM    3  C   UNL     1      28.427  45.591  55.131  1.00  0.00     0.063 A 
HETATM    4  C   UNL     1      28.191  44.654  54.124  1.00  0.00     0.074 A 
HETATM    5  N   UNL     1      27.124  44.769  53.214  1.00  0.00    -0.234 NA
HETATM    6  C   UNL     1      26.327  45.782  53.336  1.00  0.00     0.113 A 
HETATM    7  N   UNL     1      26.479  46.731  54.313  1.00  0.00    -0.310 N 
HETATM    8  C   UNL     1      27.503  46.730  55.224  1.00  0.00     0.259 A 
HETATM    9  O   UNL     1      27.643  47.627  56.044  1.00  0.00    -0.267 OA
HETATM   10  C   UNL     1      29.062  43.570  54.016  1.00  0.00     0.035 A 
HETATM   11  C   UNL     1      30.147  43.431  54.895  1.00  0.00     0.039 A 
HETATM   12  H   UNL     1      25.861  47.531  54.372  1.00  0.00     0.170 HD
ENDROOT
BRANCH   6  13
HETATM   13  C   UNL     1      25.170  45.959  52.361  1.00  0.00     0.082 C 
HETATM   14  C   UNL     1      25.010  44.741  51.468  1.00  0.00     0.139 C 
HETATM   15  N   UNL     1      25.859  45.053  50.344  1.00  0.00    -0.347 N 
HETATM   16  C   UNL     1      26.008  46.421  50.172  1.00  0.00     0.220 C 
HETATM   17  O   UNL     1      26.547  46.985  49.235  1.00  0.00    -0.273 OA
HETATM   18  C   UNL     1      25.413  47.109  51.380  1.00  0.00     0.117 C 
BRANCH  15  19
HETATM   19  C   UNL     1      26.220  44.072  49.338  1.00  0.00     0.164 C 
BRANCH  19  20
HETATM   20  C   UNL     1      26.574  42.728  49.917  1.00  0.00    -0.040 A 
HETATM   21  C   UNL     1      27.756  42.570  50.656  1.00  0.00     0.009 A 
HETATM   22  C   UNL     1      28.078  41.335  51.221  1.00  0.00     0.001 A 
HETATM   23  C   UNL     1      27.229  40.245  51.042  1.00  0.00     0.000 A 
HETATM   24  C   UNL     1      26.062  40.385  50.295  1.00  0.00     0.001 A 
HETATM   25  C   UNL     1      25.734  41.620  49.733  1.00  0.00     0.009 A 
ENDBRANCH  19  20
ENDBRANCH  15  19
ENDBRANCH   6  13
BRANCH   1  26
HETATM   26  O   UNL     1      31.388  44.366  56.807  1.00  0.00    -0.356 OA
HETATM   27  C   UNL     1      31.880  43.094  57.209  1.00  0.00     0.210 C 
ENDBRANCH   1  26
TORSDOF 4
ENDMDL
MODEL 2
REMARK VINA RESULT:      -8.2      1.455      2.186
REMARK  4 active torsions:
REMARK  status: ('A' for Active; 'I' for Inactive)
REMARK    1  A    between atoms: O_2  and  C_3 
REMARK    2  A    between atoms: C_8  and  C_9 
REMARK    3  A    between atoms: N_11  and  C_12 
REMARK    4  A    between atoms: C_12  and  C_13 
ROOT
HETATM    1  C   UNL     1      30.510  44.479  55.868  1.00  0.00     0.069 A 
HETATM    2  C   UNL     1      29.884  43.466  55.147  1.00  0.00     0.056 A 
HETATM    3  C   UNL     1      28.698  43.733  54.459  1.00  0.00     0.063 A 
HETATM    4  C   UNL     1      28.113  45.001  54.474  1.00  0.00     0.074 A 
HETATM    5  N   UNL     1      26.910  45.290  53.804  1.00  0.00    -0.234 NA
HETATM    6  C   UNL     1      26.340  44.338  53.138  1.00  0.00     0.113 A 
HETATM    7  N   UNL     1      26.865  43.074  53.056  1.00  0.00    -0.310 N 
HETATM    8  C   UNL     1      28.010  42.681  53.699  1.00  0.00     0.259 A 
HETATM    9  O   UNL     1      28.416  41.528  53.654  1.00  0.00    -0.267 OA
HETATM   10  C   UNL     1      28.749  46.010  55.196  1.00  0.00     0.035 A 
HETATM   11  C   UNL     1      29.941  45.755  55.891  1.00  0.00     0.039 A 
HETATM   12  H   UNL     1      26.387  42.336  52.554  1.00  0.00     0.170 HD
ENDROOT
BRANCH   6  13
HETATM   13  C   UNL     1      25.026  44.599  52.414  1.00  0.00     0.082 C 
HETATM   14  C   UNL     1      24.707  43.486  51.431  1.00  0.00     0.139 C 
HETATM   15  N   UNL     1      25.337  43.942  50.215  1.00  0.00    -0.347 N 
HETATM   16  C   UNL     1      25.451  45.323  50.178  1.00  0.00     0.220 C 
HETATM   17  O   UNL     1      25.810  46.001  49.230  1.00  0.00    -0.273 OA
HETATM   18  C   UNL     1      25.085  45.857  51.545  1.00  0.00     0.117 C 
BRANCH  15  19
HETATM   19  C   UNL     1      25.510  43.089  49.054  1.00  0.00     0.164 C 
BRANCH  19  20
HETATM   20  C   UNL     1      26.263  41.820  49.356  1.00  0.00    -0.040 A 
HETATM   21  C   UNL     1      27.551  41.881  49.908  1.00  0.00     0.009 A 
HETATM   22  C   UNL     1      28.246  40.710  50.217  1.00  0.00     0.001 A 
HETATM   23  C   UNL     1      27.665  39.469  49.964  1.00  0.00     0.000 A 
HETATM   24  C   UNL     1      26.394  39.396  49.399  1.00  0.00     0.001 A 
HETATM   25  C   UNL     1      25.695  40.565  49.094  1.00  0.00     0.009 A 
ENDBRANCH  19  20
ENDBRANCH  15  19
ENDBRANCH   6  13
BRANCH   1  26
HETATM   26  O   UNL     1      31.659  44.099  56.503  1.00  0.00    -0.356 OA
HETATM   27  C   UNL     1      31.580  42.978  57.374  1.00  0.00     0.210 C 
ENDBRANCH   1  26
TORSDOF 4
ENDMDL
MODEL 3
REMARK VINA RESULT:      -7.9     12.805     14.304
REMARK  4 active torsions:
REMARK  status: ('A' for Active; 'I' for Inactive)
REMARK    1  A    between atoms: O_2  and  C_3 
REMARK    2  A    between atoms: C_8  and  C_9 
REMARK    3  A    between atoms: N_11  and  C_12 
REMARK    4  A    between atoms: C_12  and  C_13 
ROOT
HETATM    1  C   UNL     1      35.365  50.794  41.846  1.00  0.00     0.069 A 
HETATM    2  C   UNL     1      34.372  51.010  42.799  1.00  0.00     0.056 A 
HETATM    3  C   UNL     1      33.117  51.476  42.401  1.00  0.00     0.063 A 
HETATM    4  C   UNL     1      32.823  51.737  41.061  1.00  0.00     0.074 A 
HETATM    5  N   UNL     1      31.573  52.223  40.638  1.00  0.00    -0.234 NA
HETATM    6  C   UNL     1      30.661  52.419  41.535  1.00  0.00     0.113 A 
HETATM    7  N   UNL     1      30.865  52.164  42.867  1.00  0.00    -0.310 N 
HETATM    8  C   UNL     1      32.054  51.723  43.385  1.00  0.00     0.259 A 
HETATM    9  O   UNL     1      32.220  51.566  44.587  1.00  0.00    -0.267 OA
HETATM   10  C   UNL     1      33.823  51.515  40.113  1.00  0.00     0.035 A 
HETATM   11  C   UNL     1      35.087  51.046  40.500  1.00  0.00     0.039 A 
HETATM   12  H   UNL     1      30.147  52.353  43.556  1.00  0.00     0.170 HD
ENDROOT
BRANCH   6  13
HETATM   13  C   UNL     1      29.299  52.965  41.127  1.00  0.00     0.082 C 
HETATM   14  C   UNL     1      28.270  51.854  41.016  1.00  0.00     0.139 C 
HETATM   15  N   UNL     1      28.392  51.439  39.639  1.00  0.00    -0.347 N 
HETATM   16  C   UNL     1      28.869  52.460  38.832  1.00  0.00     0.220 C 
HETATM   17  O   UNL     1      28.944  52.454  37.615  1.00  0.00    -0.273 OA
HETATM   18  C   UNL     1      29.322  53.589  39.730  1.00  0.00     0.117 C 
BRANCH  15  19
HETATM   19  C   UNL     1      27.774  50.230  39.127  1.00  0.00     0.164 C 
BRANCH  19  20
HETATM   20  C   UNL     1      28.640  49.008  39.283  1.00  0.00    -0.040 A 
HETATM   21  C   UNL     1      30.016  49.082  39.017  1.00  0.00     0.009 A 
HETATM   22  C   UNL     1      30.831  47.962  39.186  1.00  0.00     0.001 A 
HETATM   23  C   UNL     1      30.278  46.755  39.609  1.00  0.00     0.000 A 
HETATM   24  C   UNL     1      28.910  46.665  39.859  1.00  0.00     0.001 A 
HETATM   25  C   UNL     1      28.093  47.785  39.696  1.00  0.00     0.009 A 
ENDBRANCH  19  20
ENDBRANCH  15  19
ENDBRANCH   6  13
BRANCH   1  26
HETATM   26  O   UNL     1      36.551  50.342  42.352  1.00  0.00    -0.356 OA
HETATM   27  C   UNL     1      37.741  50.909  41.822  1.00  0.00     0.210 C 
ENDBRANCH   1  26
TORSDOF 4
ENDMDL
MODEL 4
REMARK VINA RESULT:      -7.9      5.371      8.344
REMARK  4 active torsions:
REMARK  status: ('A' for Active; 'I' for Inactive)
REMARK    1  A    between atoms: O_2  and  C_3 
REMARK    2  A    between atoms: C_8  and  C_9 
REMARK    3  A    between atoms: N_11  and  C_12 
REMARK    4  A    between atoms: C_12  and  C_13 
ROOT
HETATM    1  C   UNL     1      26.054  44.858  53.073  1.00  0.00     0.069 A 
HETATM    2  C   UNL     1      25.195  44.463  52.050  1.00  0.00     0.056 A 
HETATM    3  C   UNL     1      24.681  45.417  51.168  1.00  0.00     0.063 A 
HETATM    4  C   UNL     1      25.004  46.770  51.283  1.00  0.00     0.074 A 
HETATM    5  N   UNL     1      24.484  47.751  50.419  1.00  0.00    -0.234 NA
HETATM    6  C   UNL     1      23.688  47.368  49.473  1.00  0.00     0.113 A 
HETATM    7  N   UNL     1      23.343  46.056  49.280  1.00  0.00    -0.310 N 
HETATM    8  C   UNL     1      23.765  45.031  50.086  1.00  0.00     0.259 A 
HETATM    9  O   UNL     1      23.387  43.878  49.922  1.00  0.00    -0.267 OA
HETATM   10  C   UNL     1      25.866  47.156  52.309  1.00  0.00     0.035 A 
HETATM   11  C   UNL     1      26.391  46.208  53.200  1.00  0.00     0.039 A 
HETATM   12  H   UNL     1      22.694  45.782  48.552  1.00  0.00     0.170 HD
ENDROOT
BRANCH   6  13
HETATM   13  C   UNL     1      23.084  48.397  48.526  1.00  0.00     0.082 C 
HETATM   14  C   UNL     1      22.512  49.579  49.288  1.00  0.00     0.139 C 
HETATM   15  N   UNL     1      21.150  49.173  49.536  1.00  0.00    -0.347 N 
HETATM   16  C   UNL     1      20.700  48.268  48.587  1.00  0.00     0.220 C 
HETATM   17  O   UNL     1      19.560  47.857  48.454  1.00  0.00    -0.273 OA
HETATM   18  C   UNL     1      21.887  47.839  47.754  1.00  0.00     0.117 C 
BRANCH  15  19
HETATM   19  C   UNL     1      20.275  49.881  50.451  1.00  0.00     0.164 C 
BRANCH  19  20
HETATM   20  C   UNL     1      19.319  50.816  49.758  1.00  0.00    -0.040 A 
HETATM   21  C   UNL     1      17.944  50.743  50.027  1.00  0.00     0.009 A 
HETATM   22  C   UNL     1      17.054  51.623  49.411  1.00  0.00     0.001 A 
HETATM   23  C   UNL     1      17.527  52.575  48.510  1.00  0.00     0.000 A 
HETATM   24  C   UNL     1      18.887  52.645  48.221  1.00  0.00     0.001 A 
HETATM   25  C   UNL     1      19.781  51.769  48.840  1.00  0.00     0.009 A 
ENDBRANCH  19  20
ENDBRANCH  15  19
ENDBRANCH   6  13
BRANCH   1  26
HETATM   26  O   UNL     1      26.490  43.840  53.874  1.00  0.00    -0.356 OA
HETATM   27  C   UNL     1      27.854  43.865  54.271  1.00  0.00     0.210 C 
ENDBRANCH   1  26
TORSDOF 4
ENDMDL
MODEL 5
REMARK VINA RESULT:      -7.9     13.388     14.509
REMARK  4 active torsions:
REMARK  status: ('A' for Active; 'I' for Inactive)
REMARK    1  A    between atoms: O_2  and  C_3 
REMARK    2  A    between atoms: C_8  and  C_9 
REMARK    3  A    between atoms: N_11  and  C_12 
REMARK    4  A    between atoms: C_12  and  C_13 
ROOT
HETATM    1  C   UNL     1      34.709  51.129  42.228  1.00  0.00     0.069 A 
HETATM    2  C   UNL     1      34.252  51.294  40.922  1.00  0.00     0.056 A 
HETATM    3  C   UNL     1      32.930  51.683  40.693  1.00  0.00     0.063 A 
HETATM    4  C   UNL     1      32.041  51.912  41.746  1.00  0.00     0.074 A 
HETATM    5  N   UNL     1      30.701  52.286  41.540  1.00  0.00    -0.234 NA
HETATM    6  C   UNL     1      30.291  52.436  40.321  1.00  0.00     0.113 A 
HETATM    7  N   UNL     1      31.109  52.253  39.237  1.00  0.00    -0.310 N 
HETATM    8  C   UNL     1      32.417  51.855  39.327  1.00  0.00     0.259 A 
HETATM    9  O   UNL     1      33.101  51.641  38.335  1.00  0.00    -0.267 OA
HETATM   10  C   UNL     1      32.508  51.746  43.049  1.00  0.00     0.035 A 
HETATM   11  C   UNL     1      33.834  51.358  43.293  1.00  0.00     0.039 A 
HETATM   12  H   UNL     1      30.760  52.347  38.291  1.00  0.00     0.170 HD
ENDROOT
BRANCH   6  13
HETATM   13  C   UNL     1      28.843  52.820  40.049  1.00  0.00     0.082 C 
HETATM   14  C   UNL     1      27.883  51.935  40.824  1.00  0.00     0.139 C 
HETATM   15  N   UNL     1      27.646  50.841  39.913  1.00  0.00    -0.347 N 
HETATM   16  C   UNL     1      27.831  51.220  38.592  1.00  0.00     0.220 C 
HETATM   17  O   UNL     1      27.572  50.560  37.601  1.00  0.00    -0.273 OA
HETATM   18  C   UNL     1      28.451  52.599  38.586  1.00  0.00     0.117 C 
BRANCH  15  19
HETATM   19  C   UNL     1      26.978  49.618  40.313  1.00  0.00     0.164 C 
BRANCH  19  20
HETATM   20  C   UNL     1      27.800  48.381  40.061  1.00  0.00    -0.040 A 
HETATM   21  C   UNL     1      29.187  48.405  40.265  1.00  0.00     0.009 A 
HETATM   22  C   UNL     1      29.953  47.257  40.062  1.00  0.00     0.001 A 
HETATM   23  C   UNL     1      29.342  46.077  39.640  1.00  0.00     0.000 A 
HETATM   24  C   UNL     1      27.967  46.046  39.417  1.00  0.00     0.001 A 
HETATM   25  C   UNL     1      27.198  47.192  39.625  1.00  0.00     0.009 A 
ENDBRANCH  19  20
ENDBRANCH  15  19
ENDBRANCH   6  13
BRANCH   1  26
HETATM   26  O   UNL     1      36.016  50.743  42.328  1.00  0.00    -0.356 OA
HETATM   27  C   UNL     1      36.776  50.708  41.127  1.00  0.00     0.210 C 
ENDBRANCH   1  26
TORSDOF 4
ENDMDL
MODEL 6
REMARK VINA RESULT:      -7.9      3.183      7.565
REMARK  4 active torsions:
REMARK  status: ('A' for Active; 'I' for Inactive)
REMARK    1  A    between atoms: O_2  and  C_3 
REMARK    2  A    between atoms: C_8  and  C_9 
REMARK    3  A    between atoms: N_11  and  C_12 
REMARK    4  A    between atoms: C_12  and  C_13 
ROOT
HETATM    1  C   UNL     1      26.345  39.098  46.893  1.00  0.00     0.069 A 
HETATM    2  C   UNL     1      25.343  39.879  47.463  1.00  0.00     0.056 A 
HETATM    3  C   UNL     1      25.683  41.000  48.224  1.00  0.00     0.063 A 
HETATM    4  C   UNL     1      27.014  41.364  48.436  1.00  0.00     0.074 A 
HETATM    5  N   UNL     1      27.382  42.477  49.214  1.00  0.00    -0.234 NA
HETATM    6  C   UNL     1      26.439  43.193  49.736  1.00  0.00     0.113 A 
HETATM    7  N   UNL     1      25.109  42.913  49.555  1.00  0.00    -0.310 N 
HETATM    8  C   UNL     1      24.647  41.836  48.846  1.00  0.00     0.259 A 
HETATM    9  O   UNL     1      23.453  41.581  48.756  1.00  0.00    -0.267 OA
HETATM   10  C   UNL     1      28.011  40.577  47.860  1.00  0.00     0.035 A 
HETATM   11  C   UNL     1      27.683  39.451  47.091  1.00  0.00     0.039 A 
HETATM   12  H   UNL     1      24.388  43.469  49.997  1.00  0.00     0.170 HD
ENDROOT
BRANCH   6  13
HETATM   13  C   UNL     1      26.790  44.395  50.604  1.00  0.00     0.082 C 
HETATM   14  C   UNL     1      27.800  44.025  51.675  1.00  0.00     0.139 C 
HETATM   15  N   UNL     1      26.964  43.616  52.778  1.00  0.00    -0.347 N 
HETATM   16  C   UNL     1      25.714  44.214  52.729  1.00  0.00     0.220 C 
HETATM   17  O   UNL     1      24.851  44.172  53.588  1.00  0.00    -0.273 OA
HETATM   18  C   UNL     1      25.584  44.910  51.392  1.00  0.00     0.117 C 
BRANCH  15  19
HETATM   19  C   UNL     1      27.487  42.941  53.951  1.00  0.00     0.164 C 
BRANCH  19  20
HETATM   20  C   UNL     1      28.551  43.731  54.667  1.00  0.00    -0.040 A 
HETATM   21  C   UNL     1      28.270  45.021  55.139  1.00  0.00     0.009 A 
HETATM   22  C   UNL     1      29.240  45.750  55.828  1.00  0.00     0.001 A 
HETATM   23  C   UNL     1      30.503  45.202  56.040  1.00  0.00     0.000 A 
HETATM   24  C   UNL     1      30.799  43.928  55.560  1.00  0.00     0.001 A 
HETATM   25  C   UNL     1      29.829  43.194  54.875  1.00  0.00     0.009 A 
ENDBRANCH  19  20
ENDBRANCH  15  19
ENDBRANCH   6  13
BRANCH   1  26
HETATM   26  O   UNL     1      25.893  38.027  46.174  1.00  0.00    -0.356 OA
HETATM   27  C   UNL     1      25.541  36.858  46.902  1.00  0.00     0.210 C 
ENDBRANCH   1  26
TORSDOF 4
ENDMDL
MODEL 7
REMARK VINA RESULT:      -7.8      4.636      8.663
REMARK  4 active torsions:
REMARK  status: ('A' for Active; 'I' for Inactive)
REMARK    1  A    between atoms: O_2  and  C_3 
REMARK    2  A    between atoms: C_8  and  C_9 
REMARK    3  A    between atoms: N_11  and  C_12 
REMARK    4  A    between atoms: C_12  and  C_13 
ROOT
HETATM    1  C   UNL     1      19.202  50.478  49.477  1.00  0.00     0.069 A 
HETATM    2  C   UNL     1      19.433  49.142  49.156  1.00  0.00     0.056 A 
HETATM    3  C   UNL     1      20.736  48.638  49.180  1.00  0.00     0.063 A 
HETATM    4  C   UNL     1      21.826  49.442  49.518  1.00  0.00     0.074 A 
HETATM    5  N   UNL     1      23.148  48.962  49.531  1.00  0.00    -0.234 NA
HETATM    6  C   UNL     1      23.347  47.718  49.231  1.00  0.00     0.113 A 
HETATM    7  N   UNL     1      22.327  46.861  48.912  1.00  0.00    -0.310 N 
HETATM    8  C   UNL     1      21.011  47.236  48.837  1.00  0.00     0.259 A 
HETATM    9  O   UNL     1      20.133  46.459  48.488  1.00  0.00    -0.267 OA
HETATM   10  C   UNL     1      21.584  50.777  49.840  1.00  0.00     0.035 A 
HETATM   11  C   UNL     1      20.281  51.296  49.821  1.00  0.00     0.039 A 
HETATM   12  H   UNL     1      22.508  45.899  48.652  1.00  0.00     0.170 HD
ENDROOT
BRANCH   6  13
HETATM   13  C   UNL     1      24.764  47.159  49.211  1.00  0.00     0.082 C 
HETATM   14  C   UNL     1      24.807  45.747  49.767  1.00  0.00     0.139 C 
HETATM   15  N   UNL     1      25.032  45.962  51.176  1.00  0.00    -0.347 N 
HETATM   16  C   UNL     1      25.677  47.165  51.419  1.00  0.00     0.220 C 
HETATM   17  O   UNL     1      26.121  47.552  52.486  1.00  0.00    -0.273 OA
HETATM   18  C   UNL     1      25.708  47.946  50.124  1.00  0.00     0.117 C 
BRANCH  15  19
HETATM   19  C   UNL     1      24.903  44.905  52.161  1.00  0.00     0.164 C 
BRANCH  19  20
HETATM   20  C   UNL     1      26.228  44.401  52.669  1.00  0.00    -0.040 A 
HETATM   21  C   UNL     1      27.197  43.937  51.768  1.00  0.00     0.009 A 
HETATM   22  C   UNL     1      28.438  43.494  52.227  1.00  0.00     0.001 A 
HETATM   23  C   UNL     1      28.718  43.499  53.592  1.00  0.00     0.000 A 
HETATM   24  C   UNL     1      27.757  43.941  54.499  1.00  0.00     0.001 A 
HETATM   25  C   UNL     1      26.516  44.389  54.042  1.00  0.00     0.009 A 
ENDBRANCH  19  20
ENDBRANCH  15  19
ENDBRANCH   6  13
BRANCH   1  26
HETATM   26  O   UNL     1      17.890  50.858  49.416  1.00  0.00    -0.356 OA
HETATM   27  C   UNL     1      17.602  52.233  49.636  1.00  0.00     0.210 C 
ENDBRANCH   1  26
TORSDOF 4
ENDMDL
MODEL 8
REMARK VINA RESULT:      -7.7      2.784      7.511
REMARK  4 active torsions:
REMARK  status: ('A' for Active; 'I' for Inactive)
REMARK    1  A    between atoms: O_2  and  C_3 
REMARK    2  A    between atoms: C_8  and  C_9 
REMARK    3  A    between atoms: N_11  and  C_12 
REMARK    4  A    between atoms: C_12  and  C_13 
ROOT
HETATM    1  C   UNL     1      22.527  48.931  48.486  1.00  0.00     0.069 A 
HETATM    2  C   UNL     1      23.739  48.748  49.148  1.00  0.00     0.056 A 
HETATM    3  C   UNL     1      24.187  47.455  49.432  1.00  0.00     0.063 A 
HETATM    4  C   UNL     1      23.447  46.328  49.071  1.00  0.00     0.074 A 
HETATM    5  N   UNL     1      23.868  45.018  49.362  1.00  0.00    -0.234 NA
HETATM    6  C   UNL     1      24.997  44.864  49.977  1.00  0.00     0.113 A 
HETATM    7  N   UNL     1      25.791  45.920  50.344  1.00  0.00    -0.310 N 
HETATM    8  C   UNL     1      25.456  47.232  50.139  1.00  0.00     0.259 A 
HETATM    9  O   UNL     1      26.160  48.152  50.535  1.00  0.00    -0.267 OA
HETATM   10  C   UNL     1      22.237  46.521  48.406  1.00  0.00     0.035 A 
HETATM   11  C   UNL     1      21.776  47.813  48.113  1.00  0.00     0.039 A 
HETATM   12  H   UNL     1      26.656  45.778  50.851  1.00  0.00     0.170 HD
ENDROOT
BRANCH   6  13
HETATM   13  C   UNL     1      25.484  43.465  50.333  1.00  0.00     0.082 C 
HETATM   14  C   UNL     1      25.265  43.163  51.805  1.00  0.00     0.139 C 
HETATM   15  N   UNL     1      26.491  43.622  52.412  1.00  0.00    -0.347 N 
HETATM   16  C   UNL     1      27.552  43.594  51.520  1.00  0.00     0.220 C 
HETATM   17  O   UNL     1      28.727  43.788  51.779  1.00  0.00    -0.273 OA
HETATM   18  C   UNL     1      26.994  43.314  50.143  1.00  0.00     0.117 C 
BRANCH  15  19
HETATM   19  C   UNL     1      26.650  43.763  53.848  1.00  0.00     0.164 C 
BRANCH  19  20
HETATM   20  C   UNL     1      26.890  45.184  54.283  1.00  0.00    -0.040 A 
HETATM   21  C   UNL     1      28.054  45.516  54.992  1.00  0.00     0.009 A 
HETATM   22  C   UNL     1      28.299  46.835  55.375  1.00  0.00     0.001 A 
HETATM   23  C   UNL     1      27.377  47.833  55.064  1.00  0.00     0.000 A 
HETATM   24  C   UNL     1      26.209  47.513  54.376  1.00  0.00     0.001 A 
HETATM   25  C   UNL     1      25.964  46.195  53.987  1.00  0.00     0.009 A 
ENDBRANCH  19  20
ENDBRANCH  15  19
ENDBRANCH   6  13
BRANCH   1  26
HETATM   26  O   UNL     1      22.191  50.237  48.266  1.00  0.00    -0.356 OA
HETATM   27  C   UNL     1      21.694  50.975  49.375  1.00  0.00     0.210 C 
ENDBRANCH   1  26
TORSDOF 4
ENDMDL
MODEL 9
REMARK VINA RESULT:      -7.6      3.162      7.881
REMARK  4 active torsions:
REMARK  status: ('A' for Active; 'I' for Inactive)
REMARK    1  A    between atoms: O_2  and  C_3 
REMARK    2  A    between atoms: C_8  and  C_9 
REMARK    3  A    between atoms: N_11  and  C_12 
REMARK    4  A    between atoms: C_12  and  C_13 
ROOT
HETATM    1  C   UNL     1      22.974  40.923  47.082  1.00  0.00     0.069 A 
HETATM    2  C   UNL     1      24.247  40.608  47.555  1.00  0.00     0.056 A 
HETATM    3  C   UNL     1      24.984  41.566  48.255  1.00  0.00     0.063 A 
HETATM    4  C   UNL     1      24.481  42.845  48.496  1.00  0.00     0.074 A 
HETATM    5  N   UNL     1      25.212  43.832  49.182  1.00  0.00    -0.234 NA
HETATM    6  C   UNL     1      26.392  43.523  49.616  1.00  0.00     0.113 A 
HETATM    7  N   UNL     1      26.946  42.282  49.439  1.00  0.00    -0.310 N 
HETATM    8  C   UNL     1      26.333  41.265  48.756  1.00  0.00     0.259 A 
HETATM    9  O   UNL     1      26.882  40.189  48.563  1.00  0.00    -0.267 OA
HETATM   10  C   UNL     1      23.206  43.151  48.022  1.00  0.00     0.035 A 
HETATM   11  C   UNL     1      22.453  42.198  47.319  1.00  0.00     0.039 A 
HETATM   12  H   UNL     1      27.883  42.071  49.760  1.00  0.00     0.170 HD
ENDROOT
BRANCH   6  13
HETATM   13  C   UNL     1      27.229  44.566  50.346  1.00  0.00     0.082 C 
HETATM   14  C   UNL     1      27.966  43.955  51.525  1.00  0.00     0.139 C 
HETATM   15  N   UNL     1      27.026  44.114  52.608  1.00  0.00    -0.347 N 
HETATM   16  C   UNL     1      26.167  45.181  52.395  1.00  0.00     0.220 C 
HETATM   17  O   UNL     1      25.366  45.643  53.190  1.00  0.00    -0.273 OA
HETATM   18  C   UNL     1      26.366  45.662  50.975  1.00  0.00     0.117 C 
BRANCH  15  19
HETATM   19  C   UNL     1      27.191  43.457  53.892  1.00  0.00     0.164 C 
BRANCH  19  20
HETATM   20  C   UNL     1      28.464  43.841  54.597  1.00  0.00    -0.040 A 
HETATM   21  C   UNL     1      28.580  45.101  55.204  1.00  0.00     0.009 A 
HETATM   22  C   UNL     1      29.745  45.455  55.885  1.00  0.00     0.001 A 
HETATM   23  C   UNL     1      30.811  44.560  55.954  1.00  0.00     0.000 A 
HETATM   24  C   UNL     1      30.715  43.314  55.340  1.00  0.00     0.001 A 
HETATM   25  C   UNL     1      29.548  42.954  54.663  1.00  0.00     0.009 A 
ENDBRANCH  19  20
ENDBRANCH  15  19
ENDBRANCH   6  13
BRANCH   1  26
HETATM   26  O   UNL     1      22.351  39.910  46.410  1.00  0.00    -0.356 OA
HETATM   27  C   UNL     1      21.216  39.321  47.031  1.00  0.00     0.210 C 
ENDBRANCH   1  26
TORSDOF 4
ENDMDL
MODEL 10
REMARK VINA RESULT:      -7.6      5.104      8.010
REMARK  4 active torsions:
REMARK  status: ('A' for Active; 'I' for Inactive)
REMARK    1  A    between atoms: O_2  and  C_3 
REMARK    2  A    between atoms: C_8  and  C_9 
REMARK    3  A    between atoms: N_11  and  C_12 
REMARK    4  A    between atoms: C_12  and  C_13 
ROOT
HETATM    1  C   UNL     1      26.036  45.586  52.710  1.00  0.00     0.069 A 
HETATM    2  C   UNL     1      25.215  44.618  52.137  1.00  0.00     0.056 A 
HETATM    3  C   UNL     1      24.446  44.934  51.014  1.00  0.00     0.063 A 
HETATM    4  C   UNL     1      24.474  46.207  50.443  1.00  0.00     0.074 A 
HETATM    5  N   UNL     1      23.696  46.555  49.324  1.00  0.00    -0.234 NA
HETATM    6  C   UNL     1      22.938  45.643  48.803  1.00  0.00     0.113 A 
HETATM    7  N   UNL     1      22.874  44.365  49.292  1.00  0.00    -0.310 N 
HETATM    8  C   UNL     1      23.563  43.935  50.396  1.00  0.00     0.259 A 
HETATM    9  O   UNL     1      23.435  42.803  50.842  1.00  0.00    -0.267 OA
HETATM   10  C   UNL     1      25.301  47.170  51.022  1.00  0.00     0.035 A 
HETATM   11  C   UNL     1      26.079  46.865  52.148  1.00  0.00     0.039 A 
HETATM   12  H   UNL     1      22.252  43.676  48.887  1.00  0.00     0.170 HD
ENDROOT
BRANCH   6  13
HETATM   13  C   UNL     1      22.062  45.980  47.603  1.00  0.00     0.082 C 
HETATM   14  C   UNL     1      21.250  47.239  47.849  1.00  0.00     0.139 C 
HETATM   15  N   UNL     1      20.040  46.730  48.449  1.00  0.00    -0.347 N 
HETATM   16  C   UNL     1      19.787  45.421  48.069  1.00  0.00     0.220 C 
HETATM   17  O   UNL     1      18.777  44.777  48.300  1.00  0.00    -0.273 OA
HETATM   18  C   UNL     1      21.006  44.904  47.340  1.00  0.00     0.117 C 
BRANCH  15  19
HETATM   19  C   UNL     1      19.058  47.589  49.083  1.00  0.00     0.164 C 
BRANCH  19  20
HETATM   20  C   UNL     1      19.370  49.055  48.942  1.00  0.00    -0.040 A 
HETATM   21  C   UNL     1      19.061  49.729  47.751  1.00  0.00     0.009 A 
HETATM   22  C   UNL     1      19.321  51.094  47.620  1.00  0.00     0.001 A 
HETATM   23  C   UNL     1      19.904  51.795  48.674  1.00  0.00     0.000 A 
HETATM   24  C   UNL     1      20.232  51.133  49.855  1.00  0.00     0.001 A 
HETATM   25  C   UNL     1      19.968  49.769  49.990  1.00  0.00     0.009 A 
ENDBRANCH  19  20
ENDBRANCH  15  19
ENDBRANCH   6  13
BRANCH   1  26
HETATM   26  O   UNL     1      26.736  45.163  53.804  1.00  0.00    -0.356 OA
HETATM   27  C   UNL     1      26.117  44.190  54.635  1.00  0.00     0.210 C 
ENDBRANCH   1  26
TORSDOF 4
ENDMDL
