MODEL 1
REMARK VINA RESULT:     -10.3      0.000      0.000
REMARK  8 active torsions:
REMARK  status: ('A' for Active; 'I' for Inactive)
REMARK    1  A    between atoms: C_2  and  N_3 
REMARK    2  A    between atoms: C_2  and  C_26 
REMARK       I    between atoms: N_3  and  C_4 
REMARK    3  A    between atoms: C_4  and  C_5 
REMARK    4  A    between atoms: C_5  and  S_6 
REMARK    5  A    between atoms: S_6  and  C_7 
REMARK    6  A    between atoms: C_10  and  C_11 
REMARK    7  A    between atoms: C_11  and  O_12 
REMARK    8  A    between atoms: O_12  and  C_13 
ROOT
HETATM    1  C   UNL     1      24.587  46.151  50.364  1.00  0.00     0.191 A 
HETATM    2  N   UNL     1      25.008  45.357  51.394  1.00  0.00    -0.314 N 
HETATM    3  C   UNL     1      24.847  43.933  51.526  1.00  0.00     0.160 C 
HETATM    4  C   UNL     1      25.651  46.204  52.269  1.00  0.00     0.154 A 
HETATM    5  N   UNL     1      25.546  47.439  51.817  1.00  0.00    -0.132 NA
HETATM    6  N   UNL     1      24.865  47.404  50.631  1.00  0.00    -0.123 NA
ENDROOT
BRANCH   1   7
HETATM    7  S   UNL     1      23.881  45.565  48.901  1.00  0.00    -0.081 SA
BRANCH   7   8
HETATM    8  C   UNL     1      22.209  46.274  49.002  1.00  0.00     0.185 C 
BRANCH   8   9
HETATM    9  C   UNL     1      22.108  47.592  48.249  1.00  0.00     0.227 C 
HETATM   10  N   UNL     1      22.094  48.713  49.042  1.00  0.00    -0.352 N 
HETATM   11  H   UNL     1      22.229  48.599  50.048  1.00  0.00     0.163 HD
HETATM   12  O   UNL     1      22.016  47.635  47.024  1.00  0.00    -0.273 OA
BRANCH  10  13
HETATM   13  C   UNL     1      21.959  50.067  48.534  1.00  0.00     0.113 C 
HETATM   14  C   UNL     1      23.102  50.978  48.995  1.00  0.00     0.037 C 
BRANCH  13  15
HETATM   15  C   UNL     1      20.603  50.620  48.941  1.00  0.00    -0.036 A 
HETATM   16  C   UNL     1      19.817  49.941  49.883  1.00  0.00     0.009 A 
HETATM   17  C   UNL     1      18.587  50.462  50.293  1.00  0.00     0.001 A 
HETATM   18  C   UNL     1      18.130  51.671  49.772  1.00  0.00     0.000 A 
HETATM   19  C   UNL     1      18.903  52.362  48.844  1.00  0.00     0.001 A 
HETATM   20  C   UNL     1      20.131  51.844  48.433  1.00  0.00     0.009 A 
ENDBRANCH  13  15
ENDBRANCH  10  13
ENDBRANCH   8   9
ENDBRANCH   7   8
ENDBRANCH   1   7
BRANCH   4  21
HETATM   21  C   UNL     1      26.392  45.784  53.487  1.00  0.00     0.256 C 
BRANCH  21  22
HETATM   22  O   UNL     1      27.521  45.026  53.053  1.00  0.00    -0.344 OA
BRANCH  22  23
HETATM   23  C   UNL     1      28.428  44.722  54.032  1.00  0.00     0.069 A 
HETATM   24  C   UNL     1      28.645  45.472  55.189  1.00  0.00     0.044 A 
HETATM   25  C   UNL     1      29.602  45.068  56.138  1.00  0.00    -0.049 A 
HETATM   26  C   UNL     1      30.371  43.916  55.901  1.00  0.00    -0.052 A 
HETATM   27  C   UNL     1      29.823  45.925  57.362  1.00  0.00     0.039 C 
HETATM   28  C   UNL     1      31.384  43.424  56.905  1.00  0.00     0.039 C 
HETATM   29  C   UNL     1      30.153  43.175  54.732  1.00  0.00     0.010 A 
HETATM   30  C   UNL     1      31.805  44.494  57.911  1.00  0.00     0.005 C 
HETATM   31  C   UNL     1      30.581  45.205  58.475  1.00  0.00     0.005 C 
HETATM   32  C   UNL     1      29.196  43.581  53.801  1.00  0.00     0.037 A 
ENDBRANCH  22  23
ENDBRANCH  21  22
ENDBRANCH   4  21
TORSDOF 8
ENDMDL
MODEL 2
REMARK VINA RESULT:     -10.2      1.575     11.109
REMARK  8 active torsions:
REMARK  status: ('A' for Active; 'I' for Inactive)
REMARK    1  A    between atoms: C_2  and  N_3 
REMARK    2  A    between atoms: C_2  and  C_26 
REMARK       I    between atoms: N_3  and  C_4 
REMARK    3  A    between atoms: C_4  and  C_5 
REMARK    4  A    between atoms: C_5  and  S_6 
REMARK    5  A    between atoms: S_6  and  C_7 
REMARK    6  A    between atoms: C_10  and  C_11 
REMARK    7  A    between atoms: C_11  and  O_12 
REMARK    8  A    between atoms: O_12  and  C_13 
ROOT
HETATM    1  C   UNL     1      24.622  46.079  50.230  1.00  0.00     0.191 A 
HETATM    2  N   UNL     1      23.910  46.918  49.419  1.00  0.00    -0.314 N 
HETATM    3  C   UNL     1      22.705  46.619  48.689  1.00  0.00     0.160 C 
HETATM    4  C   UNL     1      24.571  48.125  49.469  1.00  0.00     0.154 A 
HETATM    5  N   UNL     1      25.655  47.983  50.208  1.00  0.00    -0.132 NA
HETATM    6  N   UNL     1      25.692  46.696  50.670  1.00  0.00    -0.123 NA
ENDROOT
BRANCH   1   7
HETATM    7  S   UNL     1      24.123  44.486  50.671  1.00  0.00    -0.081 SA
BRANCH   7   8
HETATM    8  C   UNL     1      25.613  43.865  51.510  1.00  0.00     0.185 C 
BRANCH   8   9
HETATM    9  C   UNL     1      25.716  44.384  52.936  1.00  0.00     0.227 C 
HETATM   10  N   UNL     1      26.878  45.055  53.227  1.00  0.00    -0.352 N 
HETATM   11  H   UNL     1      27.541  45.229  52.470  1.00  0.00     0.163 HD
HETATM   12  O   UNL     1      24.831  44.182  53.766  1.00  0.00    -0.273 OA
BRANCH  10  13
HETATM   13  C   UNL     1      27.201  45.593  54.536  1.00  0.00     0.113 C 
HETATM   14  C   UNL     1      27.250  47.125  54.541  1.00  0.00     0.037 C 
BRANCH  13  15
HETATM   15  C   UNL     1      28.511  44.990  55.015  1.00  0.00    -0.036 A 
HETATM   16  C   UNL     1      28.989  43.799  54.448  1.00  0.00     0.009 A 
HETATM   17  C   UNL     1      30.211  43.258  54.853  1.00  0.00     0.001 A 
HETATM   18  C   UNL     1      30.974  43.901  55.826  1.00  0.00     0.000 A 
HETATM   19  C   UNL     1      30.519  45.089  56.391  1.00  0.00     0.001 A 
HETATM   20  C   UNL     1      29.299  45.631  55.987  1.00  0.00     0.009 A 
ENDBRANCH  13  15
ENDBRANCH  10  13
ENDBRANCH   8   9
ENDBRANCH   7   8
ENDBRANCH   1   7
BRANCH   4  21
HETATM   21  C   UNL     1      24.103  49.390  48.845  1.00  0.00     0.256 C 
BRANCH  21  22
HETATM   22  O   UNL     1      23.187  49.996  49.756  1.00  0.00    -0.344 OA
BRANCH  22  23
HETATM   23  C   UNL     1      21.990  50.374  49.210  1.00  0.00     0.069 A 
HETATM   24  C   UNL     1      20.951  50.998  49.902  1.00  0.00     0.044 A 
HETATM   25  C   UNL     1      19.759  51.351  49.244  1.00  0.00    -0.049 A 
HETATM   26  C   UNL     1      19.600  51.039  47.882  1.00  0.00    -0.052 A 
HETATM   27  C   UNL     1      18.650  51.999  50.038  1.00  0.00     0.039 C 
HETATM   28  C   UNL     1      18.354  51.428  47.124  1.00  0.00     0.039 C 
HETATM   29  C   UNL     1      20.645  50.404  47.198  1.00  0.00     0.010 A 
HETATM   30  C   UNL     1      17.168  51.740  48.035  1.00  0.00     0.005 C 
HETATM   31  C   UNL     1      17.593  52.670  49.163  1.00  0.00     0.005 C 
HETATM   32  C   UNL     1      21.826  50.066  47.860  1.00  0.00     0.037 A 
ENDBRANCH  22  23
ENDBRANCH  21  22
ENDBRANCH   4  21
TORSDOF 8
ENDMDL
MODEL 3
REMARK VINA RESULT:      -9.9      1.600      2.731
REMARK  8 active torsions:
REMARK  status: ('A' for Active; 'I' for Inactive)
REMARK    1  A    between atoms: C_2  and  N_3 
REMARK    2  A    between atoms: C_2  and  C_26 
REMARK       I    between atoms: N_3  and  C_4 
REMARK    3  A    between atoms: C_4  and  C_5 
REMARK    4  A    between atoms: C_5  and  S_6 
REMARK    5  A    between atoms: S_6  and  C_7 
REMARK    6  A    between atoms: C_10  and  C_11 
REMARK    7  A    between atoms: C_11  and  O_12 
REMARK    8  A    between atoms: O_12  and  C_13 
ROOT
HETATM    1  C   UNL     1      23.833  47.319  49.707  1.00  0.00     0.191 A 
HETATM    2  N   UNL     1      24.307  46.094  50.084  1.00  0.00    -0.314 N 
HETATM    3  C   UNL     1      23.752  44.804  49.769  1.00  0.00     0.160 C 
HETATM    4  C   UNL     1      25.452  46.351  50.806  1.00  0.00     0.154 A 
HETATM    5  N   UNL     1      25.600  47.658  50.913  1.00  0.00    -0.132 NA
HETATM    6  N   UNL     1      24.575  48.262  50.237  1.00  0.00    -0.123 NA
ENDROOT
BRANCH   1   7
HETATM    7  S   UNL     1      22.512  47.567  48.623  1.00  0.00    -0.081 SA
BRANCH   7   8
HETATM    8  C   UNL     1      22.474  49.382  48.517  1.00  0.00     0.185 C 
BRANCH   8   9
HETATM    9  C   UNL     1      21.530  49.989  49.544  1.00  0.00     0.227 C 
HETATM   10  N   UNL     1      20.355  49.304  49.727  1.00  0.00    -0.352 N 
HETATM   11  H   UNL     1      20.228  48.416  49.239  1.00  0.00     0.163 HD
HETATM   12  O   UNL     1      21.799  51.033  50.135  1.00  0.00    -0.273 OA
BRANCH  10  13
HETATM   13  C   UNL     1      19.296  49.731  50.625  1.00  0.00     0.113 C 
HETATM   14  C   UNL     1      18.605  48.549  51.314  1.00  0.00     0.037 C 
BRANCH  13  15
HETATM   15  C   UNL     1      18.305  50.589  49.857  1.00  0.00    -0.036 A 
HETATM   16  C   UNL     1      18.361  51.987  49.949  1.00  0.00     0.009 A 
HETATM   17  C   UNL     1      17.480  52.785  49.215  1.00  0.00     0.001 A 
HETATM   18  C   UNL     1      16.535  52.198  48.376  1.00  0.00     0.000 A 
HETATM   19  C   UNL     1      16.473  50.811  48.266  1.00  0.00     0.001 A 
HETATM   20  C   UNL     1      17.352  50.012  48.998  1.00  0.00     0.009 A 
ENDBRANCH  13  15
ENDBRANCH  10  13
ENDBRANCH   8   9
ENDBRANCH   7   8
ENDBRANCH   1   7
BRANCH   4  21
HETATM   21  C   UNL     1      26.395  45.323  51.321  1.00  0.00     0.256 C 
BRANCH  21  22
HETATM   22  O   UNL     1      26.047  45.078  52.683  1.00  0.00    -0.344 OA
BRANCH  22  23
HETATM   23  C   UNL     1      27.092  45.128  53.567  1.00  0.00     0.069 A 
HETATM   24  C   UNL     1      27.987  44.086  53.816  1.00  0.00     0.044 A 
HETATM   25  C   UNL     1      29.032  44.243  54.743  1.00  0.00    -0.049 A 
HETATM   26  C   UNL     1      29.155  45.450  55.452  1.00  0.00    -0.052 A 
HETATM   27  C   UNL     1      29.960  43.080  55.001  1.00  0.00     0.039 C 
HETATM   28  C   UNL     1      30.280  45.678  56.432  1.00  0.00     0.039 C 
HETATM   29  C   UNL     1      28.247  46.487  55.203  1.00  0.00     0.010 A 
HETATM   30  C   UNL     1      30.942  44.384  56.901  1.00  0.00     0.005 C 
HETATM   31  C   UNL     1      31.249  43.481  55.714  1.00  0.00     0.005 C 
HETATM   32  C   UNL     1      27.218  46.323  54.275  1.00  0.00     0.037 A 
ENDBRANCH  22  23
ENDBRANCH  21  22
ENDBRANCH   4  21
TORSDOF 8
ENDMDL
MODEL 4
REMARK VINA RESULT:      -9.9      1.125      2.057
REMARK  8 active torsions:
REMARK  status: ('A' for Active; 'I' for Inactive)
REMARK    1  A    between atoms: C_2  and  N_3 
REMARK    2  A    between atoms: C_2  and  C_26 
REMARK       I    between atoms: N_3  and  C_4 
REMARK    3  A    between atoms: C_4  and  C_5 
REMARK    4  A    between atoms: C_5  and  S_6 
REMARK    5  A    between atoms: S_6  and  C_7 
REMARK    6  A    between atoms: C_10  and  C_11 
REMARK    7  A    between atoms: C_11  and  O_12 
REMARK    8  A    between atoms: O_12  and  C_13 
ROOT
HETATM    1  C   UNL     1      23.386  44.279  49.653  1.00  0.00     0.191 A 
HETATM    2  N   UNL     1      24.308  45.121  50.209  1.00  0.00    -0.314 N 
HETATM    3  C   UNL     1      24.800  46.362  49.670  1.00  0.00     0.160 C 
HETATM    4  C   UNL     1      24.646  44.549  51.415  1.00  0.00     0.154 A 
HETATM    5  N   UNL     1      24.016  43.395  51.527  1.00  0.00    -0.132 NA
HETATM    6  N   UNL     1      23.239  43.221  50.414  1.00  0.00    -0.123 NA
ENDROOT
BRANCH   1   7
HETATM    7  S   UNL     1      22.493  44.617  48.214  1.00  0.00    -0.081 SA
BRANCH   7   8
HETATM    8  C   UNL     1      21.309  45.862  48.813  1.00  0.00     0.185 C 
BRANCH   8   9
HETATM    9  C   UNL     1      21.585  47.235  48.220  1.00  0.00     0.227 C 
HETATM   10  N   UNL     1      21.534  48.274  49.116  1.00  0.00    -0.352 N 
HETATM   11  H   UNL     1      21.398  48.058  50.105  1.00  0.00     0.163 HD
HETATM   12  O   UNL     1      21.805  47.392  47.021  1.00  0.00    -0.273 OA
BRANCH  10  13
HETATM   13  C   UNL     1      21.722  49.669  48.757  1.00  0.00     0.113 C 
HETATM   14  C   UNL     1      22.914  50.301  49.483  1.00  0.00     0.037 C 
BRANCH  13  15
HETATM   15  C   UNL     1      20.435  50.431  49.023  1.00  0.00    -0.036 A 
HETATM   16  C   UNL     1      19.485  49.922  49.921  1.00  0.00     0.009 A 
HETATM   17  C   UNL     1      18.317  50.635  50.203  1.00  0.00     0.001 A 
HETATM   18  C   UNL     1      18.085  51.868  49.595  1.00  0.00     0.000 A 
HETATM   19  C   UNL     1      19.022  52.391  48.709  1.00  0.00     0.001 A 
HETATM   20  C   UNL     1      20.189  51.681  48.427  1.00  0.00     0.009 A 
ENDBRANCH  13  15
ENDBRANCH  10  13
ENDBRANCH   8   9
ENDBRANCH   7   8
ENDBRANCH   1   7
BRANCH   4  21
HETATM   21  C   UNL     1      25.525  45.163  52.444  1.00  0.00     0.256 C 
BRANCH  21  22
HETATM   22  O   UNL     1      26.773  44.471  52.399  1.00  0.00    -0.344 OA
BRANCH  22  23
HETATM   23  C   UNL     1      27.599  44.694  53.469  1.00  0.00     0.069 A 
HETATM   24  C   UNL     1      28.629  43.847  53.881  1.00  0.00     0.044 A 
HETATM   25  C   UNL     1      29.425  44.172  54.993  1.00  0.00    -0.049 A 
HETATM   26  C   UNL     1      29.158  45.346  55.718  1.00  0.00    -0.052 A 
HETATM   27  C   UNL     1      30.510  43.212  55.420  1.00  0.00     0.039 C 
HETATM   28  C   UNL     1      30.006  45.755  56.897  1.00  0.00     0.039 C 
HETATM   29  C   UNL     1      28.117  46.186  55.303  1.00  0.00     0.010 A 
HETATM   30  C   UNL     1      30.823  44.603  57.480  1.00  0.00     0.005 C 
HETATM   31  C   UNL     1      31.530  43.837  56.370  1.00  0.00     0.005 C 
HETATM   32  C   UNL     1      27.338  45.857  54.192  1.00  0.00     0.037 A 
ENDBRANCH  22  23
ENDBRANCH  21  22
ENDBRANCH   4  21
TORSDOF 8
ENDMDL
MODEL 5
REMARK VINA RESULT:      -9.8      1.707      2.149
REMARK  8 active torsions:
REMARK  status: ('A' for Active; 'I' for Inactive)
REMARK    1  A    between atoms: C_2  and  N_3 
REMARK    2  A    between atoms: C_2  and  C_26 
REMARK       I    between atoms: N_3  and  C_4 
REMARK    3  A    between atoms: C_4  and  C_5 
REMARK    4  A    between atoms: C_5  and  S_6 
REMARK    5  A    between atoms: S_6  and  C_7 
REMARK    6  A    between atoms: C_10  and  C_11 
REMARK    7  A    between atoms: C_11  and  O_12 
REMARK    8  A    between atoms: O_12  and  C_13 
ROOT
HETATM    1  C   UNL     1      25.402  46.947  51.051  1.00  0.00     0.191 A 
HETATM    2  N   UNL     1      25.798  45.640  51.064  1.00  0.00    -0.314 N 
HETATM    3  C   UNL     1      25.868  44.733  49.949  1.00  0.00     0.160 C 
HETATM    4  C   UNL     1      26.150  45.377  52.370  1.00  0.00     0.154 A 
HETATM    5  N   UNL     1      25.901  46.448  53.099  1.00  0.00    -0.132 NA
HETATM    6  N   UNL     1      25.418  47.426  52.272  1.00  0.00    -0.123 NA
ENDROOT
BRANCH   1   7
HETATM    7  S   UNL     1      25.031  47.844  49.623  1.00  0.00    -0.081 SA
BRANCH   7   8
HETATM    8  C   UNL     1      23.350  47.254  49.258  1.00  0.00     0.185 C 
BRANCH   8   9
HETATM    9  C   UNL     1      22.467  48.365  48.709  1.00  0.00     0.227 C 
HETATM   10  N   UNL     1      21.313  48.591  49.419  1.00  0.00    -0.352 N 
HETATM   11  H   UNL     1      21.166  48.073  50.286  1.00  0.00     0.163 HD
HETATM   12  O   UNL     1      22.761  48.984  47.689  1.00  0.00    -0.273 OA
BRANCH  10  13
HETATM   13  C   UNL     1      20.310  49.573  49.046  1.00  0.00     0.113 C 
HETATM   14  C   UNL     1      20.200  50.709  50.069  1.00  0.00     0.037 C 
BRANCH  13  15
HETATM   15  C   UNL     1      18.977  48.872  48.843  1.00  0.00    -0.036 A 
HETATM   16  C   UNL     1      17.817  49.620  48.589  1.00  0.00     0.009 A 
HETATM   17  C   UNL     1      16.595  48.982  48.361  1.00  0.00     0.001 A 
HETATM   18  C   UNL     1      16.516  47.591  48.378  1.00  0.00     0.000 A 
HETATM   19  C   UNL     1      17.659  46.835  48.619  1.00  0.00     0.001 A 
HETATM   20  C   UNL     1      18.881  47.469  48.846  1.00  0.00     0.009 A 
ENDBRANCH  13  15
ENDBRANCH  10  13
ENDBRANCH   8   9
ENDBRANCH   7   8
ENDBRANCH   1   7
BRANCH   4  21
HETATM   21  C   UNL     1      26.766  44.116  52.860  1.00  0.00     0.256 C 
BRANCH  21  22
HETATM   22  O   UNL     1      28.173  44.227  52.653  1.00  0.00    -0.344 OA
BRANCH  22  23
HETATM   23  C   UNL     1      28.934  44.157  53.790  1.00  0.00     0.069 A 
HETATM   24  C   UNL     1      28.864  45.048  54.862  1.00  0.00     0.044 A 
HETATM   25  C   UNL     1      29.689  44.884  55.988  1.00  0.00    -0.049 A 
HETATM   26  C   UNL     1      30.619  43.831  56.019  1.00  0.00    -0.052 A 
HETATM   27  C   UNL     1      29.599  45.888  57.112  1.00  0.00     0.039 C 
HETATM   28  C   UNL     1      31.502  43.593  57.220  1.00  0.00     0.039 C 
HETATM   29  C   UNL     1      30.690  42.946  54.935  1.00  0.00     0.010 A 
HETATM   30  C   UNL     1      31.618  44.812  58.133  1.00  0.00     0.005 C 
HETATM   31  C   UNL     1      30.241  45.403  58.410  1.00  0.00     0.005 C 
HETATM   32  C   UNL     1      29.860  43.115  53.825  1.00  0.00     0.037 A 
ENDBRANCH  22  23
ENDBRANCH  21  22
ENDBRANCH   4  21
TORSDOF 8
ENDMDL
MODEL 6
REMARK VINA RESULT:      -9.5      1.591      2.213
REMARK  8 active torsions:
REMARK  status: ('A' for Active; 'I' for Inactive)
REMARK    1  A    between atoms: C_2  and  N_3 
REMARK    2  A    between atoms: C_2  and  C_26 
REMARK       I    between atoms: N_3  and  C_4 
REMARK    3  A    between atoms: C_4  and  C_5 
REMARK    4  A    between atoms: C_5  and  S_6 
REMARK    5  A    between atoms: S_6  and  C_7 
REMARK    6  A    between atoms: C_10  and  C_11 
REMARK    7  A    between atoms: C_11  and  O_12 
REMARK    8  A    between atoms: O_12  and  C_13 
ROOT
HETATM    1  C   UNL     1      24.360  44.256  50.531  1.00  0.00     0.191 A 
HETATM    2  N   UNL     1      25.455  43.441  50.465  1.00  0.00    -0.314 N 
HETATM    3  C   UNL     1      26.024  42.830  49.292  1.00  0.00     0.160 C 
HETATM    4  C   UNL     1      25.923  43.352  51.757  1.00  0.00     0.154 A 
HETATM    5  N   UNL     1      25.103  44.015  52.550  1.00  0.00    -0.132 NA
HETATM    6  N   UNL     1      24.116  44.567  51.781  1.00  0.00    -0.123 NA
ENDROOT
BRANCH   1   7
HETATM    7  S   UNL     1      23.497  44.850  49.158  1.00  0.00    -0.081 SA
BRANCH   7   8
HETATM    8  C   UNL     1      23.643  46.648  49.396  1.00  0.00     0.185 C 
BRANCH   8   9
HETATM    9  C   UNL     1      22.591  47.410  48.604  1.00  0.00     0.227 C 
HETATM   10  N   UNL     1      21.293  47.043  48.862  1.00  0.00    -0.352 N 
HETATM   11  H   UNL     1      21.118  46.363  49.603  1.00  0.00     0.163 HD
HETATM   12  O   UNL     1      22.896  48.265  47.775  1.00  0.00    -0.273 OA
BRANCH  10  13
HETATM   13  C   UNL     1      20.139  47.610  48.187  1.00  0.00     0.113 C 
HETATM   14  C   UNL     1      20.236  47.486  46.663  1.00  0.00     0.037 C 
BRANCH  13  15
HETATM   15  C   UNL     1      19.966  49.056  48.622  1.00  0.00    -0.036 A 
HETATM   16  C   UNL     1      20.110  50.095  47.690  1.00  0.00     0.009 A 
HETATM   17  C   UNL     1      19.914  51.425  48.070  1.00  0.00     0.001 A 
HETATM   18  C   UNL     1      19.568  51.734  49.384  1.00  0.00     0.000 A 
HETATM   19  C   UNL     1      19.412  50.714  50.318  1.00  0.00     0.001 A 
HETATM   20  C   UNL     1      19.606  49.385  49.940  1.00  0.00     0.009 A 
ENDBRANCH  13  15
ENDBRANCH  10  13
ENDBRANCH   8   9
ENDBRANCH   7   8
ENDBRANCH   1   7
BRANCH   4  21
HETATM   21  C   UNL     1      27.178  42.673  52.174  1.00  0.00     0.256 C 
BRANCH  21  22
HETATM   22  O   UNL     1      28.216  43.652  52.144  1.00  0.00    -0.344 OA
BRANCH  22  23
HETATM   23  C   UNL     1      28.803  43.914  53.353  1.00  0.00     0.069 A 
HETATM   24  C   UNL     1      28.395  44.904  54.249  1.00  0.00     0.044 A 
HETATM   25  C   UNL     1      29.065  45.087  55.471  1.00  0.00    -0.049 A 
HETATM   26  C   UNL     1      30.179  44.288  55.778  1.00  0.00    -0.052 A 
HETATM   27  C   UNL     1      28.607  46.189  56.397  1.00  0.00     0.039 C 
HETATM   28  C   UNL     1      30.910  44.424  57.092  1.00  0.00     0.039 C 
HETATM   29  C   UNL     1      30.588  43.303  54.870  1.00  0.00     0.010 A 
HETATM   30  C   UNL     1      30.636  45.750  57.799  1.00  0.00     0.005 C 
HETATM   31  C   UNL     1      29.142  46.044  57.820  1.00  0.00     0.005 C 
HETATM   32  C   UNL     1      29.910  43.125  53.663  1.00  0.00     0.037 A 
ENDBRANCH  22  23
ENDBRANCH  21  22
ENDBRANCH   4  21
TORSDOF 8
ENDMDL
MODEL 7
REMARK VINA RESULT:      -9.5      2.156     11.403
REMARK  8 active torsions:
REMARK  status: ('A' for Active; 'I' for Inactive)
REMARK    1  A    between atoms: C_2  and  N_3 
REMARK    2  A    between atoms: C_2  and  C_26 
REMARK       I    between atoms: N_3  and  C_4 
REMARK    3  A    between atoms: C_4  and  C_5 
REMARK    4  A    between atoms: C_5  and  S_6 
REMARK    5  A    between atoms: S_6  and  C_7 
REMARK    6  A    between atoms: C_10  and  C_11 
REMARK    7  A    between atoms: C_11  and  O_12 
REMARK    8  A    between atoms: O_12  and  C_13 
ROOT
HETATM    1  C   UNL     1      25.897  48.595  49.303  1.00  0.00     0.191 A 
HETATM    2  N   UNL     1      24.579  48.785  48.994  1.00  0.00    -0.314 N 
HETATM    3  C   UNL     1      23.440  48.110  49.558  1.00  0.00     0.160 C 
HETATM    4  C   UNL     1      24.566  49.785  48.048  1.00  0.00     0.154 A 
HETATM    5  N   UNL     1      25.812  50.111  47.759  1.00  0.00    -0.132 NA
HETATM    6  N   UNL     1      26.644  49.352  48.536  1.00  0.00    -0.123 NA
ENDROOT
BRANCH   1   7
HETATM    7  S   UNL     1      26.468  47.576  50.576  1.00  0.00    -0.081 SA
BRANCH   7   8
HETATM    8  C   UNL     1      26.818  46.038  49.671  1.00  0.00     0.185 C 
BRANCH   8   9
HETATM    9  C   UNL     1      26.742  44.819  50.578  1.00  0.00     0.227 C 
HETATM   10  N   UNL     1      26.517  45.097  51.904  1.00  0.00    -0.352 N 
HETATM   11  H   UNL     1      26.340  46.065  52.175  1.00  0.00     0.163 HD
HETATM   12  O   UNL     1      26.902  43.678  50.149  1.00  0.00    -0.273 OA
BRANCH  10  13
HETATM   13  C   UNL     1      26.452  44.088  52.947  1.00  0.00     0.113 C 
HETATM   14  C   UNL     1      25.305  44.341  53.932  1.00  0.00     0.037 C 
BRANCH  13  15
HETATM   15  C   UNL     1      27.794  44.015  53.656  1.00  0.00    -0.036 A 
HETATM   16  C   UNL     1      28.124  44.959  54.640  1.00  0.00     0.009 A 
HETATM   17  C   UNL     1      29.338  44.877  55.326  1.00  0.00     0.001 A 
HETATM   18  C   UNL     1      30.236  43.850  55.042  1.00  0.00     0.000 A 
HETATM   19  C   UNL     1      29.918  42.900  54.075  1.00  0.00     0.001 A 
HETATM   20  C   UNL     1      28.706  42.979  53.390  1.00  0.00     0.009 A 
ENDBRANCH  13  15
ENDBRANCH  10  13
ENDBRANCH   8   9
ENDBRANCH   7   8
ENDBRANCH   1   7
BRANCH   4  21
HETATM   21  C   UNL     1      23.347  50.431  47.493  1.00  0.00     0.256 C 
BRANCH  21  22
HETATM   22  O   UNL     1      22.599  50.937  48.597  1.00  0.00    -0.344 OA
BRANCH  22  23
HETATM   23  C   UNL     1      21.242  50.965  48.415  1.00  0.00     0.069 A 
HETATM   24  C   UNL     1      20.331  51.620  49.245  1.00  0.00     0.044 A 
HETATM   25  C   UNL     1      18.954  51.591  48.965  1.00  0.00    -0.049 A 
HETATM   26  C   UNL     1      18.487  50.865  47.856  1.00  0.00    -0.052 A 
HETATM   27  C   UNL     1      18.002  52.291  49.906  1.00  0.00     0.039 C 
HETATM   28  C   UNL     1      17.021  50.833  47.495  1.00  0.00     0.039 C 
HETATM   29  C   UNL     1      19.407  50.203  47.033  1.00  0.00     0.010 A 
HETATM   30  C   UNL     1      16.107  51.239  48.649  1.00  0.00     0.005 C 
HETATM   31  C   UNL     1      16.615  52.515  49.307  1.00  0.00     0.005 C 
HETATM   32  C   UNL     1      20.773  50.245  47.317  1.00  0.00     0.037 A 
ENDBRANCH  22  23
ENDBRANCH  21  22
ENDBRANCH   4  21
TORSDOF 8
ENDMDL
MODEL 8
REMARK VINA RESULT:      -9.2      1.806      2.447
REMARK  8 active torsions:
REMARK  status: ('A' for Active; 'I' for Inactive)
REMARK    1  A    between atoms: C_2  and  N_3 
REMARK    2  A    between atoms: C_2  and  C_26 
REMARK       I    between atoms: N_3  and  C_4 
REMARK    3  A    between atoms: C_4  and  C_5 
REMARK    4  A    between atoms: C_5  and  S_6 
REMARK    5  A    between atoms: S_6  and  C_7 
REMARK    6  A    between atoms: C_10  and  C_11 
REMARK    7  A    between atoms: C_11  and  O_12 
REMARK    8  A    between atoms: O_12  and  C_13 
ROOT
HETATM    1  C   UNL     1      23.753  47.092  49.599  1.00  0.00     0.191 A 
HETATM    2  N   UNL     1      24.387  45.943  49.978  1.00  0.00    -0.314 N 
HETATM    3  C   UNL     1      24.148  44.609  49.493  1.00  0.00     0.160 C 
HETATM    4  C   UNL     1      25.329  46.333  50.903  1.00  0.00     0.154 A 
HETATM    5  N   UNL     1      25.204  47.630  51.114  1.00  0.00    -0.132 NA
HETATM    6  N   UNL     1      24.205  48.100  50.306  1.00  0.00    -0.123 NA
ENDROOT
BRANCH   1   7
HETATM    7  S   UNL     1      22.600  47.199  48.317  1.00  0.00    -0.081 SA
BRANCH   7   8
HETATM    8  C   UNL     1      21.641  48.660  48.819  1.00  0.00     0.185 C 
BRANCH   8   9
HETATM    9  C   UNL     1      20.148  48.374  48.847  1.00  0.00     0.227 C 
HETATM   10  N   UNL     1      19.377  49.243  48.114  1.00  0.00    -0.352 N 
HETATM   11  H   UNL     1      19.847  49.952  47.551  1.00  0.00     0.163 HD
HETATM   12  O   UNL     1      19.676  47.450  49.507  1.00  0.00    -0.273 OA
BRANCH  10  13
HETATM   13  C   UNL     1      17.928  49.179  48.039  1.00  0.00     0.113 C 
HETATM   14  C   UNL     1      17.429  48.963  46.606  1.00  0.00     0.037 C 
BRANCH  13  15
HETATM   15  C   UNL     1      17.340  50.439  48.652  1.00  0.00    -0.036 A 
HETATM   16  C   UNL     1      18.142  51.284  49.434  1.00  0.00     0.009 A 
HETATM   17  C   UNL     1      17.622  52.465  49.969  1.00  0.00     0.001 A 
HETATM   18  C   UNL     1      16.296  52.820  49.727  1.00  0.00     0.000 A 
HETATM   19  C   UNL     1      15.490  51.997  48.945  1.00  0.00     0.001 A 
HETATM   20  C   UNL     1      16.008  50.818  48.409  1.00  0.00     0.009 A 
ENDBRANCH  13  15
ENDBRANCH  10  13
ENDBRANCH   8   9
ENDBRANCH   7   8
ENDBRANCH   1   7
BRANCH   4  21
HETATM   21  C   UNL     1      26.357  45.448  51.513  1.00  0.00     0.256 C 
BRANCH  21  22
HETATM   22  O   UNL     1      26.324  45.674  52.922  1.00  0.00    -0.344 OA
BRANCH  22  23
HETATM   23  C   UNL     1      27.379  45.147  53.618  1.00  0.00     0.069 A 
HETATM   24  C   UNL     1      27.964  45.719  54.749  1.00  0.00     0.044 A 
HETATM   25  C   UNL     1      29.043  45.092  55.395  1.00  0.00    -0.049 A 
HETATM   26  C   UNL     1      29.561  43.893  54.876  1.00  0.00    -0.052 A 
HETATM   27  C   UNL     1      29.663  45.761  56.599  1.00  0.00     0.039 C 
HETATM   28  C   UNL     1      30.696  43.165  55.554  1.00  0.00     0.039 C 
HETATM   29  C   UNL     1      28.974  43.330  53.735  1.00  0.00     0.010 A 
HETATM   30  C   UNL     1      31.488  44.047  56.517  1.00  0.00     0.005 C 
HETATM   31  C   UNL     1      30.544  44.826  57.424  1.00  0.00     0.005 C 
HETATM   32  C   UNL     1      27.898  43.958  53.106  1.00  0.00     0.037 A 
ENDBRANCH  22  23
ENDBRANCH  21  22
ENDBRANCH   4  21
TORSDOF 8
ENDMDL
MODEL 9
REMARK VINA RESULT:      -9.2     13.442     16.494
REMARK  8 active torsions:
REMARK  status: ('A' for Active; 'I' for Inactive)
REMARK    1  A    between atoms: C_2  and  N_3 
REMARK    2  A    between atoms: C_2  and  C_26 
REMARK       I    between atoms: N_3  and  C_4 
REMARK    3  A    between atoms: C_4  and  C_5 
REMARK    4  A    between atoms: C_5  and  S_6 
REMARK    5  A    between atoms: S_6  and  C_7 
REMARK    6  A    between atoms: C_10  and  C_11 
REMARK    7  A    between atoms: C_11  and  O_12 
REMARK    8  A    between atoms: O_12  and  C_13 
ROOT
HETATM    1  C   UNL     1      37.296  52.854  41.159  1.00  0.00     0.191 A 
HETATM    2  N   UNL     1      36.664  51.934  40.372  1.00  0.00    -0.314 N 
HETATM    3  C   UNL     1      36.984  50.538  40.225  1.00  0.00     0.160 C 
HETATM    4  C   UNL     1      35.631  52.616  39.768  1.00  0.00     0.154 A 
HETATM    5  N   UNL     1      35.700  53.885  40.121  1.00  0.00    -0.132 NA
HETATM    6  N   UNL     1      36.754  54.035  40.981  1.00  0.00    -0.123 NA
ENDROOT
BRANCH   1   7
HETATM    7  S   UNL     1      38.555  52.483  42.281  1.00  0.00    -0.081 SA
BRANCH   7   8
HETATM    8  C   UNL     1      37.622  51.653  43.603  1.00  0.00     0.185 C 
BRANCH   8   9
HETATM    9  C   UNL     1      36.198  52.177  43.704  1.00  0.00     0.227 C 
HETATM   10  N   UNL     1      35.228  51.308  43.267  1.00  0.00    -0.352 N 
HETATM   11  H   UNL     1      35.509  50.367  42.987  1.00  0.00     0.163 HD
HETATM   12  O   UNL     1      35.949  53.307  44.119  1.00  0.00    -0.273 OA
BRANCH  10  13
HETATM   13  C   UNL     1      33.811  51.621  43.233  1.00  0.00     0.113 C 
HETATM   14  C   UNL     1      33.269  52.013  44.612  1.00  0.00     0.037 C 
BRANCH  13  15
HETATM   15  C   UNL     1      33.052  50.442  42.648  1.00  0.00    -0.036 A 
HETATM   16  C   UNL     1      33.635  49.657  41.641  1.00  0.00     0.009 A 
HETATM   17  C   UNL     1      32.962  48.547  41.125  1.00  0.00     0.001 A 
HETATM   18  C   UNL     1      31.701  48.203  41.610  1.00  0.00     0.000 A 
HETATM   19  C   UNL     1      31.114  48.966  42.616  1.00  0.00     0.001 A 
HETATM   20  C   UNL     1      31.785  50.074  43.134  1.00  0.00     0.009 A 
ENDBRANCH  13  15
ENDBRANCH  10  13
ENDBRANCH   8   9
ENDBRANCH   7   8
ENDBRANCH   1   7
BRANCH   4  21
HETATM   21  C   UNL     1      34.579  52.007  38.912  1.00  0.00     0.256 C 
BRANCH  21  22
HETATM   22  O   UNL     1      33.438  52.861  38.975  1.00  0.00    -0.344 OA
BRANCH  22  23
HETATM   23  C   UNL     1      32.255  52.230  39.256  1.00  0.00     0.069 A 
HETATM   24  C   UNL     1      31.335  52.637  40.223  1.00  0.00     0.044 A 
HETATM   25  C   UNL     1      30.144  51.919  40.429  1.00  0.00    -0.049 A 
HETATM   26  C   UNL     1      29.894  50.759  39.675  1.00  0.00    -0.052 A 
HETATM   27  C   UNL     1      29.191  52.379  41.506  1.00  0.00     0.039 C 
HETATM   28  C   UNL     1      28.615  49.975  39.836  1.00  0.00     0.039 C 
HETATM   29  C   UNL     1      30.827  50.353  38.713  1.00  0.00     0.010 A 
HETATM   30  C   UNL     1      27.888  50.270  41.146  1.00  0.00     0.005 C 
HETATM   31  C   UNL     1      27.795  51.773  41.377  1.00  0.00     0.005 C 
HETATM   32  C   UNL     1      32.003  51.078  38.512  1.00  0.00     0.037 A 
ENDBRANCH  22  23
ENDBRANCH  21  22
ENDBRANCH   4  21
TORSDOF 8
ENDMDL
MODEL 10
REMARK VINA RESULT:      -9.2      2.227      3.263
REMARK  8 active torsions:
REMARK  status: ('A' for Active; 'I' for Inactive)
REMARK    1  A    between atoms: C_2  and  N_3 
REMARK    2  A    between atoms: C_2  and  C_26 
REMARK       I    between atoms: N_3  and  C_4 
REMARK    3  A    between atoms: C_4  and  C_5 
REMARK    4  A    between atoms: C_5  and  S_6 
REMARK    5  A    between atoms: S_6  and  C_7 
REMARK    6  A    between atoms: C_10  and  C_11 
REMARK    7  A    between atoms: C_11  and  O_12 
REMARK    8  A    between atoms: O_12  and  C_13 
ROOT
HETATM    1  C   UNL     1      24.019  47.577  49.707  1.00  0.00     0.191 A 
HETATM    2  N   UNL     1      24.046  46.222  49.880  1.00  0.00    -0.314 N 
HETATM    3  C   UNL     1      23.286  45.231  49.165  1.00  0.00     0.160 C 
HETATM    4  C   UNL     1      24.981  45.998  50.866  1.00  0.00     0.154 A 
HETATM    5  N   UNL     1      25.423  47.162  51.302  1.00  0.00    -0.132 NA
HETATM    6  N   UNL     1      24.807  48.150  50.585  1.00  0.00    -0.123 NA
ENDROOT
BRANCH   1   7
HETATM    7  S   UNL     1      23.146  48.387  48.457  1.00  0.00    -0.081 SA
BRANCH   7   8
HETATM    8  C   UNL     1      22.688  49.938  49.289  1.00  0.00     0.185 C 
BRANCH   8   9
HETATM    9  C   UNL     1      21.180  50.075  49.440  1.00  0.00     0.227 C 
HETATM   10  N   UNL     1      20.534  48.938  49.860  1.00  0.00    -0.352 N 
HETATM   11  H   UNL     1      21.097  48.125  50.114  1.00  0.00     0.163 HD
HETATM   12  O   UNL     1      20.593  51.121  49.172  1.00  0.00    -0.273 OA
BRANCH  10  13
HETATM   13  C   UNL     1      19.095  48.835  50.027  1.00  0.00     0.113 C 
HETATM   14  C   UNL     1      18.692  48.645  51.493  1.00  0.00     0.037 C 
BRANCH  13  15
HETATM   15  C   UNL     1      18.570  47.709  49.151  1.00  0.00    -0.036 A 
HETATM   16  C   UNL     1      17.252  47.744  48.672  1.00  0.00     0.009 A 
HETATM   17  C   UNL     1      16.773  46.735  47.833  1.00  0.00     0.001 A 
HETATM   18  C   UNL     1      17.604  45.680  47.460  1.00  0.00     0.000 A 
HETATM   19  C   UNL     1      18.918  45.637  47.919  1.00  0.00     0.001 A 
HETATM   20  C   UNL     1      19.399  46.644  48.756  1.00  0.00     0.009 A 
ENDBRANCH  13  15
ENDBRANCH  10  13
ENDBRANCH   8   9
ENDBRANCH   7   8
ENDBRANCH   1   7
BRANCH   4  21
HETATM   21  C   UNL     1      25.456  44.663  51.316  1.00  0.00     0.256 C 
BRANCH  21  22
HETATM   22  O   UNL     1      25.380  44.646  52.741  1.00  0.00    -0.344 OA
BRANCH  22  23
HETATM   23  C   UNL     1      26.564  44.398  53.383  1.00  0.00     0.069 A 
HETATM   24  C   UNL     1      27.226  45.291  54.227  1.00  0.00     0.044 A 
HETATM   25  C   UNL     1      28.438  44.934  54.843  1.00  0.00    -0.049 A 
HETATM   26  C   UNL     1      29.007  43.676  54.578  1.00  0.00    -0.052 A 
HETATM   27  C   UNL     1      29.133  45.942  55.726  1.00  0.00     0.039 C 
HETATM   28  C   UNL     1      30.288  43.234  55.242  1.00  0.00     0.039 C 
HETATM   29  C   UNL     1      28.341  42.789  53.722  1.00  0.00     0.010 A 
HETATM   30  C   UNL     1      31.100  44.393  55.815  1.00  0.00     0.005 C 
HETATM   31  C   UNL     1      30.205  45.324  56.622  1.00  0.00     0.005 C 
HETATM   32  C   UNL     1      27.134  43.152  53.122  1.00  0.00     0.037 A 
ENDBRANCH  22  23
ENDBRANCH  21  22
ENDBRANCH   4  21
TORSDOF 8
ENDMDL
