MODEL 1
REMARK VINA RESULT:      -8.2      0.000      0.000
REMARK  5 active torsions:
REMARK  status: ('A' for Active; 'I' for Inactive)
REMARK    1  A    between atoms: C_4  and  C_5 
REMARK    2  A    between atoms: C_11  and  C_12 
REMARK    3  A    between atoms: C_12  and  N_13 
REMARK    4  A    between atoms: C_16  and  C_17 
REMARK    5  A    between atoms: C_17  and  O_18 
ROOT
HETATM    1  N   UNL     1      21.358  46.779  48.529  1.00  0.00    -0.066 N 
HETATM    2  H   UNL     1      21.408  47.396  49.355  1.00  0.00     0.280 HD
HETATM    3  C   UNL     1      20.125  45.934  48.632  1.00  0.00     0.250 C 
HETATM    4  C   UNL     1      18.961  46.878  48.291  1.00  0.00     0.036 C 
HETATM    5  C   UNL     1      19.612  48.024  47.457  1.00  0.00     0.061 C 
HETATM    6  C   UNL     1      21.096  47.650  47.328  1.00  0.00     0.245 C 
HETATM    7  C   UNL     1      18.330  47.407  49.588  1.00  0.00     0.189 C 
HETATM    8  O   UNL     1      19.224  48.306  50.253  1.00  0.00    -0.350 OA
HETATM    9  C   UNL     1      19.314  49.454  49.508  1.00  0.00     0.075 A 
HETATM   10  C   UNL     1      19.462  49.374  48.119  1.00  0.00    -0.018 A 
HETATM   11  C   UNL     1      19.244  50.678  50.161  1.00  0.00     0.037 A 
HETATM   12  C   UNL     1      19.270  51.852  49.411  1.00  0.00     0.003 A 
HETATM   13  C   UNL     1      19.386  51.793  48.021  1.00  0.00     0.001 A 
HETATM   14  C   UNL     1      19.494  50.560  47.375  1.00  0.00     0.010 A 
ENDROOT
BRANCH   1  15
HETATM   15  C   UNL     1      22.623  45.974  48.467  1.00  0.00     0.277 C 
BRANCH  15  16
HETATM   16  C   UNL     1      23.559  46.253  49.581  1.00  0.00     0.016 A 
HETATM   17  C   UNL     1      24.145  47.507  49.942  1.00  0.00     0.096 A 
HETATM   18  N   UNL     1      24.899  47.377  51.041  1.00  0.00    -0.172 NA
HETATM   19  N   UNL     1      24.894  46.068  51.317  1.00  0.00    -0.284 N 
HETATM   20  C   UNL     1      25.703  45.560  52.400  1.00  0.00     0.179 C 
HETATM   21  C   UNL     1      24.075  45.351  50.494  1.00  0.00     0.123 A 
BRANCH  17  22
HETATM   22  C   UNL     1      23.988  48.812  49.303  1.00  0.00    -0.005 A 
HETATM   23  C   UNL     1      24.902  49.257  48.338  1.00  0.00     0.014 A 
HETATM   24  C   UNL     1      24.731  50.501  47.725  1.00  0.00     0.001 A 
HETATM   25  C   UNL     1      23.661  51.316  48.088  1.00  0.00     0.000 A 
HETATM   26  C   UNL     1      22.762  50.894  49.067  1.00  0.00     0.001 A 
HETATM   27  C   UNL     1      22.927  49.647  49.674  1.00  0.00     0.014 A 
ENDBRANCH  17  22
ENDBRANCH  15  16
ENDBRANCH   1  15
BRANCH   4  28
HETATM   28  C   UNL     1      17.889  46.134  47.488  1.00  0.00     0.178 C 
BRANCH  28  29
HETATM   29  O   UNL     1      17.152  45.292  48.363  1.00  0.00    -0.400 OA
HETATM   30  H   UNL     1      17.650  44.453  48.450  1.00  0.00     0.209 HD
ENDBRANCH  28  29
ENDBRANCH   4  28
TORSDOF 5
ENDMDL
MODEL 2
REMARK VINA RESULT:      -7.9      4.004      7.532
REMARK  5 active torsions:
REMARK  status: ('A' for Active; 'I' for Inactive)
REMARK    1  A    between atoms: C_4  and  C_5 
REMARK    2  A    between atoms: C_11  and  C_12 
REMARK    3  A    between atoms: C_12  and  N_13 
REMARK    4  A    between atoms: C_16  and  C_17 
REMARK    5  A    between atoms: C_17  and  O_18 
ROOT
HETATM    1  N   UNL     1      25.395  45.549  52.133  1.00  0.00    -0.066 N 
HETATM    2  H   UNL     1      24.755  46.358  52.095  1.00  0.00     0.280 HD
HETATM    3  C   UNL     1      24.836  44.452  51.278  1.00  0.00     0.250 C 
HETATM    4  C   UNL     1      25.102  44.893  49.831  1.00  0.00     0.036 C 
HETATM    5  C   UNL     1      26.289  45.899  49.935  1.00  0.00     0.061 C 
HETATM    6  C   UNL     1      26.665  45.942  51.425  1.00  0.00     0.245 C 
HETATM    7  C   UNL     1      23.842  45.558  49.256  1.00  0.00     0.189 C 
HETATM    8  O   UNL     1      23.606  46.822  49.887  1.00  0.00    -0.350 OA
HETATM    9  C   UNL     1      24.583  47.695  49.481  1.00  0.00     0.075 A 
HETATM   10  C   UNL     1      25.918  47.280  49.444  1.00  0.00    -0.018 A 
HETATM   11  C   UNL     1      24.211  48.980  49.105  1.00  0.00     0.037 A 
HETATM   12  C   UNL     1      25.184  49.858  48.630  1.00  0.00     0.003 A 
HETATM   13  C   UNL     1      26.517  49.452  48.556  1.00  0.00     0.001 A 
HETATM   14  C   UNL     1      26.888  48.171  48.972  1.00  0.00     0.010 A 
ENDROOT
BRANCH   1  15
HETATM   15  C   UNL     1      25.565  45.152  53.570  1.00  0.00     0.277 C 
BRANCH  15  16
HETATM   16  C   UNL     1      26.234  46.185  54.395  1.00  0.00     0.016 A 
HETATM   17  C   UNL     1      27.531  46.123  54.996  1.00  0.00     0.096 A 
HETATM   18  N   UNL     1      27.815  47.271  55.624  1.00  0.00    -0.172 NA
HETATM   19  N   UNL     1      26.701  48.007  55.531  1.00  0.00    -0.284 N 
HETATM   20  C   UNL     1      26.629  49.286  56.198  1.00  0.00     0.179 C 
HETATM   21  C   UNL     1      25.733  47.418  54.771  1.00  0.00     0.123 A 
BRANCH  17  22
HETATM   22  C   UNL     1      28.506  45.036  54.966  1.00  0.00    -0.005 A 
HETATM   23  C   UNL     1      28.307  43.911  54.154  1.00  0.00     0.014 A 
HETATM   24  C   UNL     1      29.254  42.885  54.125  1.00  0.00     0.001 A 
HETATM   25  C   UNL     1      30.395  42.967  54.921  1.00  0.00     0.000 A 
HETATM   26  C   UNL     1      30.589  44.069  55.753  1.00  0.00     0.001 A 
HETATM   27  C   UNL     1      29.647  45.098  55.776  1.00  0.00     0.014 A 
ENDBRANCH  17  22
ENDBRANCH  15  16
ENDBRANCH   1  15
BRANCH   4  28
HETATM   28  C   UNL     1      25.462  43.683  48.962  1.00  0.00     0.178 C 
BRANCH  28  29
HETATM   29  O   UNL     1      26.853  43.421  49.082  1.00  0.00    -0.400 OA
HETATM   30  H   UNL     1      27.173  43.134  48.202  1.00  0.00     0.209 HD
ENDBRANCH  28  29
ENDBRANCH   4  28
TORSDOF 5
ENDMDL
MODEL 3
REMARK VINA RESULT:      -7.7      3.517      6.926
REMARK  5 active torsions:
REMARK  status: ('A' for Active; 'I' for Inactive)
REMARK    1  A    between atoms: C_4  and  C_5 
REMARK    2  A    between atoms: C_11  and  C_12 
REMARK    3  A    between atoms: C_12  and  N_13 
REMARK    4  A    between atoms: C_16  and  C_17 
REMARK    5  A    between atoms: C_17  and  O_18 
ROOT
HETATM    1  N   UNL     1      17.295  48.004  47.964  1.00  0.00    -0.066 N 
HETATM    2  H   UNL     1      17.672  48.748  47.356  1.00  0.00     0.280 HD
HETATM    3  C   UNL     1      17.926  46.700  47.578  1.00  0.00     0.250 C 
HETATM    4  C   UNL     1      19.354  46.762  48.141  1.00  0.00     0.036 C 
HETATM    5  C   UNL     1      19.282  47.809  49.294  1.00  0.00     0.061 C 
HETATM    6  C   UNL     1      17.812  48.253  49.357  1.00  0.00     0.245 C 
HETATM    7  C   UNL     1      20.325  47.201  47.033  1.00  0.00     0.189 C 
HETATM    8  O   UNL     1      20.108  48.575  46.689  1.00  0.00    -0.350 OA
HETATM    9  C   UNL     1      20.524  49.353  47.739  1.00  0.00     0.075 A 
HETATM   10  C   UNL     1      20.182  48.998  49.048  1.00  0.00    -0.018 A 
HETATM   11  C   UNL     1      21.292  50.479  47.469  1.00  0.00     0.037 A 
HETATM   12  C   UNL     1      21.775  51.243  48.529  1.00  0.00     0.003 A 
HETATM   13  C   UNL     1      21.471  50.888  49.844  1.00  0.00     0.001 A 
HETATM   14  C   UNL     1      20.668  49.776  50.106  1.00  0.00     0.010 A 
ENDROOT
BRANCH   1  15
HETATM   15  C   UNL     1      15.801  48.001  47.831  1.00  0.00     0.277 C 
BRANCH  15  16
HETATM   16  C   UNL     1      15.287  49.020  46.886  1.00  0.00     0.016 A 
HETATM   17  C   UNL     1      15.549  50.427  46.883  1.00  0.00     0.096 A 
HETATM   18  N   UNL     1      14.951  51.016  45.840  1.00  0.00    -0.172 NA
HETATM   19  N   UNL     1      14.237  50.049  45.253  1.00  0.00    -0.284 N 
HETATM   20  C   UNL     1      13.379  50.370  44.136  1.00  0.00     0.179 C 
HETATM   21  C   UNL     1      14.431  48.822  45.818  1.00  0.00     0.123 A 
BRANCH  17  22
HETATM   22  C   UNL     1      16.363  51.210  47.810  1.00  0.00    -0.005 A 
HETATM   23  C   UNL     1      15.887  51.541  49.086  1.00  0.00     0.014 A 
HETATM   24  C   UNL     1      16.681  52.280  49.966  1.00  0.00     0.001 A 
HETATM   25  C   UNL     1      17.946  52.710  49.570  1.00  0.00     0.000 A 
HETATM   26  C   UNL     1      18.417  52.410  48.292  1.00  0.00     0.001 A 
HETATM   27  C   UNL     1      17.628  51.664  47.415  1.00  0.00     0.014 A 
ENDBRANCH  17  22
ENDBRANCH  15  16
ENDBRANCH   1  15
BRANCH   4  28
HETATM   28  C   UNL     1      19.785  45.384  48.656  1.00  0.00     0.178 C 
BRANCH  28  29
HETATM   29  O   UNL     1      18.668  44.505  48.625  1.00  0.00    -0.400 OA
HETATM   30  H   UNL     1      18.520  44.256  47.689  1.00  0.00     0.209 HD
ENDBRANCH  28  29
ENDBRANCH   4  28
TORSDOF 5
ENDMDL
MODEL 4
REMARK VINA RESULT:      -7.7      5.500      8.923
REMARK  5 active torsions:
REMARK  status: ('A' for Active; 'I' for Inactive)
REMARK    1  A    between atoms: C_4  and  C_5 
REMARK    2  A    between atoms: C_11  and  C_12 
REMARK    3  A    between atoms: C_12  and  N_13 
REMARK    4  A    between atoms: C_16  and  C_17 
REMARK    5  A    between atoms: C_17  and  O_18 
ROOT
HETATM    1  N   UNL     1      26.381  44.264  52.644  1.00  0.00    -0.066 N 
HETATM    2  H   UNL     1      26.760  43.460  52.119  1.00  0.00     0.280 HD
HETATM    3  C   UNL     1      26.821  45.529  51.972  1.00  0.00     0.250 C 
HETATM    4  C   UNL     1      25.950  45.640  50.712  1.00  0.00     0.036 C 
HETATM    5  C   UNL     1      24.688  44.778  51.025  1.00  0.00     0.061 C 
HETATM    6  C   UNL     1      24.886  44.261  52.458  1.00  0.00     0.245 C 
HETATM    7  C   UNL     1      26.724  45.096  49.501  1.00  0.00     0.189 C 
HETATM    8  O   UNL     1      26.881  43.675  49.600  1.00  0.00    -0.350 OA
HETATM    9  C   UNL     1      25.652  43.093  49.420  1.00  0.00     0.075 A 
HETATM   10  C   UNL     1      24.528  43.622  50.064  1.00  0.00    -0.018 A 
HETATM   11  C   UNL     1      25.556  41.987  48.585  1.00  0.00     0.037 A 
HETATM   12  C   UNL     1      24.305  41.423  48.342  1.00  0.00     0.003 A 
HETATM   13  C   UNL     1      23.167  41.956  48.951  1.00  0.00     0.001 A 
HETATM   14  C   UNL     1      23.277  43.044  49.819  1.00  0.00     0.010 A 
ENDROOT
BRANCH   1  15
HETATM   15  C   UNL     1      26.845  44.156  54.067  1.00  0.00     0.277 C 
BRANCH  15  16
HETATM   16  C   UNL     1      27.072  45.468  54.718  1.00  0.00     0.016 A 
HETATM   17  C   UNL     1      28.172  45.860  55.544  1.00  0.00     0.096 A 
HETATM   18  N   UNL     1      28.056  47.143  55.907  1.00  0.00    -0.172 NA
HETATM   19  N   UNL     1      26.870  47.537  55.429  1.00  0.00    -0.284 N 
HETATM   20  C   UNL     1      26.380  48.862  55.731  1.00  0.00     0.179 C 
HETATM   21  C   UNL     1      26.253  46.582  54.675  1.00  0.00     0.123 A 
BRANCH  17  22
HETATM   22  C   UNL     1      29.328  45.073  55.967  1.00  0.00    -0.005 A 
HETATM   23  C   UNL     1      29.819  44.027  55.173  1.00  0.00     0.014 A 
HETATM   24  C   UNL     1      30.933  43.292  55.584  1.00  0.00     0.001 A 
HETATM   25  C   UNL     1      31.550  43.582  56.799  1.00  0.00     0.000 A 
HETATM   26  C   UNL     1      31.053  44.602  57.609  1.00  0.00     0.001 A 
HETATM   27  C   UNL     1      29.944  45.343  57.196  1.00  0.00     0.014 A 
ENDBRANCH  17  22
ENDBRANCH  15  16
ENDBRANCH   1  15
BRANCH   4  28
HETATM   28  C   UNL     1      25.581  47.103  50.445  1.00  0.00     0.178 C 
BRANCH  28  29
HETATM   29  O   UNL     1      24.669  47.543  51.441  1.00  0.00    -0.400 OA
HETATM   30  H   UNL     1      25.164  47.600  52.285  1.00  0.00     0.209 HD
ENDBRANCH  28  29
ENDBRANCH   4  28
TORSDOF 5
ENDMDL
MODEL 5
REMARK VINA RESULT:      -7.6      5.321      9.201
REMARK  5 active torsions:
REMARK  status: ('A' for Active; 'I' for Inactive)
REMARK    1  A    between atoms: C_4  and  C_5 
REMARK    2  A    between atoms: C_11  and  C_12 
REMARK    3  A    between atoms: C_12  and  N_13 
REMARK    4  A    between atoms: C_16  and  C_17 
REMARK    5  A    between atoms: C_17  and  O_18 
ROOT
HETATM    1  N   UNL     1      26.880  43.177  52.857  1.00  0.00    -0.066 N 
HETATM    2  H   UNL     1      25.851  43.211  52.937  1.00  0.00     0.280 HD
HETATM    3  C   UNL     1      27.271  41.870  52.235  1.00  0.00     0.250 C 
HETATM    4  C   UNL     1      26.925  42.014  50.746  1.00  0.00     0.036 C 
HETATM    5  C   UNL     1      26.909  43.552  50.489  1.00  0.00     0.061 C 
HETATM    6  C   UNL     1      27.289  44.199  51.829  1.00  0.00     0.245 C 
HETATM    7  C   UNL     1      25.554  41.377  50.471  1.00  0.00     0.189 C 
HETATM    8  O   UNL     1      24.509  42.153  51.069  1.00  0.00    -0.350 OA
HETATM    9  C   UNL     1      24.402  43.334  50.381  1.00  0.00     0.075 A 
HETATM   10  C   UNL     1      25.555  44.044  50.030  1.00  0.00    -0.018 A 
HETATM   11  C   UNL     1      23.135  43.792  50.038  1.00  0.00     0.037 A 
HETATM   12  C   UNL     1      23.014  44.957  49.284  1.00  0.00     0.003 A 
HETATM   13  C   UNL     1      24.154  45.664  48.898  1.00  0.00     0.001 A 
HETATM   14  C   UNL     1      25.422  45.218  49.278  1.00  0.00     0.010 A 
ENDROOT
BRANCH   1  15
HETATM   15  C   UNL     1      27.463  43.380  54.224  1.00  0.00     0.277 C 
BRANCH  15  16
HETATM   16  C   UNL     1      27.471  44.796  54.661  1.00  0.00     0.016 A 
HETATM   17  C   UNL     1      28.425  45.449  55.504  1.00  0.00     0.096 A 
HETATM   18  N   UNL     1      28.129  46.749  55.633  1.00  0.00    -0.172 NA
HETATM   19  N   UNL     1      26.966  46.909  54.991  1.00  0.00    -0.284 N 
HETATM   20  C   UNL     1      26.303  48.192  55.019  1.00  0.00     0.179 C 
HETATM   21  C   UNL     1      26.544  45.777  54.357  1.00  0.00     0.123 A 
BRANCH  17  22
HETATM   22  C   UNL     1      29.607  44.892  56.156  1.00  0.00    -0.005 A 
HETATM   23  C   UNL     1      30.364  43.885  55.540  1.00  0.00     0.014 A 
HETATM   24  C   UNL     1      31.500  43.371  56.169  1.00  0.00     0.001 A 
HETATM   25  C   UNL     1      31.876  43.844  57.425  1.00  0.00     0.000 A 
HETATM   26  C   UNL     1      31.114  44.825  58.058  1.00  0.00     0.001 A 
HETATM   27  C   UNL     1      29.983  45.345  57.427  1.00  0.00     0.014 A 
ENDBRANCH  17  22
ENDBRANCH  15  16
ENDBRANCH   1  15
BRANCH   4  28
HETATM   28  C   UNL     1      27.978  41.309  49.883  1.00  0.00     0.178 C 
BRANCH  28  29
HETATM   29  O   UNL     1      28.834  40.547  50.723  1.00  0.00    -0.400 OA
HETATM   30  H   UNL     1      29.754  40.822  50.529  1.00  0.00     0.209 HD
ENDBRANCH  28  29
ENDBRANCH   4  28
TORSDOF 5
ENDMDL
MODEL 6
REMARK VINA RESULT:      -7.4     10.289     13.261
REMARK  5 active torsions:
REMARK  status: ('A' for Active; 'I' for Inactive)
REMARK    1  A    between atoms: C_4  and  C_5 
REMARK    2  A    between atoms: C_11  and  C_12 
REMARK    3  A    between atoms: C_12  and  N_13 
REMARK    4  A    between atoms: C_16  and  C_17 
REMARK    5  A    between atoms: C_17  and  O_18 
ROOT
HETATM    1  N   UNL     1      28.138  50.871  39.155  1.00  0.00    -0.066 N 
HETATM    2  H   UNL     1      28.028  50.190  39.922  1.00  0.00     0.280 HD
HETATM    3  C   UNL     1      28.144  52.253  39.734  1.00  0.00     0.250 C 
HETATM    4  C   UNL     1      29.526  52.410  40.386  1.00  0.00     0.036 C 
HETATM    5  C   UNL     1      30.430  51.368  39.656  1.00  0.00     0.061 C 
HETATM    6  C   UNL     1      29.529  50.709  38.600  1.00  0.00     0.245 C 
HETATM    7  C   UNL     1      29.422  52.116  41.891  1.00  0.00     0.189 C 
HETATM    8  O   UNL     1      29.171  50.724  42.117  1.00  0.00    -0.350 OA
HETATM    9  C   UNL     1      30.300  50.022  41.781  1.00  0.00     0.075 A 
HETATM   10  C   UNL     1      30.986  50.328  40.601  1.00  0.00    -0.018 A 
HETATM   11  C   UNL     1      30.742  49.024  42.640  1.00  0.00     0.037 A 
HETATM   12  C   UNL     1      31.923  48.345  42.344  1.00  0.00     0.003 A 
HETATM   13  C   UNL     1      32.639  48.657  41.186  1.00  0.00     0.001 A 
HETATM   14  C   UNL     1      32.168  49.636  40.309  1.00  0.00     0.010 A 
ENDROOT
BRANCH   1  15
HETATM   15  C   UNL     1      27.030  50.648  38.167  1.00  0.00     0.277 C 
BRANCH  15  16
HETATM   16  C   UNL     1      26.011  49.677  38.629  1.00  0.00     0.016 A 
HETATM   17  C   UNL     1      26.201  48.300  38.970  1.00  0.00     0.096 A 
HETATM   18  N   UNL     1      25.054  47.757  39.396  1.00  0.00    -0.172 NA
HETATM   19  N   UNL     1      24.131  48.712  39.230  1.00  0.00    -0.284 N 
HETATM   20  C   UNL     1      22.742  48.421  39.503  1.00  0.00     0.179 C 
HETATM   21  C   UNL     1      24.657  49.897  38.808  1.00  0.00     0.123 A 
BRANCH  17  22
HETATM   22  C   UNL     1      27.427  47.507  38.933  1.00  0.00    -0.005 A 
HETATM   23  C   UNL     1      27.767  46.755  37.800  1.00  0.00     0.014 A 
HETATM   24  C   UNL     1      28.948  46.011  37.775  1.00  0.00     0.001 A 
HETATM   25  C   UNL     1      29.787  45.997  38.887  1.00  0.00     0.000 A 
HETATM   26  C   UNL     1      29.444  46.719  40.030  1.00  0.00     0.001 A 
HETATM   27  C   UNL     1      28.267  47.469  40.053  1.00  0.00     0.014 A 
ENDBRANCH  17  22
ENDBRANCH  15  16
ENDBRANCH   1  15
BRANCH   4  28
HETATM   28  C   UNL     1      30.047  53.839  40.197  1.00  0.00     0.178 C 
BRANCH  28  29
HETATM   29  O   UNL     1      31.283  53.979  40.883  1.00  0.00    -0.400 OA
HETATM   30  H   UNL     1      31.503  54.933  40.895  1.00  0.00     0.209 HD
ENDBRANCH  28  29
ENDBRANCH   4  28
TORSDOF 5
ENDMDL
MODEL 7
REMARK VINA RESULT:      -7.4      4.821      8.219
REMARK  5 active torsions:
REMARK  status: ('A' for Active; 'I' for Inactive)
REMARK    1  A    between atoms: C_4  and  C_5 
REMARK    2  A    between atoms: C_11  and  C_12 
REMARK    3  A    between atoms: C_12  and  N_13 
REMARK    4  A    between atoms: C_16  and  C_17 
REMARK    5  A    between atoms: C_17  and  O_18 
ROOT
HETATM    1  N   UNL     1      26.160  44.396  51.975  1.00  0.00    -0.066 N 
HETATM    2  H   UNL     1      25.693  45.297  52.165  1.00  0.00     0.280 HD
HETATM    3  C   UNL     1      25.292  43.587  51.060  1.00  0.00     0.250 C 
HETATM    4  C   UNL     1      25.455  44.232  49.676  1.00  0.00     0.036 C 
HETATM    5  C   UNL     1      26.821  44.981  49.745  1.00  0.00     0.061 C 
HETATM    6  C   UNL     1      27.383  44.686  51.145  1.00  0.00     0.245 C 
HETATM    7  C   UNL     1      24.288  45.199  49.418  1.00  0.00     0.189 C 
HETATM    8  O   UNL     1      24.390  46.348  50.267  1.00  0.00    -0.350 OA
HETATM    9  C   UNL     1      25.461  47.098  49.852  1.00  0.00     0.075 A 
HETATM   10  C   UNL     1      26.671  46.471  49.540  1.00  0.00    -0.018 A 
HETATM   11  C   UNL     1      25.306  48.474  49.743  1.00  0.00     0.037 A 
HETATM   12  C   UNL     1      26.366  49.242  49.262  1.00  0.00     0.003 A 
HETATM   13  C   UNL     1      27.572  48.631  48.916  1.00  0.00     0.001 A 
HETATM   14  C   UNL     1      27.732  47.252  49.063  1.00  0.00     0.010 A 
ENDROOT
BRANCH   1  15
HETATM   15  C   UNL     1      26.429  43.721  53.288  1.00  0.00     0.277 C 
BRANCH  15  16
HETATM   16  C   UNL     1      27.497  42.696  53.221  1.00  0.00     0.016 A 
HETATM   17  C   UNL     1      28.769  42.710  53.875  1.00  0.00     0.096 A 
HETATM   18  N   UNL     1      29.445  41.583  53.617  1.00  0.00    -0.172 NA
HETATM   19  N   UNL     1      28.689  40.914  52.739  1.00  0.00    -0.284 N 
HETATM   20  C   UNL     1      29.177  39.681  52.166  1.00  0.00     0.179 C 
HETATM   21  C   UNL     1      27.491  41.519  52.494  1.00  0.00     0.123 A 
BRANCH  17  22
HETATM   22  C   UNL     1      29.340  43.731  54.749  1.00  0.00    -0.005 A 
HETATM   23  C   UNL     1      28.736  44.989  54.881  1.00  0.00     0.014 A 
HETATM   24  C   UNL     1      29.286  45.951  55.731  1.00  0.00     0.001 A 
HETATM   25  C   UNL     1      30.453  45.671  56.438  1.00  0.00     0.000 A 
HETATM   26  C   UNL     1      31.078  44.433  56.293  1.00  0.00     0.001 A 
HETATM   27  C   UNL     1      30.525  43.468  55.450  1.00  0.00     0.014 A 
ENDBRANCH  17  22
ENDBRANCH  15  16
ENDBRANCH   1  15
BRANCH   4  28
HETATM   28  C   UNL     1      25.455  43.157  48.583  1.00  0.00     0.178 C 
BRANCH  28  29
HETATM   29  O   UNL     1      26.767  42.628  48.451  1.00  0.00    -0.400 OA
HETATM   30  H   UNL     1      27.043  42.310  49.334  1.00  0.00     0.209 HD
ENDBRANCH  28  29
ENDBRANCH   4  28
TORSDOF 5
ENDMDL
MODEL 8
REMARK VINA RESULT:      -7.4      5.221      7.650
REMARK  5 active torsions:
REMARK  status: ('A' for Active; 'I' for Inactive)
REMARK    1  A    between atoms: C_4  and  C_5 
REMARK    2  A    between atoms: C_11  and  C_12 
REMARK    3  A    between atoms: C_12  and  N_13 
REMARK    4  A    between atoms: C_16  and  C_17 
REMARK    5  A    between atoms: C_17  and  O_18 
ROOT
HETATM    1  N   UNL     1      26.401  43.757  52.284  1.00  0.00    -0.066 N 
HETATM    2  H   UNL     1      25.869  44.628  52.436  1.00  0.00     0.280 HD
HETATM    3  C   UNL     1      25.619  42.871  51.361  1.00  0.00     0.250 C 
HETATM    4  C   UNL     1      25.788  43.494  49.967  1.00  0.00     0.036 C 
HETATM    5  C   UNL     1      27.099  44.334  50.063  1.00  0.00     0.061 C 
HETATM    6  C   UNL     1      27.630  44.108  51.487  1.00  0.00     0.245 C 
HETATM    7  C   UNL     1      24.570  44.376  49.646  1.00  0.00     0.189 C 
HETATM    8  O   UNL     1      24.566  45.548  50.470  1.00  0.00    -0.350 OA
HETATM    9  C   UNL     1      25.600  46.357  50.072  1.00  0.00     0.075 A 
HETATM   10  C   UNL     1      26.859  45.805  49.816  1.00  0.00    -0.018 A 
HETATM   11  C   UNL     1      25.359  47.718  49.924  1.00  0.00     0.037 A 
HETATM   12  C   UNL     1      26.382  48.543  49.460  1.00  0.00     0.003 A 
HETATM   13  C   UNL     1      27.637  48.006  49.169  1.00  0.00     0.001 A 
HETATM   14  C   UNL     1      27.882  46.644  49.356  1.00  0.00     0.010 A 
ENDROOT
BRANCH   1  15
HETATM   15  C   UNL     1      26.667  43.130  53.621  1.00  0.00     0.277 C 
BRANCH  15  16
HETATM   16  C   UNL     1      27.936  43.576  54.243  1.00  0.00     0.016 A 
HETATM   17  C   UNL     1      28.261  44.877  54.740  1.00  0.00     0.096 A 
HETATM   18  N   UNL     1      29.486  44.884  55.280  1.00  0.00    -0.172 NA
HETATM   19  N   UNL     1      29.981  43.664  55.043  1.00  0.00    -0.284 N 
HETATM   20  C   UNL     1      31.343  43.359  55.412  1.00  0.00     0.179 C 
HETATM   21  C   UNL     1      29.078  42.825  54.456  1.00  0.00     0.123 A 
BRANCH  17  22
HETATM   22  C   UNL     1      27.444  46.088  54.744  1.00  0.00    -0.005 A 
HETATM   23  C   UNL     1      26.563  46.368  53.690  1.00  0.00     0.014 A 
HETATM   24  C   UNL     1      25.778  47.523  53.714  1.00  0.00     0.001 A 
HETATM   25  C   UNL     1      25.882  48.415  54.780  1.00  0.00     0.000 A 
HETATM   26  C   UNL     1      26.776  48.160  55.819  1.00  0.00     0.001 A 
HETATM   27  C   UNL     1      27.555  47.002  55.800  1.00  0.00     0.014 A 
ENDBRANCH  17  22
ENDBRANCH  15  16
ENDBRANCH   1  15
BRANCH   4  28
HETATM   28  C   UNL     1      25.897  42.397  48.902  1.00  0.00     0.178 C 
BRANCH  28  29
HETATM   29  O   UNL     1      27.239  42.328  48.441  1.00  0.00    -0.400 OA
HETATM   30  H   UNL     1      27.810  42.191  49.225  1.00  0.00     0.209 HD
ENDBRANCH  28  29
ENDBRANCH   4  28
TORSDOF 5
ENDMDL
MODEL 9
REMARK VINA RESULT:      -7.3     10.145     12.994
REMARK  5 active torsions:
REMARK  status: ('A' for Active; 'I' for Inactive)
REMARK    1  A    between atoms: C_4  and  C_5 
REMARK    2  A    between atoms: C_11  and  C_12 
REMARK    3  A    between atoms: C_12  and  N_13 
REMARK    4  A    between atoms: C_16  and  C_17 
REMARK    5  A    between atoms: C_17  and  O_18 
ROOT
HETATM    1  N   UNL     1      28.804  50.509  39.308  1.00  0.00    -0.066 N 
HETATM    2  H   UNL     1      28.885  50.267  40.308  1.00  0.00     0.280 HD
HETATM    3  C   UNL     1      28.125  51.840  39.188  1.00  0.00     0.250 C 
HETATM    4  C   UNL     1      29.188  52.872  39.595  1.00  0.00     0.036 C 
HETATM    5  C   UNL     1      30.551  52.151  39.360  1.00  0.00     0.061 C 
HETATM    6  C   UNL     1      30.195  50.769  38.791  1.00  0.00     0.245 C 
HETATM    7  C   UNL     1      28.995  53.257  41.070  1.00  0.00     0.189 C 
HETATM    8  O   UNL     1      29.339  52.161  41.926  1.00  0.00    -0.350 OA
HETATM    9  C   UNL     1      30.697  51.979  41.868  1.00  0.00     0.075 A 
HETATM   10  C   UNL     1      31.353  52.008  40.633  1.00  0.00    -0.018 A 
HETATM   11  C   UNL     1      31.392  51.779  43.054  1.00  0.00     0.037 A 
HETATM   12  C   UNL     1      32.780  51.656  43.018  1.00  0.00     0.003 A 
HETATM   13  C   UNL     1      33.456  51.713  41.798  1.00  0.00     0.001 A 
HETATM   14  C   UNL     1      32.747  51.878  40.606  1.00  0.00     0.010 A 
ENDROOT
BRANCH   1  15
HETATM   15  C   UNL     1      28.065  49.403  38.615  1.00  0.00     0.277 C 
BRANCH  15  16
HETATM   16  C   UNL     1      27.539  48.371  39.540  1.00  0.00     0.016 A 
HETATM   17  C   UNL     1      28.232  47.710  40.603  1.00  0.00     0.096 A 
HETATM   18  N   UNL     1      27.412  46.876  41.254  1.00  0.00    -0.172 NA
HETATM   19  N   UNL     1      26.262  46.909  40.570  1.00  0.00    -0.284 N 
HETATM   20  C   UNL     1      25.176  46.036  40.950  1.00  0.00     0.179 C 
HETATM   21  C   UNL     1      26.271  47.818  39.552  1.00  0.00     0.123 A 
BRANCH  17  22
HETATM   22  C   UNL     1      29.620  47.868  41.032  1.00  0.00    -0.005 A 
HETATM   23  C   UNL     1      29.930  48.426  42.279  1.00  0.00     0.014 A 
HETATM   24  C   UNL     1      31.261  48.559  42.682  1.00  0.00     0.001 A 
HETATM   25  C   UNL     1      32.289  48.153  41.834  1.00  0.00     0.000 A 
HETATM   26  C   UNL     1      31.992  47.622  40.580  1.00  0.00     0.001 A 
HETATM   27  C   UNL     1      30.662  47.482  40.180  1.00  0.00     0.014 A 
ENDBRANCH  17  22
ENDBRANCH  15  16
ENDBRANCH   1  15
BRANCH   4  28
HETATM   28  C   UNL     1      29.062  54.135  38.735  1.00  0.00     0.178 C 
BRANCH  28  29
HETATM   29  O   UNL     1      28.505  53.787  37.475  1.00  0.00    -0.400 OA
HETATM   30  H   UNL     1      28.147  52.879  37.555  1.00  0.00     0.209 HD
ENDBRANCH  28  29
ENDBRANCH   4  28
TORSDOF 5
ENDMDL
MODEL 10
REMARK VINA RESULT:      -7.3     22.114     24.365
REMARK  5 active torsions:
REMARK  status: ('A' for Active; 'I' for Inactive)
REMARK    1  A    between atoms: C_4  and  C_5 
REMARK    2  A    between atoms: C_11  and  C_12 
REMARK    3  A    between atoms: C_12  and  N_13 
REMARK    4  A    between atoms: C_16  and  C_17 
REMARK    5  A    between atoms: C_17  and  O_18 
ROOT
HETATM    1  N   UNL     1      39.309  46.348  66.674  1.00  0.00    -0.066 N 
HETATM    2  H   UNL     1      39.126  46.841  67.562  1.00  0.00     0.280 HD
HETATM    3  C   UNL     1      38.059  45.637  66.252  1.00  0.00     0.250 C 
HETATM    4  C   UNL     1      37.129  46.739  65.721  1.00  0.00     0.036 C 
HETATM    5  C   UNL     1      38.083  47.907  65.325  1.00  0.00     0.061 C 
HETATM    6  C   UNL     1      39.504  47.393  65.607  1.00  0.00     0.245 C 
HETATM    7  C   UNL     1      36.145  47.158  66.825  1.00  0.00     0.189 C 
HETATM    8  O   UNL     1      36.829  47.859  67.870  1.00  0.00    -0.350 OA
HETATM    9  C   UNL     1      37.226  49.079  67.383  1.00  0.00     0.075 A 
HETATM   10  C   UNL     1      37.811  49.166  66.115  1.00  0.00    -0.018 A 
HETATM   11  C   UNL     1      37.024  50.206  68.168  1.00  0.00     0.037 A 
HETATM   12  C   UNL     1      37.364  51.459  67.661  1.00  0.00     0.003 A 
HETATM   13  C   UNL     1      37.920  51.570  66.385  1.00  0.00     0.001 A 
HETATM   14  C   UNL     1      38.155  50.428  65.616  1.00  0.00     0.010 A 
ENDROOT
BRANCH   1  15
HETATM   15  C   UNL     1      40.474  45.425  66.881  1.00  0.00     0.277 C 
BRANCH  15  16
HETATM   16  C   UNL     1      41.492  45.505  65.808  1.00  0.00     0.016 A 
HETATM   17  C   UNL     1      41.475  44.858  64.532  1.00  0.00     0.096 A 
HETATM   18  N   UNL     1      42.545  45.213  63.808  1.00  0.00    -0.172 NA
HETATM   19  N   UNL     1      43.285  45.972  64.626  1.00  0.00    -0.284 N 
HETATM   20  C   UNL     1      44.577  46.447  64.188  1.00  0.00     0.179 C 
HETATM   21  C   UNL     1      42.682  46.210  65.826  1.00  0.00     0.123 A 
BRANCH  17  22
HETATM   22  C   UNL     1      40.474  43.952  63.975  1.00  0.00    -0.005 A 
HETATM   23  C   UNL     1      40.556  42.569  64.184  1.00  0.00     0.014 A 
HETATM   24  C   UNL     1      39.584  41.716  63.657  1.00  0.00     0.001 A 
HETATM   25  C   UNL     1      38.535  42.236  62.901  1.00  0.00     0.000 A 
HETATM   26  C   UNL     1      38.459  43.608  62.664  1.00  0.00     0.001 A 
HETATM   27  C   UNL     1      39.426  44.462  63.197  1.00  0.00     0.014 A 
ENDBRANCH  17  22
ENDBRANCH  15  16
ENDBRANCH   1  15
BRANCH   4  28
HETATM   28  C   UNL     1      36.330  46.228  64.517  1.00  0.00     0.178 C 
BRANCH  28  29
HETATM   29  O   UNL     1      36.828  46.840  63.335  1.00  0.00    -0.400 OA
HETATM   30  H   UNL     1      37.007  46.126  62.690  1.00  0.00     0.209 HD
ENDBRANCH  28  29
ENDBRANCH   4  28
TORSDOF 5
ENDMDL
