MODEL 1
REMARK VINA RESULT:      -9.3      0.000      0.000
REMARK  4 active torsions:
REMARK  status: ('A' for Active; 'I' for Inactive)
REMARK    1  A    between atoms: C_5  and  C_6 
REMARK    2  A    between atoms: C_14  and  C_15 
REMARK       I    between atoms: C_15  and  N_16 
REMARK    3  A    between atoms: N_16  and  C_17 
REMARK    4  A    between atoms: C_23  and  N_24 
ROOT
HETATM    1  C   UNL     1      23.979  47.206  49.880  1.00  0.00     0.262 C 
HETATM    2  N   UNL     1      24.168  46.188  50.784  1.00  0.00    -0.301 N 
HETATM    3  O   UNL     1      24.497  48.315  49.929  1.00  0.00    -0.267 OA
HETATM    4  H   UNL     1      23.585  45.369  50.777  1.00  0.00     0.171 HD
ENDROOT
BRANCH   1   5
HETATM    5  C   UNL     1      23.031  46.882  48.825  1.00  0.00     0.095 A 
HETATM    6  C   UNL     1      23.021  45.699  48.114  1.00  0.00     0.093 A 
HETATM    7  C   UNL     1      23.857  44.482  48.133  1.00  0.00     0.080 C 
HETATM    8  O   UNL     1      22.007  45.717  47.212  1.00  0.00    -0.217 OA
HETATM    9  N   UNL     1      21.312  46.903  47.320  1.00  0.00    -0.127 NA
HETATM   10  C   UNL     1      21.910  47.596  48.300  1.00  0.00     0.116 A 
BRANCH  10  11
HETATM   11  C   UNL     1      21.367  48.887  48.706  1.00  0.00     0.039 A 
HETATM   12  C   UNL     1      22.030  50.082  48.380  1.00  0.00     0.048 A 
HETATM   13 CL   UNL     1      23.506  50.104  47.479  1.00  0.00    -0.083 Cl
HETATM   14  C   UNL     1      21.498  51.319  48.764  1.00  0.00     0.025 A 
HETATM   15  C   UNL     1      20.303  51.379  49.478  1.00  0.00     0.003 A 
HETATM   16  C   UNL     1      19.633  50.203  49.804  1.00  0.00     0.025 A 
HETATM   17  C   UNL     1      20.158  48.964  49.420  1.00  0.00     0.048 A 
HETATM   18 CL   UNL     1      19.215  47.560  49.787  1.00  0.00    -0.083 Cl
ENDBRANCH  10  11
ENDBRANCH   1   5
BRANCH   2  19
HETATM   19  C   UNL     1      25.073  46.269  51.803  1.00  0.00     0.174 A 
HETATM   20  S   UNL     1      26.028  44.868  51.978  1.00  0.00    -0.050 SA
HETATM   21  C   UNL     1      26.846  45.604  53.306  1.00  0.00     0.039 A 
HETATM   22  C   UNL     1      26.320  46.885  53.502  1.00  0.00     0.077 A 
HETATM   23  C   UNL     1      27.874  45.083  54.112  1.00  0.00     0.057 A 
HETATM   24  N   UNL     1      25.315  47.250  52.627  1.00  0.00    -0.223 NA
HETATM   25  C   UNL     1      26.839  47.681  54.544  1.00  0.00     0.035 A 
HETATM   26  C   UNL     1      27.860  47.185  55.363  1.00  0.00     0.038 A 
HETATM   27  C   UNL     1      28.366  45.901  55.145  1.00  0.00     0.104 A 
BRANCH  27  28
HETATM   28  N   UNL     1      29.436  45.385  56.012  1.00  0.00    -0.116 N 
HETATM   29  O   UNL     1      29.615  45.949  57.101  1.00  0.00    -0.532 OA
HETATM   30  O   UNL     1      30.095  44.420  55.602  1.00  0.00    -0.532 OA
ENDBRANCH  27  28
ENDBRANCH   2  19
TORSDOF 4
ENDMDL
MODEL 2
REMARK VINA RESULT:      -9.2      0.148      1.705
REMARK  4 active torsions:
REMARK  status: ('A' for Active; 'I' for Inactive)
REMARK    1  A    between atoms: C_5  and  C_6 
REMARK    2  A    between atoms: C_14  and  C_15 
REMARK       I    between atoms: C_15  and  N_16 
REMARK    3  A    between atoms: N_16  and  C_17 
REMARK    4  A    between atoms: C_23  and  N_24 
ROOT
HETATM    1  C   UNL     1      24.062  47.163  49.910  1.00  0.00     0.262 C 
HETATM    2  N   UNL     1      24.219  46.168  50.846  1.00  0.00    -0.301 N 
HETATM    3  O   UNL     1      24.595  48.265  49.937  1.00  0.00    -0.267 OA
HETATM    4  H   UNL     1      23.624  45.358  50.850  1.00  0.00     0.171 HD
ENDROOT
BRANCH   1   5
HETATM    5  C   UNL     1      23.129  46.823  48.847  1.00  0.00     0.095 A 
HETATM    6  C   UNL     1      23.119  45.623  48.164  1.00  0.00     0.093 A 
HETATM    7  C   UNL     1      23.944  44.400  48.225  1.00  0.00     0.080 C 
HETATM    8  O   UNL     1      22.121  45.629  47.244  1.00  0.00    -0.217 OA
HETATM    9  N   UNL     1      21.436  46.824  47.312  1.00  0.00    -0.127 NA
HETATM   10  C   UNL     1      22.024  47.534  48.286  1.00  0.00     0.116 A 
BRANCH  10  11
HETATM   11  C   UNL     1      21.486  48.840  48.652  1.00  0.00     0.039 A 
HETATM   12  C   UNL     1      20.270  48.948  49.347  1.00  0.00     0.048 A 
HETATM   13 CL   UNL     1      19.349  47.564  49.821  1.00  0.00    -0.083 Cl
HETATM   14  C   UNL     1      19.764  50.204  49.704  1.00  0.00     0.025 A 
HETATM   15  C   UNL     1      20.461  51.364  49.370  1.00  0.00     0.003 A 
HETATM   16  C   UNL     1      21.670  51.270  48.684  1.00  0.00     0.025 A 
HETATM   17  C   UNL     1      22.182  50.018  48.328  1.00  0.00     0.048 A 
HETATM   18 CL   UNL     1      23.732  49.989  47.558  1.00  0.00    -0.083 Cl
ENDBRANCH  10  11
ENDBRANCH   1   5
BRANCH   2  19
HETATM   19  C   UNL     1      25.106  46.265  51.879  1.00  0.00     0.174 A 
HETATM   20  S   UNL     1      26.096  44.889  52.057  1.00  0.00    -0.050 SA
HETATM   21  C   UNL     1      26.873  45.636  53.403  1.00  0.00     0.039 A 
HETATM   22  C   UNL     1      26.310  46.900  53.602  1.00  0.00     0.077 A 
HETATM   23  C   UNL     1      27.903  45.136  54.220  1.00  0.00     0.057 A 
HETATM   24  N   UNL     1      25.308  47.245  52.715  1.00  0.00    -0.223 NA
HETATM   25  C   UNL     1      26.791  47.701  54.658  1.00  0.00     0.035 A 
HETATM   26  C   UNL     1      27.812  47.226  55.489  1.00  0.00     0.038 A 
HETATM   27  C   UNL     1      28.357  45.958  55.267  1.00  0.00     0.104 A 
BRANCH  27  28
HETATM   28  N   UNL     1      29.428  45.464  56.147  1.00  0.00    -0.116 N 
HETATM   29  O   UNL     1      29.512  45.955  57.281  1.00  0.00    -0.532 OA
HETATM   30  O   UNL     1      30.182  44.589  55.700  1.00  0.00    -0.532 OA
ENDBRANCH  27  28
ENDBRANCH   2  19
TORSDOF 4
ENDMDL
MODEL 3
REMARK VINA RESULT:      -9.2      2.330      3.101
REMARK  4 active torsions:
REMARK  status: ('A' for Active; 'I' for Inactive)
REMARK    1  A    between atoms: C_5  and  C_6 
REMARK    2  A    between atoms: C_14  and  C_15 
REMARK       I    between atoms: C_15  and  N_16 
REMARK    3  A    between atoms: N_16  and  C_17 
REMARK    4  A    between atoms: C_23  and  N_24 
ROOT
HETATM    1  C   UNL     1      23.925  47.794  49.513  1.00  0.00     0.262 C 
HETATM    2  N   UNL     1      25.048  48.035  50.268  1.00  0.00    -0.301 N 
HETATM    3  O   UNL     1      23.317  46.732  49.450  1.00  0.00    -0.267 OA
HETATM    4  H   UNL     1      25.591  48.873  50.143  1.00  0.00     0.171 HD
ENDROOT
BRANCH   1   5
HETATM    5  C   UNL     1      23.507  48.931  48.707  1.00  0.00     0.095 A 
HETATM    6  C   UNL     1      24.369  49.786  48.049  1.00  0.00     0.093 A 
HETATM    7  C   UNL     1      25.838  49.877  47.936  1.00  0.00     0.080 C 
HETATM    8  O   UNL     1      23.656  50.731  47.387  1.00  0.00    -0.217 OA
HETATM    9  N   UNL     1      22.308  50.511  47.575  1.00  0.00    -0.127 NA
HETATM   10  C   UNL     1      22.214  49.420  48.349  1.00  0.00     0.116 A 
BRANCH  10  11
HETATM   11  C   UNL     1      20.899  48.884  48.683  1.00  0.00     0.039 A 
HETATM   12  C   UNL     1      20.099  49.496  49.662  1.00  0.00     0.048 A 
HETATM   13 CL   UNL     1      20.604  50.913  50.515  1.00  0.00    -0.083 Cl
HETATM   14  C   UNL     1      18.834  48.981  49.971  1.00  0.00     0.025 A 
HETATM   15  C   UNL     1      18.355  47.852  49.312  1.00  0.00     0.003 A 
HETATM   16  C   UNL     1      19.136  47.237  48.336  1.00  0.00     0.025 A 
HETATM   17  C   UNL     1      20.399  47.749  48.021  1.00  0.00     0.048 A 
HETATM   18 CL   UNL     1      21.263  46.978  46.735  1.00  0.00    -0.083 Cl
ENDBRANCH  10  11
ENDBRANCH   1   5
BRANCH   2  19
HETATM   19  C   UNL     1      25.554  47.121  51.146  1.00  0.00     0.174 A 
HETATM   20  S   UNL     1      26.463  45.887  50.398  1.00  0.00    -0.050 SA
HETATM   21  C   UNL     1      26.751  45.177  51.943  1.00  0.00     0.039 A 
HETATM   22  C   UNL     1      26.129  45.961  52.920  1.00  0.00     0.077 A 
HETATM   23  C   UNL     1      27.474  44.014  52.261  1.00  0.00     0.057 A 
HETATM   24  N   UNL     1      25.458  47.072  52.446  1.00  0.00    -0.223 NA
HETATM   25  C   UNL     1      26.230  45.570  54.271  1.00  0.00     0.035 A 
HETATM   26  C   UNL     1      26.939  44.413  54.615  1.00  0.00     0.038 A 
HETATM   27  C   UNL     1      27.551  43.649  53.617  1.00  0.00     0.104 A 
BRANCH  27  28
HETATM   28  N   UNL     1      28.293  42.434  53.986  1.00  0.00    -0.116 N 
HETATM   29  O   UNL     1      29.327  42.572  54.654  1.00  0.00    -0.532 OA
HETATM   30  O   UNL     1      27.838  41.345  53.607  1.00  0.00    -0.532 OA
ENDBRANCH  27  28
ENDBRANCH   2  19
TORSDOF 4
ENDMDL
MODEL 4
REMARK VINA RESULT:      -9.0      3.300      4.226
REMARK  4 active torsions:
REMARK  status: ('A' for Active; 'I' for Inactive)
REMARK    1  A    between atoms: C_5  and  C_6 
REMARK    2  A    between atoms: C_14  and  C_15 
REMARK       I    between atoms: C_15  and  N_16 
REMARK    3  A    between atoms: N_16  and  C_17 
REMARK    4  A    between atoms: C_23  and  N_24 
ROOT
HETATM    1  C   UNL     1      25.913  43.546  51.544  1.00  0.00     0.262 C 
HETATM    2  N   UNL     1      27.283  43.449  51.620  1.00  0.00    -0.301 N 
HETATM    3  O   UNL     1      25.160  43.809  52.473  1.00  0.00    -0.267 OA
HETATM    4  H   UNL     1      27.822  43.067  50.862  1.00  0.00     0.171 HD
ENDROOT
BRANCH   1   5
HETATM    5  C   UNL     1      25.379  43.250  50.223  1.00  0.00     0.095 A 
HETATM    6  C   UNL     1      25.343  41.993  49.655  1.00  0.00     0.093 A 
HETATM    7  C   UNL     1      25.782  40.654  50.094  1.00  0.00     0.080 C 
HETATM    8  O   UNL     1      24.778  42.066  48.423  1.00  0.00    -0.217 OA
HETATM    9  N   UNL     1      24.411  43.368  48.158  1.00  0.00    -0.127 NA
HETATM   10  C   UNL     1      24.751  44.078  49.243  1.00  0.00     0.116 A 
BRANCH  10  11
HETATM   11  C   UNL     1      24.434  45.500  49.303  1.00  0.00     0.039 A 
HETATM   12  C   UNL     1      25.449  46.458  49.465  1.00  0.00     0.048 A 
HETATM   13 CL   UNL     1      27.118  46.024  49.589  1.00  0.00    -0.083 Cl
HETATM   14  C   UNL     1      25.138  47.823  49.512  1.00  0.00     0.025 A 
HETATM   15  C   UNL     1      23.816  48.248  49.402  1.00  0.00     0.003 A 
HETATM   16  C   UNL     1      22.800  47.309  49.237  1.00  0.00     0.025 A 
HETATM   17  C   UNL     1      23.105  45.944  49.186  1.00  0.00     0.048 A 
HETATM   18 CL   UNL     1      21.793  44.854  48.888  1.00  0.00    -0.083 Cl
ENDBRANCH  10  11
ENDBRANCH   1   5
BRANCH   2  19
HETATM   19  C   UNL     1      27.980  43.760  52.752  1.00  0.00     0.174 A 
HETATM   20  S   UNL     1      29.118  42.572  53.199  1.00  0.00    -0.050 SA
HETATM   21  C   UNL     1      29.568  43.531  54.560  1.00  0.00     0.039 A 
HETATM   22  C   UNL     1      28.806  44.704  54.554  1.00  0.00     0.077 A 
HETATM   23  C   UNL     1      30.522  43.261  55.556  1.00  0.00     0.057 A 
HETATM   24  N   UNL     1      27.912  44.821  53.508  1.00  0.00    -0.223 NA
HETATM   25  C   UNL     1      29.003  45.648  55.583  1.00  0.00     0.035 A 
HETATM   26  C   UNL     1      29.944  45.402  56.590  1.00  0.00     0.038 A 
HETATM   27  C   UNL     1      30.691  44.220  56.571  1.00  0.00     0.104 A 
BRANCH  27  28
HETATM   28  N   UNL     1      31.675  43.967  57.634  1.00  0.00    -0.116 N 
HETATM   29  O   UNL     1      31.688  44.741  58.601  1.00  0.00    -0.532 OA
HETATM   30  O   UNL     1      32.433  42.996  57.498  1.00  0.00    -0.532 OA
ENDBRANCH  27  28
ENDBRANCH   2  19
TORSDOF 4
ENDMDL
MODEL 5
REMARK VINA RESULT:      -8.9      1.900      2.106
REMARK  4 active torsions:
REMARK  status: ('A' for Active; 'I' for Inactive)
REMARK    1  A    between atoms: C_5  and  C_6 
REMARK    2  A    between atoms: C_14  and  C_15 
REMARK       I    between atoms: C_15  and  N_16 
REMARK    3  A    between atoms: N_16  and  C_17 
REMARK    4  A    between atoms: C_23  and  N_24 
ROOT
HETATM    1  C   UNL     1      23.347  46.577  49.119  1.00  0.00     0.262 C 
HETATM    2  N   UNL     1      23.441  45.303  49.625  1.00  0.00    -0.301 N 
HETATM    3  O   UNL     1      23.990  47.549  49.496  1.00  0.00    -0.267 OA
HETATM    4  H   UNL     1      22.768  44.595  49.385  1.00  0.00     0.171 HD
ENDROOT
BRANCH   1   5
HETATM    5  C   UNL     1      22.340  46.719  48.078  1.00  0.00     0.095 A 
HETATM    6  C   UNL     1      22.140  45.820  47.051  1.00  0.00     0.093 A 
HETATM    7  C   UNL     1      22.786  44.553  46.654  1.00  0.00     0.080 C 
HETATM    8  O   UNL     1      21.122  46.247  46.261  1.00  0.00    -0.217 OA
HETATM    9  N   UNL     1      20.614  47.428  46.760  1.00  0.00    -0.127 NA
HETATM   10  C   UNL     1      21.328  47.704  47.861  1.00  0.00     0.116 A 
BRANCH  10  11
HETATM   11  C   UNL     1      20.991  48.874  48.665  1.00  0.00     0.039 A 
HETATM   12  C   UNL     1      21.760  50.046  48.588  1.00  0.00     0.048 A 
HETATM   13 CL   UNL     1      23.130  50.186  47.541  1.00  0.00    -0.083 Cl
HETATM   14  C   UNL     1      21.426  51.169  49.355  1.00  0.00     0.025 A 
HETATM   15  C   UNL     1      20.325  51.135  50.208  1.00  0.00     0.003 A 
HETATM   16  C   UNL     1      19.551  49.980  50.292  1.00  0.00     0.025 A 
HETATM   17  C   UNL     1      19.879  48.856  49.525  1.00  0.00     0.048 A 
HETATM   18 CL   UNL     1      18.812  47.496  49.622  1.00  0.00    -0.083 Cl
ENDBRANCH  10  11
ENDBRANCH   1   5
BRANCH   2  19
HETATM   19  C   UNL     1      24.376  44.948  50.555  1.00  0.00     0.174 A 
HETATM   20  S   UNL     1      25.913  44.630  49.889  1.00  0.00    -0.050 SA
HETATM   21  C   UNL     1      26.513  44.281  51.467  1.00  0.00     0.039 A 
HETATM   22  C   UNL     1      25.475  44.450  52.389  1.00  0.00     0.077 A 
HETATM   23  C   UNL     1      27.805  43.887  51.856  1.00  0.00     0.057 A 
HETATM   24  N   UNL     1      24.264  44.840  51.849  1.00  0.00    -0.223 NA
HETATM   25  C   UNL     1      25.734  44.216  53.756  1.00  0.00     0.035 A 
HETATM   26  C   UNL     1      27.011  43.818  54.169  1.00  0.00     0.038 A 
HETATM   27  C   UNL     1      28.029  43.657  53.225  1.00  0.00     0.104 A 
BRANCH  27  28
HETATM   28  N   UNL     1      29.368  43.236  53.667  1.00  0.00    -0.116 N 
HETATM   29  O   UNL     1      30.219  43.018  52.794  1.00  0.00    -0.532 OA
HETATM   30  O   UNL     1      29.562  43.123  54.886  1.00  0.00    -0.532 OA
ENDBRANCH  27  28
ENDBRANCH   2  19
TORSDOF 4
ENDMDL
MODEL 6
REMARK VINA RESULT:      -8.8      3.929      8.747
REMARK  4 active torsions:
REMARK  status: ('A' for Active; 'I' for Inactive)
REMARK    1  A    between atoms: C_5  and  C_6 
REMARK    2  A    between atoms: C_14  and  C_15 
REMARK       I    between atoms: C_15  and  N_16 
REMARK    3  A    between atoms: N_16  and  C_17 
REMARK    4  A    between atoms: C_23  and  N_24 
ROOT
HETATM    1  C   UNL     1      26.663  43.572  51.027  1.00  0.00     0.262 C 
HETATM    2  N   UNL     1      25.357  43.942  51.244  1.00  0.00    -0.301 N 
HETATM    3  O   UNL     1      27.399  44.017  50.154  1.00  0.00    -0.267 OA
HETATM    4  H   UNL     1      24.763  43.418  51.865  1.00  0.00     0.171 HD
ENDROOT
BRANCH   1   5
HETATM    5  C   UNL     1      27.129  42.521  51.918  1.00  0.00     0.095 A 
HETATM    6  C   UNL     1      27.165  41.179  51.599  1.00  0.00     0.093 A 
HETATM    7  C   UNL     1      26.784  40.396  50.406  1.00  0.00     0.080 C 
HETATM    8  O   UNL     1      27.657  40.473  52.648  1.00  0.00    -0.217 OA
HETATM    9  N   UNL     1      27.977  41.334  53.676  1.00  0.00    -0.127 NA
HETATM   10  C   UNL     1      27.682  42.565  53.235  1.00  0.00     0.116 A 
BRANCH  10  11
HETATM   11  C   UNL     1      27.967  43.721  54.078  1.00  0.00     0.039 A 
HETATM   12  C   UNL     1      26.925  44.498  54.611  1.00  0.00     0.048 A 
HETATM   13 CL   UNL     1      25.259  44.135  54.320  1.00  0.00    -0.083 Cl
HETATM   14  C   UNL     1      27.206  45.601  55.427  1.00  0.00     0.025 A 
HETATM   15  C   UNL     1      28.524  45.943  55.718  1.00  0.00     0.003 A 
HETATM   16  C   UNL     1      29.567  45.179  55.199  1.00  0.00     0.025 A 
HETATM   17  C   UNL     1      29.293  44.074  54.386  1.00  0.00     0.048 A 
HETATM   18 CL   UNL     1      30.643  43.128  53.859  1.00  0.00    -0.083 Cl
ENDBRANCH  10  11
ENDBRANCH   1   5
BRANCH   2  19
HETATM   19  C   UNL     1      24.758  44.961  50.562  1.00  0.00     0.174 A 
HETATM   20  S   UNL     1      25.388  46.499  50.942  1.00  0.00    -0.050 SA
HETATM   21  C   UNL     1      24.278  47.216  49.834  1.00  0.00     0.039 A 
HETATM   22  C   UNL     1      23.513  46.203  49.247  1.00  0.00     0.077 A 
HETATM   23  C   UNL     1      24.101  48.573  49.513  1.00  0.00     0.057 A 
HETATM   24  N   UNL     1      23.808  44.921  49.669  1.00  0.00    -0.223 NA
HETATM   25  C   UNL     1      22.529  46.556  48.301  1.00  0.00     0.035 A 
HETATM   26  C   UNL     1      22.329  47.901  47.965  1.00  0.00     0.038 A 
HETATM   27  C   UNL     1      23.109  48.892  48.569  1.00  0.00     0.104 A 
BRANCH  27  28
HETATM   28  N   UNL     1      22.891  50.303  48.213  1.00  0.00    -0.116 N 
HETATM   29  O   UNL     1      22.007  50.919  48.824  1.00  0.00    -0.532 OA
HETATM   30  O   UNL     1      23.604  50.789  47.324  1.00  0.00    -0.532 OA
ENDBRANCH  27  28
ENDBRANCH   2  19
TORSDOF 4
ENDMDL
MODEL 7
REMARK VINA RESULT:      -8.8      4.888      7.515
REMARK  4 active torsions:
REMARK  status: ('A' for Active; 'I' for Inactive)
REMARK    1  A    between atoms: C_5  and  C_6 
REMARK    2  A    between atoms: C_14  and  C_15 
REMARK       I    between atoms: C_15  and  N_16 
REMARK    3  A    between atoms: N_16  and  C_17 
REMARK    4  A    between atoms: C_23  and  N_24 
ROOT
HETATM    1  C   UNL     1      27.034  43.600  50.438  1.00  0.00     0.262 C 
HETATM    2  N   UNL     1      26.889  43.068  51.698  1.00  0.00    -0.301 N 
HETATM    3  O   UNL     1      27.779  44.522  50.130  1.00  0.00    -0.267 OA
HETATM    4  H   UNL     1      26.142  42.430  51.912  1.00  0.00     0.171 HD
ENDROOT
BRANCH   1   5
HETATM    5  C   UNL     1      26.159  42.997  49.445  1.00  0.00     0.095 A 
HETATM    6  C   UNL     1      25.044  43.608  48.906  1.00  0.00     0.093 A 
HETATM    7  C   UNL     1      24.390  44.916  49.110  1.00  0.00     0.080 C 
HETATM    8  O   UNL     1      24.458  42.777  48.008  1.00  0.00    -0.217 OA
HETATM    9  N   UNL     1      25.182  41.607  47.918  1.00  0.00    -0.127 NA
HETATM   10  C   UNL     1      26.214  41.743  48.762  1.00  0.00     0.116 A 
BRANCH  10  11
HETATM   11  C   UNL     1      27.215  40.686  48.854  1.00  0.00     0.039 A 
HETATM   12  C   UNL     1      27.303  39.876  49.998  1.00  0.00     0.048 A 
HETATM   13 CL   UNL     1      26.239  40.064  51.349  1.00  0.00    -0.083 Cl
HETATM   14  C   UNL     1      28.260  38.857  50.076  1.00  0.00     0.025 A 
HETATM   15  C   UNL     1      29.140  38.636  49.019  1.00  0.00     0.003 A 
HETATM   16  C   UNL     1      29.061  39.429  47.877  1.00  0.00     0.025 A 
HETATM   17  C   UNL     1      28.105  40.447  47.792  1.00  0.00     0.048 A 
HETATM   18 CL   UNL     1      28.018  41.325  46.303  1.00  0.00    -0.083 Cl
ENDBRANCH  10  11
ENDBRANCH   1   5
BRANCH   2  19
HETATM   19  C   UNL     1      27.672  43.447  52.750  1.00  0.00     0.174 A 
HETATM   20  S   UNL     1      28.730  42.223  53.288  1.00  0.00    -0.050 SA
HETATM   21  C   UNL     1      29.333  43.291  54.499  1.00  0.00     0.039 A 
HETATM   22  C   UNL     1      28.673  44.519  54.383  1.00  0.00     0.077 A 
HETATM   23  C   UNL     1      30.315  43.056  55.477  1.00  0.00     0.057 A 
HETATM   24  N   UNL     1      27.735  44.591  53.372  1.00  0.00    -0.223 NA
HETATM   25  C   UNL     1      29.005  45.556  55.280  1.00  0.00     0.035 A 
HETATM   26  C   UNL     1      29.976  45.347  56.266  1.00  0.00     0.038 A 
HETATM   27  C   UNL     1      30.619  44.109  56.358  1.00  0.00     0.104 A 
BRANCH  27  28
HETATM   28  N   UNL     1      31.637  43.897  57.399  1.00  0.00    -0.116 N 
HETATM   29  O   UNL     1      32.401  42.930  57.267  1.00  0.00    -0.532 OA
HETATM   30  O   UNL     1      31.669  44.696  58.345  1.00  0.00    -0.532 OA
ENDBRANCH  27  28
ENDBRANCH   2  19
TORSDOF 4
ENDMDL
MODEL 8
REMARK VINA RESULT:      -8.6     11.958     14.362
REMARK  4 active torsions:
REMARK  status: ('A' for Active; 'I' for Inactive)
REMARK    1  A    between atoms: C_5  and  C_6 
REMARK    2  A    between atoms: C_14  and  C_15 
REMARK       I    between atoms: C_15  and  N_16 
REMARK    3  A    between atoms: N_16  and  C_17 
REMARK    4  A    between atoms: C_23  and  N_24 
ROOT
HETATM    1  C   UNL     1      30.002  49.978  41.334  1.00  0.00     0.262 C 
HETATM    2  N   UNL     1      29.374  49.467  40.223  1.00  0.00    -0.301 N 
HETATM    3  O   UNL     1      30.283  49.356  42.350  1.00  0.00    -0.267 OA
HETATM    4  H   UNL     1      29.024  50.069  39.498  1.00  0.00     0.171 HD
ENDROOT
BRANCH   1   5
HETATM    5  C   UNL     1      30.283  51.403  41.242  1.00  0.00     0.095 A 
HETATM    6  C   UNL     1      29.321  52.393  41.218  1.00  0.00     0.093 A 
HETATM    7  C   UNL     1      27.845  52.393  41.255  1.00  0.00     0.080 C 
HETATM    8  O   UNL     1      29.919  53.608  41.133  1.00  0.00    -0.217 OA
HETATM    9  N   UNL     1      31.289  53.450  41.120  1.00  0.00    -0.127 NA
HETATM   10  C   UNL     1      31.511  52.131  41.205  1.00  0.00     0.116 A 
BRANCH  10  11
HETATM   11  C   UNL     1      32.881  51.634  41.278  1.00  0.00     0.039 A 
HETATM   12  C   UNL     1      33.503  51.416  42.518  1.00  0.00     0.048 A 
HETATM   13 CL   UNL     1      32.697  51.706  44.021  1.00  0.00    -0.083 Cl
HETATM   14  C   UNL     1      34.815  50.930  42.580  1.00  0.00     0.025 A 
HETATM   15  C   UNL     1      35.520  50.658  41.410  1.00  0.00     0.003 A 
HETATM   16  C   UNL     1      34.914  50.865  40.174  1.00  0.00     0.025 A 
HETATM   17  C   UNL     1      33.603  51.348  40.105  1.00  0.00     0.048 A 
HETATM   18 CL   UNL     1      32.896  51.491  38.532  1.00  0.00    -0.083 Cl
ENDBRANCH  10  11
ENDBRANCH   1   5
BRANCH   2  19
HETATM   19  C   UNL     1      29.093  48.138  40.084  1.00  0.00     0.174 A 
HETATM   20  S   UNL     1      30.109  47.339  38.972  1.00  0.00    -0.050 SA
HETATM   21  C   UNL     1      29.265  45.867  39.276  1.00  0.00     0.039 A 
HETATM   22  C   UNL     1      28.268  46.109  40.227  1.00  0.00     0.077 A 
HETATM   23  C   UNL     1      29.472  44.595  38.713  1.00  0.00     0.057 A 
HETATM   24  N   UNL     1      28.192  47.410  40.683  1.00  0.00    -0.223 NA
HETATM   25  C   UNL     1      27.442  45.040  40.633  1.00  0.00     0.035 A 
HETATM   26  C   UNL     1      27.625  43.765  40.085  1.00  0.00     0.038 A 
HETATM   27  C   UNL     1      28.629  43.552  39.136  1.00  0.00     0.104 A 
BRANCH  27  28
HETATM   28  N   UNL     1      28.813  42.210  38.563  1.00  0.00    -0.116 N 
HETATM   29  O   UNL     1      27.878  41.405  38.674  1.00  0.00    -0.532 OA
HETATM   30  O   UNL     1      29.892  41.966  38.004  1.00  0.00    -0.532 OA
ENDBRANCH  27  28
ENDBRANCH   2  19
TORSDOF 4
ENDMDL
MODEL 9
REMARK VINA RESULT:      -8.6     11.961     14.330
REMARK  4 active torsions:
REMARK  status: ('A' for Active; 'I' for Inactive)
REMARK    1  A    between atoms: C_5  and  C_6 
REMARK    2  A    between atoms: C_14  and  C_15 
REMARK       I    between atoms: C_15  and  N_16 
REMARK    3  A    between atoms: N_16  and  C_17 
REMARK    4  A    between atoms: C_23  and  N_24 
ROOT
HETATM    1  C   UNL     1      30.052  49.988  41.370  1.00  0.00     0.262 C 
HETATM    2  N   UNL     1      29.414  49.488  40.259  1.00  0.00    -0.301 N 
HETATM    3  O   UNL     1      30.334  49.356  42.380  1.00  0.00    -0.267 OA
HETATM    4  H   UNL     1      29.064  50.098  39.540  1.00  0.00     0.171 HD
ENDROOT
BRANCH   1   5
HETATM    5  C   UNL     1      30.342  51.411  41.286  1.00  0.00     0.095 A 
HETATM    6  C   UNL     1      29.388  52.408  41.273  1.00  0.00     0.093 A 
HETATM    7  C   UNL     1      27.912  52.418  41.317  1.00  0.00     0.080 C 
HETATM    8  O   UNL     1      29.994  53.619  41.194  1.00  0.00    -0.217 OA
HETATM    9  N   UNL     1      31.362  53.452  41.173  1.00  0.00    -0.127 NA
HETATM   10  C   UNL     1      31.576  52.130  41.249  1.00  0.00     0.116 A 
BRANCH  10  11
HETATM   11  C   UNL     1      32.942  51.623  41.311  1.00  0.00     0.039 A 
HETATM   12  C   UNL     1      33.663  51.350  40.137  1.00  0.00     0.048 A 
HETATM   13 CL   UNL     1      32.997  51.606  38.562  1.00  0.00    -0.083 Cl
HETATM   14  C   UNL     1      34.978  50.872  40.205  1.00  0.00     0.025 A 
HETATM   15  C   UNL     1      35.586  50.658  41.439  1.00  0.00     0.003 A 
HETATM   16  C   UNL     1      34.883  50.928  42.611  1.00  0.00     0.025 A 
HETATM   17  C   UNL     1      33.571  51.409  42.550  1.00  0.00     0.048 A 
HETATM   18 CL   UNL     1      32.805  51.802  44.052  1.00  0.00    -0.083 Cl
ENDBRANCH  10  11
ENDBRANCH   1   5
BRANCH   2  19
HETATM   19  C   UNL     1      29.122  48.162  40.112  1.00  0.00     0.174 A 
HETATM   20  S   UNL     1      30.151  47.356  39.018  1.00  0.00    -0.050 SA
HETATM   21  C   UNL     1      29.287  45.891  39.304  1.00  0.00     0.039 A 
HETATM   22  C   UNL     1      28.275  46.141  40.236  1.00  0.00     0.077 A 
HETATM   23  C   UNL     1      29.493  44.618  38.742  1.00  0.00     0.057 A 
HETATM   24  N   UNL     1      28.203  47.442  40.693  1.00  0.00    -0.223 NA
HETATM   25  C   UNL     1      27.432  45.080  40.625  1.00  0.00     0.035 A 
HETATM   26  C   UNL     1      27.612  43.804  40.078  1.00  0.00     0.038 A 
HETATM   27  C   UNL     1      28.632  43.583  39.148  1.00  0.00     0.104 A 
BRANCH  27  28
HETATM   28  N   UNL     1      28.813  42.240  38.575  1.00  0.00    -0.116 N 
HETATM   29  O   UNL     1      27.879  41.435  38.693  1.00  0.00    -0.532 OA
HETATM   30  O   UNL     1      29.888  41.995  38.011  1.00  0.00    -0.532 OA
ENDBRANCH  27  28
ENDBRANCH   2  19
TORSDOF 4
ENDMDL
MODEL 10
REMARK VINA RESULT:      -8.6      3.992      8.564
REMARK  4 active torsions:
REMARK  status: ('A' for Active; 'I' for Inactive)
REMARK    1  A    between atoms: C_5  and  C_6 
REMARK    2  A    between atoms: C_14  and  C_15 
REMARK       I    between atoms: C_15  and  N_16 
REMARK    3  A    between atoms: N_16  and  C_17 
REMARK    4  A    between atoms: C_23  and  N_24 
ROOT
HETATM    1  C   UNL     1      26.711  44.466  50.061  1.00  0.00     0.262 C 
HETATM    2  N   UNL     1      25.356  44.697  50.088  1.00  0.00    -0.301 N 
HETATM    3  O   UNL     1      27.560  45.226  49.612  1.00  0.00    -0.267 OA
HETATM    4  H   UNL     1      24.706  43.963  50.314  1.00  0.00     0.171 HD
ENDROOT
BRANCH   1   5
HETATM    5  C   UNL     1      27.092  43.162  50.584  1.00  0.00     0.095 A 
HETATM    6  C   UNL     1      27.145  42.002  49.838  1.00  0.00     0.093 A 
HETATM    7  C   UNL     1      26.862  41.674  48.427  1.00  0.00     0.080 C 
HETATM    8  O   UNL     1      27.541  40.971  50.626  1.00  0.00    -0.217 OA
HETATM    9  N   UNL     1      27.778  41.430  51.905  1.00  0.00    -0.127 NA
HETATM   10  C   UNL     1      27.530  42.747  51.879  1.00  0.00     0.116 A 
BRANCH  10  11
HETATM   11  C   UNL     1      27.751  43.547  53.079  1.00  0.00     0.039 A 
HETATM   12  C   UNL     1      29.045  43.733  53.592  1.00  0.00     0.048 A 
HETATM   13 CL   UNL     1      30.445  43.049  52.842  1.00  0.00    -0.083 Cl
HETATM   14  C   UNL     1      29.250  44.510  54.739  1.00  0.00     0.025 A 
HETATM   15  C   UNL     1      28.171  45.106  55.387  1.00  0.00     0.003 A 
HETATM   16  C   UNL     1      26.883  44.933  54.886  1.00  0.00     0.025 A 
HETATM   17  C   UNL     1      26.672  44.161  53.739  1.00  0.00     0.048 A 
HETATM   18 CL   UNL     1      25.052  44.072  53.135  1.00  0.00    -0.083 Cl
ENDBRANCH  10  11
ENDBRANCH   1   5
BRANCH   2  19
HETATM   19  C   UNL     1      24.806  45.888  49.710  1.00  0.00     0.174 A 
HETATM   20  S   UNL     1      23.145  45.784  49.339  1.00  0.00    -0.050 SA
HETATM   21  C   UNL     1      23.131  47.471  48.982  1.00  0.00     0.039 A 
HETATM   22  C   UNL     1      24.414  47.985  49.191  1.00  0.00     0.077 A 
HETATM   23  C   UNL     1      22.061  48.275  48.549  1.00  0.00     0.057 A 
HETATM   24  N   UNL     1      25.355  47.066  49.616  1.00  0.00    -0.223 NA
HETATM   25  C   UNL     1      24.644  49.357  48.959  1.00  0.00     0.035 A 
HETATM   26  C   UNL     1      23.598  50.179  48.524  1.00  0.00     0.038 A 
HETATM   27  C   UNL     1      22.324  49.637  48.323  1.00  0.00     0.104 A 
BRANCH  27  28
HETATM   28  N   UNL     1      21.231  50.507  47.862  1.00  0.00    -0.116 N 
HETATM   29  O   UNL     1      20.545  50.112  46.909  1.00  0.00    -0.532 OA
HETATM   30  O   UNL     1      21.063  51.582  48.454  1.00  0.00    -0.532 OA
ENDBRANCH  27  28
ENDBRANCH   2  19
TORSDOF 4
ENDMDL
