MODEL 1
REMARK VINA RESULT:      -9.1      0.000      0.000
REMARK  5 active torsions:
REMARK  status: ('A' for Active; 'I' for Inactive)
REMARK    1  A    between atoms: C_12  and  C_13 
REMARK    2  A    between atoms: C_13  and  N_14 
REMARK    3  A    between atoms: N_14  and  C_15 
REMARK    4  A    between atoms: C_16  and  O_17 
REMARK    5  A    between atoms: C_19  and  O_20 
ROOT
HETATM    1  C   UNL     1      32.087  43.397  57.107  1.00  0.00     0.049 C 
HETATM    2  C   UNL     1      30.920  44.022  56.391  1.00  0.00    -0.055 A 
HETATM    3  C   UNL     1      30.269  45.166  56.898  1.00  0.00    -0.054 A 
HETATM    4  C   UNL     1      30.734  45.841  58.160  1.00  0.00     0.049 C 
HETATM    5  C   UNL     1      29.187  45.714  56.190  1.00  0.00     0.037 A 
HETATM    6  C   UNL     1      28.740  45.115  55.014  1.00  0.00     0.045 A 
HETATM    7  C   UNL     1      29.362  43.967  54.519  1.00  0.00    -0.008 A 
HETATM    8  C   UNL     1      30.447  43.424  55.209  1.00  0.00     0.021 A 
HETATM    9  N   UNL     1      27.657  45.661  54.315  1.00  0.00    -0.322 N 
HETATM   10  C   UNL     1      27.160  45.134  53.153  1.00  0.00     0.253 A 
HETATM   11  O   UNL     1      26.216  45.658  52.567  1.00  0.00    -0.268 OA
HETATM   12  C   UNL     1      27.815  43.901  52.629  1.00  0.00     0.024 A 
HETATM   13  C   UNL     1      28.853  43.358  53.290  1.00  0.00     0.027 A 
HETATM   14  H   UNL     1      27.202  46.498  54.655  1.00  0.00     0.169 HD
ENDROOT
BRANCH  12  15
HETATM   15  C   UNL     1      27.219  43.305  51.390  1.00  0.00     0.136 C 
BRANCH  15  16
HETATM   16  N   UNL     1      25.895  42.777  51.722  1.00  0.00    -0.286 NA
HETATM   17  H   UNL     1      26.025  41.848  52.143  1.00  0.00     0.128 HD
BRANCH  16  18
HETATM   18  C   UNL     1      24.983  42.623  50.652  1.00  0.00     0.042 A 
HETATM   19  C   UNL     1      23.863  43.474  50.639  1.00  0.00     0.089 A 
HETATM   20  C   UNL     1      22.851  43.369  49.695  1.00  0.00     0.074 A 
HETATM   21  C   UNL     1      22.951  42.372  48.735  1.00  0.00     0.068 A 
HETATM   22  C   UNL     1      24.032  41.494  48.729  1.00  0.00     0.038 A 
HETATM   23  C   UNL     1      25.039  41.609  49.694  1.00  0.00     0.029 A 
BRANCH  19  24
HETATM   24  O   UNL     1      23.784  44.464  51.586  1.00  0.00    -0.359 OA
HETATM   25  H   UNL     1      24.048  44.004  52.411  1.00  0.00     0.218 HD
ENDBRANCH  19  24
BRANCH  21  26
HETATM   26  O   UNL     1      21.997  42.211  47.774  1.00  0.00    -0.361 OA
HETATM   27  H   UNL     1      22.140  41.351  47.344  1.00  0.00     0.217 HD
ENDBRANCH  21  26
ENDBRANCH  16  18
ENDBRANCH  15  16
ENDBRANCH  12  15
TORSDOF 5
ENDMDL
MODEL 2
REMARK VINA RESULT:      -9.1      3.470      4.459
REMARK  5 active torsions:
REMARK  status: ('A' for Active; 'I' for Inactive)
REMARK    1  A    between atoms: C_12  and  C_13 
REMARK    2  A    between atoms: C_13  and  N_14 
REMARK    3  A    between atoms: N_14  and  C_15 
REMARK    4  A    between atoms: C_16  and  O_17 
REMARK    5  A    between atoms: C_19  and  O_20 
ROOT
HETATM    1  C   UNL     1      29.836  45.955  57.173  1.00  0.00     0.049 C 
HETATM    2  C   UNL     1      29.508  45.191  55.918  1.00  0.00    -0.055 A 
HETATM    3  C   UNL     1      30.257  44.062  55.525  1.00  0.00    -0.054 A 
HETATM    4  C   UNL     1      31.395  43.542  56.361  1.00  0.00     0.049 C 
HETATM    5  C   UNL     1      29.909  43.380  54.347  1.00  0.00     0.037 A 
HETATM    6  C   UNL     1      28.855  43.834  53.558  1.00  0.00     0.045 A 
HETATM    7  C   UNL     1      28.125  44.966  53.925  1.00  0.00    -0.008 A 
HETATM    8  C   UNL     1      28.455  45.641  55.103  1.00  0.00     0.021 A 
HETATM    9  N   UNL     1      28.515  43.155  52.381  1.00  0.00    -0.322 N 
HETATM   10  C   UNL     1      27.493  43.535  51.553  1.00  0.00     0.253 A 
HETATM   11  O   UNL     1      27.223  42.899  50.538  1.00  0.00    -0.268 OA
HETATM   12  C   UNL     1      26.721  44.752  51.939  1.00  0.00     0.024 A 
HETATM   13  C   UNL     1      27.035  45.421  53.062  1.00  0.00     0.027 A 
HETATM   14  H   UNL     1      29.028  42.328  52.105  1.00  0.00     0.169 HD
ENDROOT
BRANCH  12  15
HETATM   15  C   UNL     1      25.645  45.187  50.990  1.00  0.00     0.136 C 
BRANCH  15  16
HETATM   16  N   UNL     1      25.238  46.547  51.345  1.00  0.00    -0.286 NA
HETATM   17  H   UNL     1      24.222  46.540  51.497  1.00  0.00     0.128 HD
BRANCH  16  18
HETATM   18  C   UNL     1      25.509  47.562  50.399  1.00  0.00     0.042 A 
HETATM   19  C   UNL     1      24.420  48.048  49.652  1.00  0.00     0.089 A 
HETATM   20  C   UNL     1      24.563  48.981  48.634  1.00  0.00     0.074 A 
HETATM   21  C   UNL     1      25.840  49.437  48.339  1.00  0.00     0.068 A 
HETATM   22  C   UNL     1      26.947  48.963  49.038  1.00  0.00     0.038 A 
HETATM   23  C   UNL     1      26.785  48.017  50.057  1.00  0.00     0.029 A 
BRANCH  19  24
HETATM   24  O   UNL     1      23.162  47.598  49.964  1.00  0.00    -0.359 OA
HETATM   25  H   UNL     1      23.285  47.190  50.848  1.00  0.00     0.218 HD
ENDBRANCH  19  24
BRANCH  21  26
HETATM   26  O   UNL     1      26.057  50.356  47.355  1.00  0.00    -0.361 OA
HETATM   27  H   UNL     1      26.912  50.158  46.937  1.00  0.00     0.217 HD
ENDBRANCH  21  26
ENDBRANCH  16  18
ENDBRANCH  15  16
ENDBRANCH  12  15
TORSDOF 5
ENDMDL
MODEL 3
REMARK VINA RESULT:      -9.1      3.637      4.576
REMARK  5 active torsions:
REMARK  status: ('A' for Active; 'I' for Inactive)
REMARK    1  A    between atoms: C_12  and  C_13 
REMARK    2  A    between atoms: C_13  and  N_14 
REMARK    3  A    between atoms: N_14  and  C_15 
REMARK    4  A    between atoms: C_16  and  O_17 
REMARK    5  A    between atoms: C_19  and  O_20 
ROOT
HETATM    1  C   UNL     1      30.449  46.008  57.924  1.00  0.00     0.049 C 
HETATM    2  C   UNL     1      29.899  45.428  56.649  1.00  0.00    -0.055 A 
HETATM    3  C   UNL     1      30.385  44.214  56.120  1.00  0.00    -0.054 A 
HETATM    4  C   UNL     1      31.450  43.419  56.826  1.00  0.00     0.049 C 
HETATM    5  C   UNL     1      29.836  43.712  54.928  1.00  0.00     0.037 A 
HETATM    6  C   UNL     1      28.843  44.423  54.258  1.00  0.00     0.045 A 
HETATM    7  C   UNL     1      28.375  45.639  54.760  1.00  0.00    -0.008 A 
HETATM    8  C   UNL     1      28.904  46.137  55.951  1.00  0.00     0.021 A 
HETATM    9  N   UNL     1      28.304  43.922  53.066  1.00  0.00    -0.322 N 
HETATM   10  C   UNL     1      27.325  44.558  52.350  1.00  0.00     0.253 A 
HETATM   11  O   UNL     1      26.872  44.072  51.317  1.00  0.00    -0.268 OA
HETATM   12  C   UNL     1      26.833  45.863  52.879  1.00  0.00     0.024 A 
HETATM   13  C   UNL     1      27.343  46.363  54.018  1.00  0.00     0.027 A 
HETATM   14  H   UNL     1      28.625  43.039  52.694  1.00  0.00     0.169 HD
ENDROOT
BRANCH  12  15
HETATM   15  C   UNL     1      25.805  46.573  52.050  1.00  0.00     0.136 C 
BRANCH  15  16
HETATM   16  N   UNL     1      26.383  46.846  50.733  1.00  0.00    -0.286 NA
HETATM   17  H   UNL     1      27.322  47.239  50.878  1.00  0.00     0.128 HD
BRANCH  16  18
HETATM   18  C   UNL     1      25.680  47.748  49.902  1.00  0.00     0.042 A 
HETATM   19  C   UNL     1      26.445  48.683  49.182  1.00  0.00     0.089 A 
HETATM   20  C   UNL     1      25.874  49.678  48.399  1.00  0.00     0.074 A 
HETATM   21  C   UNL     1      24.489  49.751  48.341  1.00  0.00     0.068 A 
HETATM   22  C   UNL     1      23.696  48.859  49.058  1.00  0.00     0.038 A 
HETATM   23  C   UNL     1      24.289  47.868  49.849  1.00  0.00     0.029 A 
BRANCH  19  24
HETATM   24  O   UNL     1      27.813  48.590  49.238  1.00  0.00    -0.359 OA
HETATM   25  H   UNL     1      28.019  47.940  48.534  1.00  0.00     0.218 HD
ENDBRANCH  19  24
BRANCH  21  26
HETATM   26  O   UNL     1      23.858  50.699  47.590  1.00  0.00    -0.361 OA
HETATM   27  H   UNL     1      23.627  50.304  46.733  1.00  0.00     0.217 HD
ENDBRANCH  21  26
ENDBRANCH  16  18
ENDBRANCH  15  16
ENDBRANCH  12  15
TORSDOF 5
ENDMDL
MODEL 4
REMARK VINA RESULT:      -8.9      2.674      3.838
REMARK  5 active torsions:
REMARK  status: ('A' for Active; 'I' for Inactive)
REMARK    1  A    between atoms: C_12  and  C_13 
REMARK    2  A    between atoms: C_13  and  N_14 
REMARK    3  A    between atoms: N_14  and  C_15 
REMARK    4  A    between atoms: C_16  and  O_17 
REMARK    5  A    between atoms: C_19  and  O_20 
ROOT
HETATM    1  C   UNL     1      29.372  46.002  56.328  1.00  0.00     0.049 C 
HETATM    2  C   UNL     1      29.381  44.860  55.347  1.00  0.00    -0.055 A 
HETATM    3  C   UNL     1      30.320  43.811  55.443  1.00  0.00    -0.054 A 
HETATM    4  C   UNL     1      31.334  43.762  56.554  1.00  0.00     0.049 C 
HETATM    5  C   UNL     1      30.284  42.766  54.505  1.00  0.00     0.037 A 
HETATM    6  C   UNL     1      29.350  42.781  53.471  1.00  0.00     0.045 A 
HETATM    7  C   UNL     1      28.434  43.828  53.353  1.00  0.00    -0.008 A 
HETATM    8  C   UNL     1      28.454  44.863  54.290  1.00  0.00     0.021 A 
HETATM    9  N   UNL     1      29.323  41.740  52.535  1.00  0.00    -0.322 N 
HETATM   10  C   UNL     1      28.436  41.680  51.493  1.00  0.00     0.253 A 
HETATM   11  O   UNL     1      28.440  40.738  50.704  1.00  0.00    -0.268 OA
HETATM   12  C   UNL     1      27.465  42.804  51.358  1.00  0.00     0.024 A 
HETATM   13  C   UNL     1      27.480  43.816  52.244  1.00  0.00     0.027 A 
HETATM   14  H   UNL     1      29.973  40.969  52.612  1.00  0.00     0.169 HD
ENDROOT
BRANCH  12  15
HETATM   15  C   UNL     1      26.544  42.751  50.178  1.00  0.00     0.136 C 
BRANCH  15  16
HETATM   16  N   UNL     1      26.822  43.907  49.323  1.00  0.00    -0.286 NA
HETATM   17  H   UNL     1      27.786  44.209  49.509  1.00  0.00     0.128 HD
BRANCH  16  18
HETATM   18  C   UNL     1      25.993  45.040  49.492  1.00  0.00     0.042 A 
HETATM   19  C   UNL     1      26.625  46.296  49.524  1.00  0.00     0.089 A 
HETATM   20  C   UNL     1      25.938  47.477  49.769  1.00  0.00     0.074 A 
HETATM   21  C   UNL     1      24.572  47.404  50.005  1.00  0.00     0.068 A 
HETATM   22  C   UNL     1      23.913  46.177  50.007  1.00  0.00     0.038 A 
HETATM   23  C   UNL     1      24.624  44.995  49.765  1.00  0.00     0.029 A 
BRANCH  19  24
HETATM   24  O   UNL     1      27.973  46.355  49.275  1.00  0.00    -0.359 OA
HETATM   25  H   UNL     1      28.326  46.800  50.074  1.00  0.00     0.218 HD
ENDBRANCH  19  24
BRANCH  21  26
HETATM   26  O   UNL     1      23.831  48.522  50.250  1.00  0.00    -0.361 OA
HETATM   27  H   UNL     1      22.897  48.261  50.309  1.00  0.00     0.217 HD
ENDBRANCH  21  26
ENDBRANCH  16  18
ENDBRANCH  15  16
ENDBRANCH  12  15
TORSDOF 5
ENDMDL
MODEL 5
REMARK VINA RESULT:      -8.8      3.566      4.152
REMARK  5 active torsions:
REMARK  status: ('A' for Active; 'I' for Inactive)
REMARK    1  A    between atoms: C_12  and  C_13 
REMARK    2  A    between atoms: C_13  and  N_14 
REMARK    3  A    between atoms: N_14  and  C_15 
REMARK    4  A    between atoms: C_16  and  O_17 
REMARK    5  A    between atoms: C_19  and  O_20 
ROOT
HETATM    1  C   UNL     1      31.988  43.572  57.199  1.00  0.00     0.049 C 
HETATM    2  C   UNL     1      30.871  43.955  56.265  1.00  0.00    -0.055 A 
HETATM    3  C   UNL     1      30.058  45.081  56.510  1.00  0.00    -0.054 A 
HETATM    4  C   UNL     1      30.292  45.978  57.695  1.00  0.00     0.049 C 
HETATM    5  C   UNL     1      29.030  45.398  55.606  1.00  0.00     0.037 A 
HETATM    6  C   UNL     1      28.795  44.590  54.496  1.00  0.00     0.045 A 
HETATM    7  C   UNL     1      29.579  43.458  54.260  1.00  0.00    -0.008 A 
HETATM    8  C   UNL     1      30.612  43.144  55.146  1.00  0.00     0.021 A 
HETATM    9  N   UNL     1      27.765  44.907  53.602  1.00  0.00    -0.322 N 
HETATM   10  C   UNL     1      27.473  44.166  52.488  1.00  0.00     0.253 A 
HETATM   11  O   UNL     1      26.569  44.492  51.723  1.00  0.00    -0.268 OA
HETATM   12  C   UNL     1      28.301  42.950  52.242  1.00  0.00     0.024 A 
HETATM   13  C   UNL     1      29.291  42.626  53.092  1.00  0.00     0.027 A 
HETATM   14  H   UNL     1      27.195  45.728  53.753  1.00  0.00     0.169 HD
ENDROOT
BRANCH  12  15
HETATM   15  C   UNL     1      27.928  42.119  51.051  1.00  0.00     0.136 C 
BRANCH  15  16
HETATM   16  N   UNL     1      28.477  40.775  51.236  1.00  0.00    -0.286 NA
HETATM   17  H   UNL     1      29.448  40.875  51.557  1.00  0.00     0.128 HD
BRANCH  16  18
HETATM   18  C   UNL     1      28.501  39.934  50.099  1.00  0.00     0.042 A 
HETATM   19  C   UNL     1      29.103  38.672  50.250  1.00  0.00     0.089 A 
HETATM   20  C   UNL     1      29.268  37.787  49.193  1.00  0.00     0.074 A 
HETATM   21  C   UNL     1      28.829  38.178  47.936  1.00  0.00     0.068 A 
HETATM   22  C   UNL     1      28.249  39.429  47.741  1.00  0.00     0.038 A 
HETATM   23  C   UNL     1      28.098  40.312  48.817  1.00  0.00     0.029 A 
BRANCH  19  24
HETATM   24  O   UNL     1      29.520  38.292  51.501  1.00  0.00    -0.359 OA
HETATM   25  H   UNL     1      30.327  37.766  51.315  1.00  0.00     0.218 HD
ENDBRANCH  19  24
BRANCH  21  26
HETATM   26  O   UNL     1      28.954  37.361  46.852  1.00  0.00    -0.361 OA
HETATM   27  H   UNL     1      28.086  36.965  46.667  1.00  0.00     0.217 HD
ENDBRANCH  21  26
ENDBRANCH  16  18
ENDBRANCH  15  16
ENDBRANCH  12  15
TORSDOF 5
ENDMDL
MODEL 6
REMARK VINA RESULT:      -8.6      3.562      7.508
REMARK  5 active torsions:
REMARK  status: ('A' for Active; 'I' for Inactive)
REMARK    1  A    between atoms: C_12  and  C_13 
REMARK    2  A    between atoms: C_13  and  N_14 
REMARK    3  A    between atoms: N_14  and  C_15 
REMARK    4  A    between atoms: C_16  and  O_17 
REMARK    5  A    between atoms: C_19  and  O_20 
ROOT
HETATM    1  C   UNL     1      26.889  50.017  48.555  1.00  0.00     0.049 C 
HETATM    2  C   UNL     1      26.086  48.853  49.069  1.00  0.00    -0.055 A 
HETATM    3  C   UNL     1      24.675  48.882  49.092  1.00  0.00    -0.054 A 
HETATM    4  C   UNL     1      23.904  50.063  48.568  1.00  0.00     0.049 C 
HETATM    5  C   UNL     1      23.971  47.768  49.578  1.00  0.00     0.037 A 
HETATM    6  C   UNL     1      24.659  46.657  50.062  1.00  0.00     0.045 A 
HETATM    7  C   UNL     1      26.055  46.631  50.067  1.00  0.00    -0.008 A 
HETATM    8  C   UNL     1      26.763  47.728  49.573  1.00  0.00     0.021 A 
HETATM    9  N   UNL     1      23.953  45.551  50.551  1.00  0.00    -0.322 N 
HETATM   10  C   UNL     1      24.554  44.423  51.041  1.00  0.00     0.253 A 
HETATM   11  O   UNL     1      23.892  43.471  51.446  1.00  0.00    -0.268 OA
HETATM   12  C   UNL     1      26.046  44.398  51.059  1.00  0.00     0.024 A 
HETATM   13  C   UNL     1      26.742  45.453  50.598  1.00  0.00     0.027 A 
HETATM   14  H   UNL     1      22.942  45.551  50.546  1.00  0.00     0.169 HD
ENDROOT
BRANCH  12  15
HETATM   15  C   UNL     1      26.685  43.180  51.654  1.00  0.00     0.136 C 
BRANCH  15  16
HETATM   16  N   UNL     1      26.491  43.219  53.104  1.00  0.00    -0.286 NA
HETATM   17  H   UNL     1      25.809  43.960  53.309  1.00  0.00     0.128 HD
BRANCH  16  18
HETATM   18  C   UNL     1      27.635  43.477  53.894  1.00  0.00     0.042 A 
HETATM   19  C   UNL     1      27.734  44.754  54.476  1.00  0.00     0.089 A 
HETATM   20  C   UNL     1      28.845  45.164  55.202  1.00  0.00     0.074 A 
HETATM   21  C   UNL     1      29.901  44.275  55.342  1.00  0.00     0.068 A 
HETATM   22  C   UNL     1      29.851  43.010  54.761  1.00  0.00     0.038 A 
HETATM   23  C   UNL     1      28.726  42.617  54.026  1.00  0.00     0.029 A 
BRANCH  19  24
HETATM   24  O   UNL     1      26.677  45.618  54.340  1.00  0.00    -0.359 OA
HETATM   25  H   UNL     1      26.491  45.886  55.265  1.00  0.00     0.218 HD
ENDBRANCH  19  24
BRANCH  21  26
HETATM   26  O   UNL     1      31.022  44.606  56.044  1.00  0.00    -0.361 OA
HETATM   27  H   UNL     1      31.441  45.366  55.607  1.00  0.00     0.217 HD
ENDBRANCH  21  26
ENDBRANCH  16  18
ENDBRANCH  15  16
ENDBRANCH  12  15
TORSDOF 5
ENDMDL
MODEL 7
REMARK VINA RESULT:      -8.4      2.836      3.319
REMARK  5 active torsions:
REMARK  status: ('A' for Active; 'I' for Inactive)
REMARK    1  A    between atoms: C_12  and  C_13 
REMARK    2  A    between atoms: C_13  and  N_14 
REMARK    3  A    between atoms: N_14  and  C_15 
REMARK    4  A    between atoms: C_16  and  O_17 
REMARK    5  A    between atoms: C_19  and  O_20 
ROOT
HETATM    1  C   UNL     1      31.030  43.306  56.199  1.00  0.00     0.049 C 
HETATM    2  C   UNL     1      29.975  44.276  55.738  1.00  0.00    -0.055 A 
HETATM    3  C   UNL     1      29.755  45.499  56.406  1.00  0.00    -0.054 A 
HETATM    4  C   UNL     1      30.590  45.912  57.589  1.00  0.00     0.049 C 
HETATM    5  C   UNL     1      28.762  46.373  55.934  1.00  0.00     0.037 A 
HETATM    6  C   UNL     1      27.979  46.021  54.837  1.00  0.00     0.045 A 
HETATM    7  C   UNL     1      28.173  44.801  54.186  1.00  0.00    -0.008 A 
HETATM    8  C   UNL     1      29.168  43.933  54.639  1.00  0.00     0.021 A 
HETATM    9  N   UNL     1      26.986  46.893  54.374  1.00  0.00    -0.322 N 
HETATM   10  C   UNL     1      26.178  46.622  53.302  1.00  0.00     0.253 A 
HETATM   11  O   UNL     1      25.329  47.425  52.923  1.00  0.00    -0.268 OA
HETATM   12  C   UNL     1      26.375  45.313  52.613  1.00  0.00     0.024 A 
HETATM   13  C   UNL     1      27.321  44.461  53.047  1.00  0.00     0.027 A 
HETATM   14  H   UNL     1      26.839  47.784  54.828  1.00  0.00     0.169 HD
ENDROOT
BRANCH  12  15
HETATM   15  C   UNL     1      25.442  45.009  51.480  1.00  0.00     0.136 C 
BRANCH  15  16
HETATM   16  N   UNL     1      25.809  45.853  50.342  1.00  0.00    -0.286 NA
HETATM   17  H   UNL     1      26.416  46.605  50.692  1.00  0.00     0.128 HD
BRANCH  16  18
HETATM   18  C   UNL     1      24.749  46.470  49.638  1.00  0.00     0.042 A 
HETATM   19  C   UNL     1      24.769  47.874  49.554  1.00  0.00     0.089 A 
HETATM   20  C   UNL     1      23.746  48.607  48.967  1.00  0.00     0.074 A 
HETATM   21  C   UNL     1      22.656  47.916  48.456  1.00  0.00     0.068 A 
HETATM   22  C   UNL     1      22.587  46.528  48.541  1.00  0.00     0.038 A 
HETATM   23  C   UNL     1      23.624  45.806  49.144  1.00  0.00     0.029 A 
BRANCH  19  24
HETATM   24  O   UNL     1      25.859  48.543  50.051  1.00  0.00    -0.359 OA
HETATM   25  H   UNL     1      25.506  48.972  50.860  1.00  0.00     0.218 HD
ENDBRANCH  19  24
BRANCH  21  26
HETATM   26  O   UNL     1      21.616  48.568  47.862  1.00  0.00    -0.361 OA
HETATM   27  H   UNL     1      21.871  49.497  47.734  1.00  0.00     0.217 HD
ENDBRANCH  21  26
ENDBRANCH  16  18
ENDBRANCH  15  16
ENDBRANCH  12  15
TORSDOF 5
ENDMDL
MODEL 8
REMARK VINA RESULT:      -8.3      1.714      2.323
REMARK  5 active torsions:
REMARK  status: ('A' for Active; 'I' for Inactive)
REMARK    1  A    between atoms: C_12  and  C_13 
REMARK    2  A    between atoms: C_13  and  N_14 
REMARK    3  A    between atoms: N_14  and  C_15 
REMARK    4  A    between atoms: C_16  and  O_17 
REMARK    5  A    between atoms: C_19  and  O_20 
ROOT
HETATM    1  C   UNL     1      31.127  43.212  55.984  1.00  0.00     0.049 C 
HETATM    2  C   UNL     1      30.109  44.320  55.931  1.00  0.00    -0.055 A 
HETATM    3  C   UNL     1      29.994  45.267  56.970  1.00  0.00    -0.054 A 
HETATM    4  C   UNL     1      30.909  45.240  58.164  1.00  0.00     0.049 C 
HETATM    5  C   UNL     1      29.030  46.285  56.871  1.00  0.00     0.037 A 
HETATM    6  C   UNL     1      28.175  46.339  55.773  1.00  0.00     0.045 A 
HETATM    7  C   UNL     1      28.264  45.390  54.752  1.00  0.00    -0.008 A 
HETATM    8  C   UNL     1      29.229  44.384  54.836  1.00  0.00     0.021 A 
HETATM    9  N   UNL     1      27.212  47.351  55.682  1.00  0.00    -0.322 N 
HETATM   10  C   UNL     1      26.337  47.475  54.636  1.00  0.00     0.253 A 
HETATM   11  O   UNL     1      25.518  48.389  54.593  1.00  0.00    -0.268 OA
HETATM   12  C   UNL     1      26.423  46.454  53.551  1.00  0.00     0.024 A 
HETATM   13  C   UNL     1      27.338  45.471  53.623  1.00  0.00     0.027 A 
HETATM   14  H   UNL     1      27.140  48.051  56.408  1.00  0.00     0.169 HD
ENDROOT
BRANCH  12  15
HETATM   15  C   UNL     1      25.418  46.570  52.445  1.00  0.00     0.136 C 
BRANCH  15  16
HETATM   16  N   UNL     1      25.739  45.573  51.423  1.00  0.00    -0.286 NA
HETATM   17  H   UNL     1      26.441  45.984  50.794  1.00  0.00     0.128 HD
BRANCH  16  18
HETATM   18  C   UNL     1      24.671  45.123  50.613  1.00  0.00     0.042 A 
HETATM   19  C   UNL     1      24.172  43.834  50.872  1.00  0.00     0.089 A 
HETATM   20  C   UNL     1      23.184  43.241  50.097  1.00  0.00     0.074 A 
HETATM   21  C   UNL     1      22.684  43.953  49.016  1.00  0.00     0.068 A 
HETATM   22  C   UNL     1      23.169  45.222  48.712  1.00  0.00     0.038 A 
HETATM   23  C   UNL     1      24.171  45.801  49.500  1.00  0.00     0.029 A 
BRANCH  19  24
HETATM   24  O   UNL     1      24.665  43.147  51.952  1.00  0.00    -0.359 OA
HETATM   25  H   UNL     1      23.938  42.525  52.170  1.00  0.00     0.218 HD
ENDBRANCH  19  24
BRANCH  21  26
HETATM   26  O   UNL     1      21.711  43.437  48.212  1.00  0.00    -0.361 OA
HETATM   27  H   UNL     1      21.506  42.539  48.521  1.00  0.00     0.217 HD
ENDBRANCH  21  26
ENDBRANCH  16  18
ENDBRANCH  15  16
ENDBRANCH  12  15
TORSDOF 5
ENDMDL
MODEL 9
REMARK VINA RESULT:      -7.9      2.738      3.566
REMARK  5 active torsions:
REMARK  status: ('A' for Active; 'I' for Inactive)
REMARK    1  A    between atoms: C_12  and  C_13 
REMARK    2  A    between atoms: C_13  and  N_14 
REMARK    3  A    between atoms: N_14  and  C_15 
REMARK    4  A    between atoms: C_16  and  O_17 
REMARK    5  A    between atoms: C_19  and  O_20 
ROOT
HETATM    1  C   UNL     1      30.240  45.983  57.475  1.00  0.00     0.049 C 
HETATM    2  C   UNL     1      29.693  45.170  56.332  1.00  0.00    -0.055 A 
HETATM    3  C   UNL     1      30.364  44.025  55.853  1.00  0.00    -0.054 A 
HETATM    4  C   UNL     1      31.640  43.538  56.486  1.00  0.00     0.049 C 
HETATM    5  C   UNL     1      29.810  43.298  54.786  1.00  0.00     0.037 A 
HETATM    6  C   UNL     1      28.627  43.722  54.186  1.00  0.00     0.045 A 
HETATM    7  C   UNL     1      27.970  44.869  54.637  1.00  0.00    -0.008 A 
HETATM    8  C   UNL     1      28.506  45.589  55.707  1.00  0.00     0.021 A 
HETATM    9  N   UNL     1      28.082  42.998  53.118  1.00  0.00    -0.322 N 
HETATM   10  C   UNL     1      26.923  43.346  52.478  1.00  0.00     0.253 A 
HETATM   11  O   UNL     1      26.475  42.671  51.555  1.00  0.00    -0.268 OA
HETATM   12  C   UNL     1      26.227  44.578  52.951  1.00  0.00     0.024 A 
HETATM   13  C   UNL     1      26.738  45.291  53.971  1.00  0.00     0.027 A 
HETATM   14  H   UNL     1      28.540  42.160  52.786  1.00  0.00     0.169 HD
ENDROOT
BRANCH  12  15
HETATM   15  C   UNL     1      24.993  44.977  52.199  1.00  0.00     0.136 C 
BRANCH  15  16
HETATM   16  N   UNL     1      25.363  45.225  50.804  1.00  0.00    -0.286 NA
HETATM   17  H   UNL     1      26.342  45.537  50.791  1.00  0.00     0.128 HD
BRANCH  16  18
HETATM   18  C   UNL     1      24.609  46.198  50.108  1.00  0.00     0.042 A 
HETATM   19  C   UNL     1      23.562  45.733  49.292  1.00  0.00     0.089 A 
HETATM   20  C   UNL     1      22.802  46.575  48.491  1.00  0.00     0.074 A 
HETATM   21  C   UNL     1      23.104  47.929  48.493  1.00  0.00     0.068 A 
HETATM   22  C   UNL     1      24.149  48.426  49.268  1.00  0.00     0.038 A 
HETATM   23  C   UNL     1      24.910  47.561  50.064  1.00  0.00     0.029 A 
BRANCH  19  24
HETATM   24  O   UNL     1      23.265  44.393  49.311  1.00  0.00    -0.359 OA
HETATM   25  H   UNL     1      22.293  44.383  49.438  1.00  0.00     0.218 HD
ENDBRANCH  19  24
BRANCH  21  26
HETATM   26  O   UNL     1      22.399  48.816  47.735  1.00  0.00    -0.361 OA
HETATM   27  H   UNL     1      22.463  49.692  48.152  1.00  0.00     0.217 HD
ENDBRANCH  21  26
ENDBRANCH  16  18
ENDBRANCH  15  16
ENDBRANCH  12  15
TORSDOF 5
ENDMDL
MODEL 10
REMARK VINA RESULT:      -7.9      1.814      2.275
REMARK  5 active torsions:
REMARK  status: ('A' for Active; 'I' for Inactive)
REMARK    1  A    between atoms: C_12  and  C_13 
REMARK    2  A    between atoms: C_13  and  N_14 
REMARK    3  A    between atoms: N_14  and  C_15 
REMARK    4  A    between atoms: C_16  and  O_17 
REMARK    5  A    between atoms: C_19  and  O_20 
ROOT
HETATM    1  C   UNL     1      31.120  43.384  56.304  1.00  0.00     0.049 C 
HETATM    2  C   UNL     1      30.053  44.326  55.811  1.00  0.00    -0.055 A 
HETATM    3  C   UNL     1      29.752  45.522  56.495  1.00  0.00    -0.054 A 
HETATM    4  C   UNL     1      30.508  45.936  57.729  1.00  0.00     0.049 C 
HETATM    5  C   UNL     1      28.750  46.369  55.993  1.00  0.00     0.037 A 
HETATM    6  C   UNL     1      28.039  46.015  54.848  1.00  0.00     0.045 A 
HETATM    7  C   UNL     1      28.313  44.821  54.180  1.00  0.00    -0.008 A 
HETATM    8  C   UNL     1      29.317  43.980  54.664  1.00  0.00     0.021 A 
HETATM    9  N   UNL     1      27.037  46.860  54.355  1.00  0.00    -0.322 N 
HETATM   10  C   UNL     1      26.296  46.586  53.237  1.00  0.00     0.253 A 
HETATM   11  O   UNL     1      25.436  47.366  52.833  1.00  0.00    -0.268 OA
HETATM   12  C   UNL     1      26.579  45.304  52.529  1.00  0.00     0.024 A 
HETATM   13  C   UNL     1      27.534  44.477  52.991  1.00  0.00     0.027 A 
HETATM   14  H   UNL     1      26.832  47.733  54.822  1.00  0.00     0.169 HD
ENDROOT
BRANCH  12  15
HETATM   15  C   UNL     1      25.718  44.993  51.342  1.00  0.00     0.136 C 
BRANCH  15  16
HETATM   16  N   UNL     1      26.579  44.516  50.259  1.00  0.00    -0.286 NA
HETATM   17  H   UNL     1      26.357  45.065  49.419  1.00  0.00     0.128 HD
BRANCH  16  18
HETATM   18  C   UNL     1      26.462  43.152  49.906  1.00  0.00     0.042 A 
HETATM   19  C   UNL     1      25.486  42.820  48.950  1.00  0.00     0.089 A 
HETATM   20  C   UNL     1      25.211  41.510  48.578  1.00  0.00     0.074 A 
HETATM   21  C   UNL     1      25.927  40.492  49.192  1.00  0.00     0.068 A 
HETATM   22  C   UNL     1      26.885  40.778  50.161  1.00  0.00     0.038 A 
HETATM   23  C   UNL     1      27.143  42.104  50.528  1.00  0.00     0.029 A 
BRANCH  19  24
HETATM   24  O   UNL     1      24.795  43.838  48.341  1.00  0.00    -0.359 OA
HETATM   25  H   UNL     1      25.313  43.999  47.524  1.00  0.00     0.218 HD
ENDBRANCH  19  24
BRANCH  21  26
HETATM   26  O   UNL     1      25.715  39.183  48.876  1.00  0.00    -0.361 OA
HETATM   27  H   UNL     1      26.537  38.692  49.042  1.00  0.00     0.217 HD
ENDBRANCH  21  26
ENDBRANCH  16  18
ENDBRANCH  15  16
ENDBRANCH  12  15
TORSDOF 5
ENDMDL
