MODEL 1
REMARK VINA RESULT:      -8.3      0.000      0.000
REMARK  4 active torsions:
REMARK  status: ('A' for Active; 'I' for Inactive)
REMARK    1  A    between atoms: C_9  and  N_10 
REMARK    2  A    between atoms: N_10  and  C_12 
REMARK    3  A    between atoms: C_12  and  C_13 
REMARK    4  A    between atoms: C_14  and  C_15 
ROOT
HETATM    1  C   UNL     1      25.441  48.530  49.317  1.00  0.00     0.016 A 
HETATM    2  C   UNL     1      24.787  49.468  48.446  1.00  0.00     0.096 A 
HETATM    3  N   UNL     1      25.675  50.130  47.698  1.00  0.00    -0.174 NA
HETATM    4  N   UNL     1      26.868  49.714  48.123  1.00  0.00    -0.288 N 
HETATM    5  H   UNL     1      27.698  50.124  47.699  1.00  0.00     0.188 HD
HETATM    6  C   UNL     1      26.787  48.753  49.091  1.00  0.00     0.120 A 
ENDROOT
BRANCH   1   7
HETATM    7  C   UNL     1      24.743  47.587  50.233  1.00  0.00     0.277 C 
BRANCH   7   8
HETATM    8  N   UNL     1      25.530  46.654  51.134  1.00  0.00    -0.065 N 
HETATM    9  H   UNL     1      26.492  46.680  50.777  1.00  0.00     0.280 HD
HETATM   10  C   UNL     1      25.569  47.115  52.562  1.00  0.00     0.270 C 
BRANCH   8  11
HETATM   11  C   UNL     1      24.997  45.254  51.073  1.00  0.00     0.205 C 
HETATM   12  C   UNL     1      26.070  44.122  50.859  1.00  0.00     0.008 C 
HETATM   13  C   UNL     1      27.464  44.481  50.335  1.00  0.00     0.020 C 
HETATM   14  C   UNL     1      26.173  43.177  52.060  1.00  0.00     0.020 C 
HETATM   15  C   UNL     1      25.198  43.573  49.703  1.00  0.00     0.137 C 
HETATM   16  C   UNL     1      24.355  44.860  49.709  1.00  0.00     0.049 C 
HETATM   17  O   UNL     1      24.312  42.467  49.952  1.00  0.00    -0.385 OA
HETATM   18  C   UNL     1      22.921  44.314  49.772  1.00  0.00     0.035 C 
HETATM   19  C   UNL     1      23.029  42.829  49.436  1.00  0.00     0.168 C 
ENDBRANCH   8  11
ENDBRANCH   7   8
ENDBRANCH   1   7
BRANCH   2  20
HETATM   20  C   UNL     1      23.356  49.728  48.301  1.00  0.00    -0.002 A 
HETATM   21  C   UNL     1      22.488  48.717  47.866  1.00  0.00     0.053 A 
HETATM   22  C   UNL     1      21.125  48.979  47.726  1.00  0.00     0.103 A 
HETATM   23  C   UNL     1      20.619  50.250  48.002  1.00  0.00     0.102 A 
HETATM   24  O   UNL     1      20.343  47.933  47.303  1.00  0.00    -0.346 OA
HETATM   25  O   UNL     1      19.298  50.580  47.862  1.00  0.00    -0.346 OA
HETATM   26  C   UNL     1      21.470  51.251  48.464  1.00  0.00     0.040 A 
HETATM   27  C   UNL     1      18.572  49.586  47.128  1.00  0.00     0.202 C 
HETATM   28  C   UNL     1      18.957  48.186  47.579  1.00  0.00     0.202 C 
HETATM   29  C   UNL     1      22.834  50.991  48.616  1.00  0.00     0.017 A 
ENDBRANCH   2  20
TORSDOF 4
ENDMDL
MODEL 2
REMARK VINA RESULT:      -8.2      4.470      7.661
REMARK  4 active torsions:
REMARK  status: ('A' for Active; 'I' for Inactive)
REMARK    1  A    between atoms: C_9  and  N_10 
REMARK    2  A    between atoms: N_10  and  C_12 
REMARK    3  A    between atoms: C_12  and  C_13 
REMARK    4  A    between atoms: C_14  and  C_15 
ROOT
HETATM    1  C   UNL     1      27.837  42.160  52.898  1.00  0.00     0.016 A 
HETATM    2  C   UNL     1      27.434  42.453  51.549  1.00  0.00     0.096 A 
HETATM    3  N   UNL     1      28.023  41.624  50.681  1.00  0.00    -0.174 NA
HETATM    4  N   UNL     1      28.848  40.878  51.415  1.00  0.00    -0.288 N 
HETATM    5  H   UNL     1      29.427  40.191  50.938  1.00  0.00     0.188 HD
HETATM    6  C   UNL     1      28.776  41.156  52.751  1.00  0.00     0.120 A 
ENDROOT
BRANCH   1   7
HETATM    7  C   UNL     1      27.318  42.850  54.111  1.00  0.00     0.277 C 
BRANCH   7   8
HETATM    8  N   UNL     1      27.692  44.291  54.403  1.00  0.00    -0.065 N 
HETATM    9  H   UNL     1      28.186  44.618  53.565  1.00  0.00     0.280 HD
HETATM   10  C   UNL     1      26.498  45.178  54.597  1.00  0.00     0.270 C 
BRANCH   8  11
HETATM   11  C   UNL     1      28.591  44.391  55.599  1.00  0.00     0.205 C 
HETATM   12  C   UNL     1      29.000  45.850  56.027  1.00  0.00     0.008 C 
HETATM   13  C   UNL     1      28.834  47.010  55.040  1.00  0.00     0.020 C 
HETATM   14  C   UNL     1      28.452  46.233  57.406  1.00  0.00     0.020 C 
HETATM   15  C   UNL     1      30.477  45.384  56.047  1.00  0.00     0.137 C 
HETATM   16  C   UNL     1      30.092  44.088  55.314  1.00  0.00     0.049 C 
HETATM   17  O   UNL     1      31.084  45.017  57.299  1.00  0.00    -0.385 OA
HETATM   18  C   UNL     1      30.740  43.007  56.193  1.00  0.00     0.035 C 
HETATM   19  C   UNL     1      31.713  43.747  57.107  1.00  0.00     0.168 C 
ENDBRANCH   8  11
ENDBRANCH   7   8
ENDBRANCH   1   7
BRANCH   2  20
HETATM   20  C   UNL     1      26.501  43.475  51.081  1.00  0.00    -0.002 A 
HETATM   21  C   UNL     1      26.918  44.804  50.926  1.00  0.00     0.053 A 
HETATM   22  C   UNL     1      26.016  45.773  50.485  1.00  0.00     0.103 A 
HETATM   23  C   UNL     1      24.692  45.430  50.210  1.00  0.00     0.102 A 
HETATM   24  O   UNL     1      26.507  47.048  50.351  1.00  0.00    -0.346 OA
HETATM   25  O   UNL     1      23.750  46.335  49.797  1.00  0.00    -0.346 OA
HETATM   26  C   UNL     1      24.277  44.107  50.332  1.00  0.00     0.040 A 
HETATM   27  C   UNL     1      24.194  47.686  49.972  1.00  0.00     0.202 C 
HETATM   28  C   UNL     1      25.640  47.846  49.531  1.00  0.00     0.202 C 
HETATM   29  C   UNL     1      25.179  43.130  50.764  1.00  0.00     0.017 A 
ENDBRANCH   2  20
TORSDOF 4
ENDMDL
MODEL 3
REMARK VINA RESULT:      -8.1      1.945      2.994
REMARK  4 active torsions:
REMARK  status: ('A' for Active; 'I' for Inactive)
REMARK    1  A    between atoms: C_9  and  N_10 
REMARK    2  A    between atoms: N_10  and  C_12 
REMARK    3  A    between atoms: C_12  and  C_13 
REMARK    4  A    between atoms: C_14  and  C_15 
ROOT
HETATM    1  C   UNL     1      25.637  48.385  49.610  1.00  0.00     0.016 A 
HETATM    2  C   UNL     1      24.875  49.267  48.769  1.00  0.00     0.096 A 
HETATM    3  N   UNL     1      25.659  49.871  47.871  1.00  0.00    -0.174 NA
HETATM    4  N   UNL     1      26.898  49.476  48.166  1.00  0.00    -0.288 N 
HETATM    5  H   UNL     1      27.666  49.850  47.614  1.00  0.00     0.188 HD
HETATM    6  C   UNL     1      26.943  48.582  49.199  1.00  0.00     0.120 A 
ENDROOT
BRANCH   1   7
HETATM    7  C   UNL     1      25.063  47.510  50.670  1.00  0.00     0.277 C 
BRANCH   7   8
HETATM    8  N   UNL     1      25.531  46.076  50.830  1.00  0.00    -0.065 N 
HETATM    9  H   UNL     1      24.683  45.536  51.038  1.00  0.00     0.280 HD
HETATM   10  C   UNL     1      26.126  45.511  49.574  1.00  0.00     0.270 C 
BRANCH   8  11
HETATM   11  C   UNL     1      26.514  45.943  51.955  1.00  0.00     0.205 C 
HETATM   12  C   UNL     1      26.637  44.508  52.590  1.00  0.00     0.008 C 
HETATM   13  C   UNL     1      25.534  43.471  52.352  1.00  0.00     0.020 C 
HETATM   14  C   UNL     1      28.019  43.886  52.371  1.00  0.00     0.020 C 
HETATM   15  C   UNL     1      26.455  45.157  53.985  1.00  0.00     0.137 C 
HETATM   16  C   UNL     1      26.007  46.474  53.329  1.00  0.00     0.049 C 
HETATM   17  O   UNL     1      27.616  45.439  54.788  1.00  0.00    -0.385 OA
HETATM   18  C   UNL     1      26.904  47.510  54.023  1.00  0.00     0.035 C 
HETATM   19  C   UNL     1      27.504  46.794  55.231  1.00  0.00     0.168 C 
ENDBRANCH   8  11
ENDBRANCH   7   8
ENDBRANCH   1   7
BRANCH   2  20
HETATM   20  C   UNL     1      23.437  49.527  48.791  1.00  0.00    -0.002 A 
HETATM   21  C   UNL     1      22.521  48.466  48.803  1.00  0.00     0.053 A 
HETATM   22  C   UNL     1      21.151  48.728  48.817  1.00  0.00     0.103 A 
HETATM   23  C   UNL     1      20.683  50.042  48.805  1.00  0.00     0.102 A 
HETATM   24  O   UNL     1      20.321  47.634  48.837  1.00  0.00    -0.346 OA
HETATM   25  O   UNL     1      19.353  50.367  48.794  1.00  0.00    -0.346 OA
HETATM   26  C   UNL     1      21.587  51.101  48.824  1.00  0.00     0.040 A 
HETATM   27  C   UNL     1      18.527  49.235  48.495  1.00  0.00     0.202 C 
HETATM   28  C   UNL     1      18.998  48.003  49.251  1.00  0.00     0.202 C 
HETATM   29  C   UNL     1      22.960  50.846  48.819  1.00  0.00     0.017 A 
ENDBRANCH   2  20
TORSDOF 4
ENDMDL
MODEL 4
REMARK VINA RESULT:      -8.0      4.281      8.892
REMARK  4 active torsions:
REMARK  status: ('A' for Active; 'I' for Inactive)
REMARK    1  A    between atoms: C_9  and  N_10 
REMARK    2  A    between atoms: N_10  and  C_12 
REMARK    3  A    between atoms: C_12  and  C_13 
REMARK    4  A    between atoms: C_14  and  C_15 
ROOT
HETATM    1  C   UNL     1      28.030  41.489  50.843  1.00  0.00     0.016 A 
HETATM    2  C   UNL     1      28.493  41.578  52.202  1.00  0.00     0.096 A 
HETATM    3  N   UNL     1      29.120  40.457  52.571  1.00  0.00    -0.174 NA
HETATM    4  N   UNL     1      28.996  39.630  51.533  1.00  0.00    -0.288 N 
HETATM    5  H   UNL     1      29.383  38.692  51.618  1.00  0.00     0.188 HD
HETATM    6  C   UNL     1      28.353  40.197  50.469  1.00  0.00     0.120 A 
ENDROOT
BRANCH   1   7
HETATM    7  C   UNL     1      27.351  42.586  50.100  1.00  0.00     0.277 C 
BRANCH   7   8
HETATM    8  N   UNL     1      25.886  42.476  49.724  1.00  0.00    -0.065 N 
HETATM    9  H   UNL     1      25.876  42.368  48.703  1.00  0.00     0.280 HD
HETATM   10  C   UNL     1      25.220  41.266  50.310  1.00  0.00     0.270 C 
BRANCH   8  11
HETATM   11  C   UNL     1      25.126  43.707  50.116  1.00  0.00     0.205 C 
HETATM   12  C   UNL     1      23.899  44.075  49.201  1.00  0.00     0.008 C 
HETATM   13  C   UNL     1      23.780  43.462  47.802  1.00  0.00     0.020 C 
HETATM   14  C   UNL     1      22.563  43.984  49.945  1.00  0.00     0.020 C 
HETATM   15  C   UNL     1      24.462  45.515  49.098  1.00  0.00     0.137 C 
HETATM   16  C   UNL     1      25.799  45.050  49.699  1.00  0.00     0.049 C 
HETATM   17  O   UNL     1      23.930  46.543  49.953  1.00  0.00    -0.385 OA
HETATM   18  C   UNL     1      26.025  46.068  50.827  1.00  0.00     0.035 C 
HETATM   19  C   UNL     1      25.042  47.205  50.560  1.00  0.00     0.168 C 
ENDBRANCH   8  11
ENDBRANCH   7   8
ENDBRANCH   1   7
BRANCH   2  20
HETATM   20  C   UNL     1      28.368  42.698  53.132  1.00  0.00    -0.002 A 
HETATM   21  C   UNL     1      29.442  43.065  53.955  1.00  0.00     0.053 A 
HETATM   22  C   UNL     1      29.307  44.132  54.844  1.00  0.00     0.103 A 
HETATM   23  C   UNL     1      28.102  44.831  54.931  1.00  0.00     0.102 A 
HETATM   24  O   UNL     1      30.408  44.433  55.607  1.00  0.00    -0.346 OA
HETATM   25  O   UNL     1      27.896  45.870  55.798  1.00  0.00    -0.346 OA
HETATM   26  C   UNL     1      27.041  44.491  54.096  1.00  0.00     0.040 A 
HETATM   27  C   UNL     1      28.928  45.955  56.788  1.00  0.00     0.202 C 
HETATM   28  C   UNL     1      30.300  45.751  56.164  1.00  0.00     0.202 C 
HETATM   29  C   UNL     1      27.173  43.430  53.197  1.00  0.00     0.017 A 
ENDBRANCH   2  20
TORSDOF 4
ENDMDL
MODEL 5
REMARK VINA RESULT:      -8.0      2.204      7.257
REMARK  4 active torsions:
REMARK  status: ('A' for Active; 'I' for Inactive)
REMARK    1  A    between atoms: C_9  and  N_10 
REMARK    2  A    between atoms: N_10  and  C_12 
REMARK    3  A    between atoms: C_12  and  C_13 
REMARK    4  A    between atoms: C_14  and  C_15 
ROOT
HETATM    1  C   UNL     1      23.577  49.086  48.636  1.00  0.00     0.016 A 
HETATM    2  C   UNL     1      24.719  48.449  49.234  1.00  0.00     0.096 A 
HETATM    3  N   UNL     1      25.851  49.073  48.893  1.00  0.00    -0.174 NA
HETATM    4  N   UNL     1      25.480  50.023  48.034  1.00  0.00    -0.288 N 
HETATM    5  H   UNL     1      26.205  50.605  47.620  1.00  0.00     0.188 HD
HETATM    6  C   UNL     1      24.128  50.077  47.845  1.00  0.00     0.120 A 
ENDROOT
BRANCH   1   7
HETATM    7  C   UNL     1      22.161  48.684  48.863  1.00  0.00     0.277 C 
BRANCH   7   8
HETATM    8  N   UNL     1      21.233  49.549  49.694  1.00  0.00    -0.065 N 
HETATM    9  H   UNL     1      21.030  48.998  50.536  1.00  0.00     0.280 HD
HETATM   10  C   UNL     1      21.872  50.831  50.141  1.00  0.00     0.270 C 
BRANCH   8  11
HETATM   11  C   UNL     1      19.962  49.851  48.960  1.00  0.00     0.205 C 
HETATM   12  C   UNL     1      18.635  49.686  49.791  1.00  0.00     0.008 C 
HETATM   13  C   UNL     1      18.645  48.876  51.091  1.00  0.00     0.020 C 
HETATM   14  C   UNL     1      17.897  51.014  49.988  1.00  0.00     0.020 C 
HETATM   15  C   UNL     1      18.071  48.821  48.637  1.00  0.00     0.137 C 
HETATM   16  C   UNL     1      19.471  48.717  48.011  1.00  0.00     0.049 C 
HETATM   17  O   UNL     1      17.198  49.425  47.664  1.00  0.00    -0.385 OA
HETATM   18  C   UNL     1      19.212  49.124  46.553  1.00  0.00     0.035 C 
HETATM   19  C   UNL     1      17.697  49.070  46.372  1.00  0.00     0.168 C 
ENDBRANCH   8  11
ENDBRANCH   7   8
ENDBRANCH   1   7
BRANCH   2  20
HETATM   20  C   UNL     1      24.751  47.291  50.124  1.00  0.00    -0.002 A 
HETATM   21  C   UNL     1      25.354  47.377  51.386  1.00  0.00     0.053 A 
HETATM   22  C   UNL     1      25.384  46.262  52.223  1.00  0.00     0.103 A 
HETATM   23  C   UNL     1      24.829  45.051  51.807  1.00  0.00     0.102 A 
HETATM   24  O   UNL     1      25.985  46.432  53.446  1.00  0.00    -0.346 OA
HETATM   25  O   UNL     1      24.846  43.913  52.568  1.00  0.00    -0.346 OA
HETATM   26  C   UNL     1      24.202  44.965  50.567  1.00  0.00     0.040 A 
HETATM   27  C   UNL     1      25.743  44.027  53.680  1.00  0.00     0.202 C 
HETATM   28  C   UNL     1      25.609  45.385  54.352  1.00  0.00     0.202 C 
HETATM   29  C   UNL     1      24.160  46.082  49.727  1.00  0.00     0.017 A 
ENDBRANCH   2  20
TORSDOF 4
ENDMDL
MODEL 6
REMARK VINA RESULT:      -8.0      1.692      2.101
REMARK  4 active torsions:
REMARK  status: ('A' for Active; 'I' for Inactive)
REMARK    1  A    between atoms: C_9  and  N_10 
REMARK    2  A    between atoms: N_10  and  C_12 
REMARK    3  A    between atoms: C_12  and  C_13 
REMARK    4  A    between atoms: C_14  and  C_15 
ROOT
HETATM    1  C   UNL     1      26.291  48.268  49.489  1.00  0.00     0.016 A 
HETATM    2  C   UNL     1      25.554  49.279  48.781  1.00  0.00     0.096 A 
HETATM    3  N   UNL     1      26.378  50.124  48.154  1.00  0.00    -0.174 NA
HETATM    4  N   UNL     1      27.605  49.743  48.508  1.00  0.00    -0.288 N 
HETATM    5  H   UNL     1      28.395  50.283  48.160  1.00  0.00     0.188 HD
HETATM    6  C   UNL     1      27.612  48.634  49.306  1.00  0.00     0.120 A 
ENDROOT
BRANCH   1   7
HETATM    7  C   UNL     1      25.681  47.134  50.237  1.00  0.00     0.277 C 
BRANCH   7   8
HETATM    8  N   UNL     1      26.221  46.718  51.591  1.00  0.00    -0.065 N 
HETATM    9  H   UNL     1      27.181  47.082  51.624  1.00  0.00     0.280 HD
HETATM   10  C   UNL     1      25.470  47.332  52.735  1.00  0.00     0.270 C 
BRANCH   8  11
HETATM   11  C   UNL     1      26.233  45.226  51.742  1.00  0.00     0.205 C 
HETATM   12  C   UNL     1      26.900  44.676  53.057  1.00  0.00     0.008 C 
HETATM   13  C   UNL     1      27.825  45.579  53.879  1.00  0.00     0.020 C 
HETATM   14  C   UNL     1      25.898  43.959  53.968  1.00  0.00     0.020 C 
HETATM   15  C   UNL     1      27.744  43.720  52.178  1.00  0.00     0.137 C 
HETATM   16  C   UNL     1      27.333  44.496  50.916  1.00  0.00     0.049 C 
HETATM   17  O   UNL     1      27.318  42.355  52.012  1.00  0.00    -0.385 OA
HETATM   18  C   UNL     1      26.845  43.377  49.985  1.00  0.00     0.035 C 
HETATM   19  C   UNL     1      27.337  42.074  50.611  1.00  0.00     0.168 C 
ENDBRANCH   8  11
ENDBRANCH   7   8
ENDBRANCH   1   7
BRANCH   2  20
HETATM   20  C   UNL     1      24.106  49.441  48.676  1.00  0.00    -0.002 A 
HETATM   21  C   UNL     1      23.259  48.324  48.703  1.00  0.00     0.053 A 
HETATM   22  C   UNL     1      21.878  48.492  48.595  1.00  0.00     0.103 A 
HETATM   23  C   UNL     1      21.332  49.767  48.446  1.00  0.00     0.102 A 
HETATM   24  O   UNL     1      21.120  47.349  48.639  1.00  0.00    -0.346 OA
HETATM   25  O   UNL     1      19.989  50.000  48.311  1.00  0.00    -0.346 OA
HETATM   26  C   UNL     1      22.164  50.884  48.449  1.00  0.00     0.040 A 
HETATM   27  C   UNL     1      19.262  48.795  48.041  1.00  0.00     0.202 C 
HETATM   28  C   UNL     1      19.747  47.656  48.924  1.00  0.00     0.202 C 
HETATM   29  C   UNL     1      23.546  50.723  48.566  1.00  0.00     0.017 A 
ENDBRANCH   2  20
TORSDOF 4
ENDMDL
MODEL 7
REMARK VINA RESULT:      -7.9      1.833      6.857
REMARK  4 active torsions:
REMARK  status: ('A' for Active; 'I' for Inactive)
REMARK    1  A    between atoms: C_9  and  N_10 
REMARK    2  A    between atoms: N_10  and  C_12 
REMARK    3  A    between atoms: C_12  and  C_13 
REMARK    4  A    between atoms: C_14  and  C_15 
ROOT
HETATM    1  C   UNL     1      25.585  49.192  48.744  1.00  0.00     0.016 A 
HETATM    2  C   UNL     1      26.547  48.378  49.436  1.00  0.00     0.096 A 
HETATM    3  N   UNL     1      27.752  48.956  49.440  1.00  0.00    -0.174 NA
HETATM    4  N   UNL     1      27.613  50.059  48.703  1.00  0.00    -0.288 N 
HETATM    5  H   UNL     1      28.434  50.640  48.549  1.00  0.00     0.188 HD
HETATM    6  C   UNL     1      26.334  50.250  48.263  1.00  0.00     0.120 A 
ENDROOT
BRANCH   1   7
HETATM    7  C   UNL     1      24.136  48.874  48.613  1.00  0.00     0.277 C 
BRANCH   7   8
HETATM    8  N   UNL     1      23.085  49.947  48.819  1.00  0.00    -0.065 N 
HETATM    9  H   UNL     1      23.056  50.106  49.833  1.00  0.00     0.280 HD
HETATM   10  C   UNL     1      23.443  51.251  48.170  1.00  0.00     0.270 C 
BRANCH   8  11
HETATM   11  C   UNL     1      21.740  49.497  48.333  1.00  0.00     0.205 C 
HETATM   12  C   UNL     1      20.500  50.220  48.980  1.00  0.00     0.008 C 
HETATM   13  C   UNL     1      20.668  50.997  50.290  1.00  0.00     0.020 C 
HETATM   14  C   UNL     1      19.704  51.043  47.963  1.00  0.00     0.020 C 
HETATM   15  C   UNL     1      19.892  48.825  49.270  1.00  0.00     0.137 C 
HETATM   16  C   UNL     1      21.239  48.156  48.948  1.00  0.00     0.049 C 
HETATM   17  O   UNL     1      18.907  48.284  48.371  1.00  0.00    -0.385 OA
HETATM   18  C   UNL     1      20.834  47.065  47.946  1.00  0.00     0.035 C 
HETATM   19  C   UNL     1      19.315  46.952  48.050  1.00  0.00     0.168 C 
ENDBRANCH   8  11
ENDBRANCH   7   8
ENDBRANCH   1   7
BRANCH   2  20
HETATM   20  C   UNL     1      26.340  47.092  50.099  1.00  0.00    -0.002 A 
HETATM   21  C   UNL     1      26.845  45.911  49.538  1.00  0.00     0.053 A 
HETATM   22  C   UNL     1      26.634  44.689  50.177  1.00  0.00     0.103 A 
HETATM   23  C   UNL     1      25.910  44.631  51.368  1.00  0.00     0.102 A 
HETATM   24  O   UNL     1      27.169  43.581  49.567  1.00  0.00    -0.346 OA
HETATM   25  O   UNL     1      25.647  43.463  52.033  1.00  0.00    -0.346 OA
HETATM   26  C   UNL     1      25.432  45.804  51.948  1.00  0.00     0.040 A 
HETATM   27  C   UNL     1      25.930  42.313  51.228  1.00  0.00     0.202 C 
HETATM   28  C   UNL     1      27.246  42.480  50.484  1.00  0.00     0.202 C 
HETATM   29  C   UNL     1      25.647  47.031  51.317  1.00  0.00     0.017 A 
ENDBRANCH   2  20
TORSDOF 4
ENDMDL
MODEL 8
REMARK VINA RESULT:      -7.9      1.996      7.166
REMARK  4 active torsions:
REMARK  status: ('A' for Active; 'I' for Inactive)
REMARK    1  A    between atoms: C_9  and  N_10 
REMARK    2  A    between atoms: N_10  and  C_12 
REMARK    3  A    between atoms: C_12  and  C_13 
REMARK    4  A    between atoms: C_14  and  C_15 
ROOT
HETATM    1  C   UNL     1      25.032  48.938  49.006  1.00  0.00     0.016 A 
HETATM    2  C   UNL     1      26.191  48.169  49.372  1.00  0.00     0.096 A 
HETATM    3  N   UNL     1      27.300  48.685  48.834  1.00  0.00    -0.174 NA
HETATM    4  N   UNL     1      26.881  49.695  48.071  1.00  0.00    -0.288 N 
HETATM    5  H   UNL     1      27.575  50.213  47.537  1.00  0.00     0.188 HD
HETATM    6  C   UNL     1      25.530  49.892  48.138  1.00  0.00     0.120 A 
ENDROOT
BRANCH   1   7
HETATM    7  C   UNL     1      23.648  48.675  49.488  1.00  0.00     0.277 C 
BRANCH   7   8
HETATM    8  N   UNL     1      22.634  47.987  48.595  1.00  0.00    -0.065 N 
HETATM    9  H   UNL     1      22.996  48.094  47.640  1.00  0.00     0.280 HD
HETATM   10  C   UNL     1      22.517  46.516  48.868  1.00  0.00     0.270 C 
BRANCH   8  11
HETATM   11  C   UNL     1      21.282  48.626  48.706  1.00  0.00     0.205 C 
HETATM   12  C   UNL     1      20.171  48.049  47.753  1.00  0.00     0.008 C 
HETATM   13  C   UNL     1      20.571  47.209  46.535  1.00  0.00     0.020 C 
HETATM   14  C   UNL     1      19.031  47.374  48.521  1.00  0.00     0.020 C 
HETATM   15  C   UNL     1      19.857  49.500  47.310  1.00  0.00     0.137 C 
HETATM   16  C   UNL     1      21.149  49.998  47.979  1.00  0.00     0.049 C 
HETATM   17  O   UNL     1      18.752  50.198  47.914  1.00  0.00    -0.385 OA
HETATM   18  C   UNL     1      20.646  51.169  48.837  1.00  0.00     0.035 C 
HETATM   19  C   UNL     1      19.238  51.475  48.332  1.00  0.00     0.168 C 
ENDBRANCH   8  11
ENDBRANCH   7   8
ENDBRANCH   1   7
BRANCH   2  20
HETATM   20  C   UNL     1      26.263  46.985  50.226  1.00  0.00    -0.002 A 
HETATM   21  C   UNL     1      25.939  47.067  51.587  1.00  0.00     0.053 A 
HETATM   22  C   UNL     1      26.018  45.930  52.393  1.00  0.00     0.103 A 
HETATM   23  C   UNL     1      26.434  44.712  51.855  1.00  0.00     0.102 A 
HETATM   24  O   UNL     1      25.674  46.093  53.712  1.00  0.00    -0.346 OA
HETATM   25  O   UNL     1      26.557  43.566  52.595  1.00  0.00    -0.346 OA
HETATM   26  C   UNL     1      26.729  44.616  50.498  1.00  0.00     0.040 A 
HETATM   27  C   UNL     1      26.505  43.829  54.002  1.00  0.00     0.202 C 
HETATM   28  C   UNL     1      25.405  44.826  54.330  1.00  0.00     0.202 C 
HETATM   29  C   UNL     1      26.642  45.748  49.684  1.00  0.00     0.017 A 
ENDBRANCH   2  20
TORSDOF 4
ENDMDL
MODEL 9
REMARK VINA RESULT:      -7.8     10.456     13.201
REMARK  4 active torsions:
REMARK  status: ('A' for Active; 'I' for Inactive)
REMARK    1  A    between atoms: C_9  and  N_10 
REMARK    2  A    between atoms: N_10  and  C_12 
REMARK    3  A    between atoms: C_12  and  C_13 
REMARK    4  A    between atoms: C_14  and  C_15 
ROOT
HETATM    1  C   UNL     1      28.377  47.454  39.374  1.00  0.00     0.016 A 
HETATM    2  C   UNL     1      29.690  47.242  39.921  1.00  0.00     0.096 A 
HETATM    3  N   UNL     1      30.155  46.031  39.598  1.00  0.00    -0.174 NA
HETATM    4  N   UNL     1      29.157  45.436  38.946  1.00  0.00    -0.288 N 
HETATM    5  H   UNL     1      29.292  44.477  38.634  1.00  0.00     0.188 HD
HETATM    6  C   UNL     1      28.067  46.243  38.781  1.00  0.00     0.120 A 
ENDROOT
BRANCH   1   7
HETATM    7  C   UNL     1      27.600  48.718  39.489  1.00  0.00     0.277 C 
BRANCH   7   8
HETATM    8  N   UNL     1      27.662  49.769  38.397  1.00  0.00    -0.065 N 
HETATM    9  H   UNL     1      28.458  49.500  37.806  1.00  0.00     0.280 HD
HETATM   10  C   UNL     1      26.440  49.781  37.526  1.00  0.00     0.270 C 
BRANCH   8  11
HETATM   11  C   UNL     1      27.886  51.138  38.966  1.00  0.00     0.205 C 
HETATM   12  C   UNL     1      29.182  51.882  38.470  1.00  0.00     0.008 C 
HETATM   13  C   UNL     1      30.310  51.087  37.804  1.00  0.00     0.020 C 
HETATM   14  C   UNL     1      28.861  53.143  37.661  1.00  0.00     0.020 C 
HETATM   15  C   UNL     1      29.537  52.161  39.951  1.00  0.00     0.137 C 
HETATM   16  C   UNL     1      28.467  51.156  40.411  1.00  0.00     0.049 C 
HETATM   17  O   UNL     1      29.215  53.440  40.525  1.00  0.00    -0.385 OA
HETATM   18  C   UNL     1      27.675  51.970  41.446  1.00  0.00     0.035 C 
HETATM   19  C   UNL     1      28.536  53.190  41.759  1.00  0.00     0.168 C 
ENDBRANCH   8  11
ENDBRANCH   7   8
ENDBRANCH   1   7
BRANCH   2  20
HETATM   20  C   UNL     1      30.503  48.161  40.714  1.00  0.00    -0.002 A 
HETATM   21  C   UNL     1      31.542  48.889  40.118  1.00  0.00     0.053 A 
HETATM   22  C   UNL     1      32.315  49.759  40.888  1.00  0.00     0.103 A 
HETATM   23  C   UNL     1      32.071  49.899  42.255  1.00  0.00     0.102 A 
HETATM   24  O   UNL     1      33.307  50.441  40.227  1.00  0.00    -0.346 OA
HETATM   25  O   UNL     1      32.807  50.716  43.071  1.00  0.00    -0.346 OA
HETATM   26  C   UNL     1      31.021  49.202  42.847  1.00  0.00     0.040 A 
HETATM   27  C   UNL     1      34.013  51.160  42.437  1.00  0.00     0.202 C 
HETATM   28  C   UNL     1      33.752  51.568  40.996  1.00  0.00     0.202 C 
HETATM   29  C   UNL     1      30.237  48.337  42.080  1.00  0.00     0.017 A 
ENDBRANCH   2  20
TORSDOF 4
ENDMDL
MODEL 10
REMARK VINA RESULT:      -7.7      4.501      7.534
REMARK  4 active torsions:
REMARK  status: ('A' for Active; 'I' for Inactive)
REMARK    1  A    between atoms: C_9  and  N_10 
REMARK    2  A    between atoms: N_10  and  C_12 
REMARK    3  A    between atoms: C_12  and  C_13 
REMARK    4  A    between atoms: C_14  and  C_15 
ROOT
HETATM    1  C   UNL     1      28.156  41.633  52.775  1.00  0.00     0.016 A 
HETATM    2  C   UNL     1      27.519  41.910  51.515  1.00  0.00     0.096 A 
HETATM    3  N   UNL     1      27.805  40.966  50.614  1.00  0.00    -0.174 NA
HETATM    4  N   UNL     1      28.666  40.151  51.223  1.00  0.00    -0.288 N 
HETATM    5  H   UNL     1      29.042  39.367  50.694  1.00  0.00     0.188 HD
HETATM    6  C   UNL     1      28.910  40.502  52.521  1.00  0.00     0.120 A 
ENDROOT
BRANCH   1   7
HETATM    7  C   UNL     1      27.993  42.448  54.010  1.00  0.00     0.277 C 
BRANCH   7   8
HETATM    8  N   UNL     1      29.145  43.273  54.552  1.00  0.00    -0.065 N 
HETATM    9  H   UNL     1      29.286  42.942  55.514  1.00  0.00     0.280 HD
HETATM   10  C   UNL     1      30.428  43.048  53.807  1.00  0.00     0.270 C 
BRANCH   8  11
HETATM   11  C   UNL     1      28.817  44.736  54.556  1.00  0.00     0.205 C 
HETATM   12  C   UNL     1      29.410  45.568  55.753  1.00  0.00     0.008 C 
HETATM   13  C   UNL     1      29.907  44.847  57.010  1.00  0.00     0.020 C 
HETATM   14  C   UNL     1      30.430  46.614  55.293  1.00  0.00     0.020 C 
HETATM   15  C   UNL     1      27.992  46.141  56.002  1.00  0.00     0.137 C 
HETATM   16  C   UNL     1      27.386  45.082  55.065  1.00  0.00     0.049 C 
HETATM   17  O   UNL     1      27.654  47.437  55.477  1.00  0.00    -0.385 OA
HETATM   18  C   UNL     1      26.522  45.932  54.122  1.00  0.00     0.035 C 
HETATM   19  C   UNL     1      26.409  47.302  54.788  1.00  0.00     0.168 C 
ENDBRANCH   8  11
ENDBRANCH   7   8
ENDBRANCH   1   7
BRANCH   2  20
HETATM   20  C   UNL     1      26.644  43.027  51.167  1.00  0.00    -0.002 A 
HETATM   21  C   UNL     1      27.180  44.287  50.868  1.00  0.00     0.053 A 
HETATM   22  C   UNL     1      26.334  45.347  50.543  1.00  0.00     0.103 A 
HETATM   23  C   UNL     1      24.950  45.166  50.527  1.00  0.00     0.102 A 
HETATM   24  O   UNL     1      26.939  46.545  50.254  1.00  0.00    -0.346 OA
HETATM   25  O   UNL     1      24.063  46.169  50.241  1.00  0.00    -0.346 OA
HETATM   26  C   UNL     1      24.411  43.910  50.793  1.00  0.00     0.040 A 
HETATM   27  C   UNL     1      24.688  47.459  50.260  1.00  0.00     0.202 C 
HETATM   28  C   UNL     1      26.037  47.420  49.560  1.00  0.00     0.202 C 
HETATM   29  C   UNL     1      25.254  42.842  51.110  1.00  0.00     0.017 A 
ENDBRANCH   2  20
TORSDOF 4
ENDMDL
