MODEL 1
REMARK VINA RESULT:     -10.0      0.000      0.000
REMARK  5 active torsions:
REMARK  status: ('A' for Active; 'I' for Inactive)
REMARK    1  A    between atoms: N_4  and  C_5 
REMARK    2  A    between atoms: C_14  and  C_15 
REMARK       I    between atoms: C_15  and  N_16 
REMARK    3  A    between atoms: N_16  and  N_17 
REMARK    4  A    between atoms: N_17  and  C_18 
REMARK    5  A    between atoms: N_19  and  C_20 
ROOT
HETATM    1  C   UNL     1      24.413  47.303  50.184  1.00  0.00     0.277 C 
HETATM    2  N   UNL     1      23.105  47.026  49.831  1.00  0.00    -0.263 N 
HETATM    3  O   UNL     1      24.911  48.411  49.981  1.00  0.00    -0.265 OA
HETATM    4  H   UNL     1      22.698  46.102  49.956  1.00  0.00     0.190 HD
ENDROOT
BRANCH   1   5
HETATM    5  C   UNL     1      25.139  46.203  50.805  1.00  0.00     0.077 A 
HETATM    6  S   UNL     1      26.260  46.481  52.118  1.00  0.00    -0.064 SA
HETATM    7  C   UNL     1      26.639  44.860  52.177  1.00  0.00     0.113 A 
HETATM    8  N   UNL     1      27.456  43.991  52.857  1.00  0.00    -0.226 N 
HETATM    9  C   UNL     1      25.958  44.145  51.278  1.00  0.00     0.027 A 
HETATM   10  N   UNL     1      27.251  42.705  52.379  1.00  0.00    -0.171 NA
HETATM   11  C   UNL     1      26.327  42.819  51.405  1.00  0.00     0.064 A 
HETATM   12  C   UNL     1      25.859  41.630  50.658  1.00  0.00     0.073 C 
HETATM   13  C   UNL     1      25.084  44.852  50.458  1.00  0.00     0.041 A 
BRANCH   8  14
HETATM   14  C   UNL     1      28.414  44.222  53.888  1.00  0.00     0.059 A 
HETATM   15  C   UNL     1      29.452  43.293  54.072  1.00  0.00     0.031 A 
HETATM   16  C   UNL     1      30.420  43.491  55.061  1.00  0.00     0.002 A 
HETATM   17  C   UNL     1      30.360  44.616  55.879  1.00  0.00     0.000 A 
HETATM   18  C   UNL     1      29.333  45.541  55.709  1.00  0.00     0.002 A 
HETATM   19  C   UNL     1      28.362  45.348  54.719  1.00  0.00     0.031 A 
ENDBRANCH   8  14
ENDBRANCH   1   5
BRANCH   2  20
HETATM   20  N   UNL     1      22.310  48.010  49.227  1.00  0.00    -0.273 N 
HETATM   21  H   UNL     1      22.028  48.762  49.855  1.00  0.00     0.189 HD
BRANCH  20  22
HETATM   22  C   UNL     1      21.507  47.694  48.164  1.00  0.00     0.191 C 
HETATM   23  N   UNL     1      20.381  48.430  47.957  1.00  0.00    -0.331 N 
HETATM   24  H   UNL     1      19.739  47.988  47.302  1.00  0.00     0.168 HD
HETATM   25  S   UNL     1      21.796  46.410  47.119  1.00  0.00    -0.039 SA
BRANCH  23  26
HETATM   26  C   UNL     1      19.930  49.671  48.462  1.00  0.00     0.056 A 
HETATM   27  C   UNL     1      18.953  49.655  49.479  1.00  0.00     0.060 A 
HETATM   28 CL   UNL     1      18.339  48.161  50.104  1.00  0.00    -0.082 Cl
HETATM   29  C   UNL     1      18.459  50.843  50.023  1.00  0.00     0.026 A 
HETATM   30  C   UNL     1      18.920  52.067  49.548  1.00  0.00     0.002 A 
HETATM   31  C   UNL     1      19.857  52.099  48.518  1.00  0.00     0.002 A 
HETATM   32  C   UNL     1      20.352  50.909  47.970  1.00  0.00     0.031 A 
ENDBRANCH  23  26
ENDBRANCH  20  22
ENDBRANCH   2  20
TORSDOF 5
ENDMDL
MODEL 2
REMARK VINA RESULT:      -9.9      1.889      2.614
REMARK  5 active torsions:
REMARK  status: ('A' for Active; 'I' for Inactive)
REMARK    1  A    between atoms: N_4  and  C_5 
REMARK    2  A    between atoms: C_14  and  C_15 
REMARK       I    between atoms: C_15  and  N_16 
REMARK    3  A    between atoms: N_16  and  N_17 
REMARK    4  A    between atoms: N_17  and  C_18 
REMARK    5  A    between atoms: N_19  and  C_20 
ROOT
HETATM    1  C   UNL     1      25.540  46.428  52.042  1.00  0.00     0.277 C 
HETATM    2  N   UNL     1      24.972  45.996  50.858  1.00  0.00    -0.263 N 
HETATM    3  O   UNL     1      25.216  47.500  52.555  1.00  0.00    -0.265 OA
HETATM    4  H   UNL     1      25.264  45.133  50.404  1.00  0.00     0.190 HD
ENDROOT
BRANCH   1   5
HETATM    5  C   UNL     1      26.531  45.532  52.623  1.00  0.00     0.077 A 
HETATM    6  S   UNL     1      27.371  45.942  54.101  1.00  0.00    -0.064 SA
HETATM    7  C   UNL     1      28.260  44.536  54.021  1.00  0.00     0.113 A 
HETATM    8  N   UNL     1      29.254  43.875  54.699  1.00  0.00    -0.226 N 
HETATM    9  C   UNL     1      27.941  43.791  52.959  1.00  0.00     0.027 A 
HETATM   10  N   UNL     1      29.533  42.681  54.050  1.00  0.00    -0.171 NA
HETATM   11  C   UNL     1      28.717  42.647  52.979  1.00  0.00     0.064 A 
HETATM   12  C   UNL     1      28.740  41.503  52.041  1.00  0.00     0.073 C 
HETATM   13  C   UNL     1      26.960  44.304  52.116  1.00  0.00     0.041 A 
BRANCH   8  14
HETATM   14  C   UNL     1      29.983  44.235  55.872  1.00  0.00     0.059 A 
HETATM   15  C   UNL     1      31.016  43.391  56.315  1.00  0.00     0.031 A 
HETATM   16  C   UNL     1      31.763  43.715  57.451  1.00  0.00     0.002 A 
HETATM   17  C   UNL     1      31.487  44.882  58.157  1.00  0.00     0.000 A 
HETATM   18  C   UNL     1      30.463  45.723  57.730  1.00  0.00     0.002 A 
HETATM   19  C   UNL     1      29.712  45.403  56.593  1.00  0.00     0.031 A 
ENDBRANCH   8  14
ENDBRANCH   1   5
BRANCH   2  20
HETATM   20  N   UNL     1      24.005  46.777  50.208  1.00  0.00    -0.273 N 
HETATM   21  H   UNL     1      23.515  47.427  50.821  1.00  0.00     0.189 HD
BRANCH  20  22
HETATM   22  C   UNL     1      23.369  46.303  49.093  1.00  0.00     0.191 C 
HETATM   23  N   UNL     1      22.508  47.126  48.435  1.00  0.00    -0.331 N 
HETATM   24  H   UNL     1      21.918  46.628  47.773  1.00  0.00     0.168 HD
HETATM   25  S   UNL     1      23.543  44.737  48.507  1.00  0.00    -0.039 SA
BRANCH  23  26
HETATM   26  C   UNL     1      22.273  48.520  48.486  1.00  0.00     0.056 A 
HETATM   27  C   UNL     1      20.993  48.960  48.881  1.00  0.00     0.060 A 
HETATM   28 CL   UNL     1      19.753  47.829  49.311  1.00  0.00    -0.082 Cl
HETATM   29  C   UNL     1      20.688  50.321  48.951  1.00  0.00     0.026 A 
HETATM   30  C   UNL     1      21.652  51.265  48.610  1.00  0.00     0.002 A 
HETATM   31  C   UNL     1      22.908  50.845  48.182  1.00  0.00     0.002 A 
HETATM   32  C   UNL     1      23.216  49.481  48.109  1.00  0.00     0.031 A 
ENDBRANCH  23  26
ENDBRANCH  20  22
ENDBRANCH   2  20
TORSDOF 5
ENDMDL
MODEL 3
REMARK VINA RESULT:      -9.8      2.352      3.443
REMARK  5 active torsions:
REMARK  status: ('A' for Active; 'I' for Inactive)
REMARK    1  A    between atoms: N_4  and  C_5 
REMARK    2  A    between atoms: C_14  and  C_15 
REMARK       I    between atoms: C_15  and  N_16 
REMARK    3  A    between atoms: N_16  and  N_17 
REMARK    4  A    between atoms: N_17  and  C_18 
REMARK    5  A    between atoms: N_19  and  C_20 
ROOT
HETATM    1  C   UNL     1      24.752  46.425  50.969  1.00  0.00     0.277 C 
HETATM    2  N   UNL     1      24.015  47.554  50.662  1.00  0.00    -0.263 N 
HETATM    3  O   UNL     1      24.701  45.416  50.266  1.00  0.00    -0.265 OA
HETATM    4  H   UNL     1      24.017  48.378  51.261  1.00  0.00     0.190 HD
ENDROOT
BRANCH   1   5
HETATM    5  C   UNL     1      25.578  46.524  52.165  1.00  0.00     0.077 A 
HETATM    6  S   UNL     1      26.859  45.376  52.482  1.00  0.00    -0.064 SA
HETATM    7  C   UNL     1      27.211  46.123  53.928  1.00  0.00     0.113 A 
HETATM    8  N   UNL     1      28.059  45.999  55.002  1.00  0.00    -0.226 N 
HETATM    9  C   UNL     1      26.428  47.180  54.159  1.00  0.00     0.027 A 
HETATM   10  N   UNL     1      27.804  47.023  55.903  1.00  0.00    -0.171 NA
HETATM   11  C   UNL     1      26.795  47.739  55.369  1.00  0.00     0.064 A 
HETATM   12  C   UNL     1      26.252  48.925  56.069  1.00  0.00     0.073 C 
HETATM   13  C   UNL     1      25.469  47.463  53.192  1.00  0.00     0.041 A 
BRANCH   8  14
HETATM   14  C   UNL     1      29.064  45.030  55.290  1.00  0.00     0.059 A 
HETATM   15  C   UNL     1      29.993  45.298  56.311  1.00  0.00     0.031 A 
HETATM   16  C   UNL     1      30.985  44.368  56.634  1.00  0.00     0.002 A 
HETATM   17  C   UNL     1      31.063  43.163  55.942  1.00  0.00     0.000 A 
HETATM   18  C   UNL     1      30.151  42.889  54.926  1.00  0.00     0.002 A 
HETATM   19  C   UNL     1      29.155  43.816  54.599  1.00  0.00     0.031 A 
ENDBRANCH   8  14
ENDBRANCH   1   5
BRANCH   2  20
HETATM   20  N   UNL     1      23.184  47.574  49.533  1.00  0.00    -0.273 N 
HETATM   21  H   UNL     1      23.072  46.667  49.083  1.00  0.00     0.189 HD
BRANCH  20  22
HETATM   22  C   UNL     1      23.069  48.711  48.780  1.00  0.00     0.191 C 
HETATM   23  N   UNL     1      21.829  49.098  48.372  1.00  0.00    -0.331 N 
HETATM   24  H   UNL     1      21.861  49.804  47.639  1.00  0.00     0.168 HD
HETATM   25  S   UNL     1      24.374  49.642  48.278  1.00  0.00    -0.039 SA
BRANCH  23  26
HETATM   26  C   UNL     1      20.522  48.721  48.756  1.00  0.00     0.056 A 
HETATM   27  C   UNL     1      19.861  49.513  49.717  1.00  0.00     0.060 A 
HETATM   28 CL   UNL     1      20.620  50.916  50.392  1.00  0.00    -0.082 Cl
HETATM   29  C   UNL     1      18.569  49.200  50.146  1.00  0.00     0.026 A 
HETATM   30  C   UNL     1      17.923  48.078  49.635  1.00  0.00     0.002 A 
HETATM   31  C   UNL     1      18.577  47.265  48.713  1.00  0.00     0.002 A 
HETATM   32  C   UNL     1      19.873  47.576  48.283  1.00  0.00     0.031 A 
ENDBRANCH  23  26
ENDBRANCH  20  22
ENDBRANCH   2  20
TORSDOF 5
ENDMDL
MODEL 4
REMARK VINA RESULT:      -9.5      4.119      5.595
REMARK  5 active torsions:
REMARK  status: ('A' for Active; 'I' for Inactive)
REMARK    1  A    between atoms: N_4  and  C_5 
REMARK    2  A    between atoms: C_14  and  C_15 
REMARK       I    between atoms: C_15  and  N_16 
REMARK    3  A    between atoms: N_16  and  N_17 
REMARK    4  A    between atoms: N_17  and  C_18 
REMARK    5  A    between atoms: N_19  and  C_20 
ROOT
HETATM    1  C   UNL     1      25.074  44.053  52.355  1.00  0.00     0.277 C 
HETATM    2  N   UNL     1      25.631  42.969  51.703  1.00  0.00    -0.263 N 
HETATM    3  O   UNL     1      23.912  44.401  52.142  1.00  0.00    -0.265 OA
HETATM    4  H   UNL     1      26.604  42.700  51.839  1.00  0.00     0.190 HD
ENDROOT
BRANCH   1   5
HETATM    5  C   UNL     1      25.953  44.736  53.295  1.00  0.00     0.077 A 
HETATM    6  S   UNL     1      27.371  43.949  53.949  1.00  0.00    -0.064 SA
HETATM    7  C   UNL     1      27.721  45.286  54.879  1.00  0.00     0.113 A 
HETATM    8  N   UNL     1      28.638  45.718  55.805  1.00  0.00    -0.226 N 
HETATM    9  C   UNL     1      26.839  46.274  54.703  1.00  0.00     0.027 A 
HETATM   10  N   UNL     1      28.324  47.013  56.188  1.00  0.00    -0.171 NA
HETATM   11  C   UNL     1      27.211  47.339  55.501  1.00  0.00     0.064 A 
HETATM   12  C   UNL     1      26.580  48.668  55.663  1.00  0.00     0.073 C 
HETATM   13  C   UNL     1      25.800  46.024  53.813  1.00  0.00     0.041 A 
BRANCH   8  14
HETATM   14  C   UNL     1      29.762  45.057  56.385  1.00  0.00     0.059 A 
HETATM   15  C   UNL     1      30.207  45.461  57.655  1.00  0.00     0.031 A 
HETATM   16  C   UNL     1      31.296  44.830  58.263  1.00  0.00     0.002 A 
HETATM   17  C   UNL     1      31.952  43.790  57.610  1.00  0.00     0.000 A 
HETATM   18  C   UNL     1      31.522  43.384  56.350  1.00  0.00     0.002 A 
HETATM   19  C   UNL     1      30.433  44.013  55.737  1.00  0.00     0.031 A 
ENDBRANCH   8  14
ENDBRANCH   1   5
BRANCH   2  20
HETATM   20  N   UNL     1      24.878  42.235  50.776  1.00  0.00    -0.273 N 
HETATM   21  H   UNL     1      24.385  41.438  51.177  1.00  0.00     0.189 HD
BRANCH  20  22
HETATM   22  C   UNL     1      25.253  42.192  49.460  1.00  0.00     0.191 C 
HETATM   23  N   UNL     1      25.279  43.355  48.753  1.00  0.00    -0.331 N 
HETATM   24  H   UNL     1      25.340  43.202  47.749  1.00  0.00     0.168 HD
HETATM   25  S   UNL     1      25.636  40.778  48.638  1.00  0.00    -0.039 SA
BRANCH  23  26
HETATM   26  C   UNL     1      25.241  44.718  49.129  1.00  0.00     0.056 A 
HETATM   27  C   UNL     1      23.996  45.379  49.089  1.00  0.00     0.060 A 
HETATM   28 CL   UNL     1      22.556  44.544  48.612  1.00  0.00    -0.082 Cl
HETATM   29  C   UNL     1      23.883  46.726  49.444  1.00  0.00     0.026 A 
HETATM   30  C   UNL     1      25.016  47.438  49.829  1.00  0.00     0.002 A 
HETATM   31  C   UNL     1      26.257  46.807  49.837  1.00  0.00     0.002 A 
HETATM   32  C   UNL     1      26.373  45.459  49.480  1.00  0.00     0.031 A 
ENDBRANCH  23  26
ENDBRANCH  20  22
ENDBRANCH   2  20
TORSDOF 5
ENDMDL
MODEL 5
REMARK VINA RESULT:      -9.5      1.731      1.940
REMARK  5 active torsions:
REMARK  status: ('A' for Active; 'I' for Inactive)
REMARK    1  A    between atoms: N_4  and  C_5 
REMARK    2  A    between atoms: C_14  and  C_15 
REMARK       I    between atoms: C_15  and  N_16 
REMARK    3  A    between atoms: N_16  and  N_17 
REMARK    4  A    between atoms: N_17  and  C_18 
REMARK    5  A    between atoms: N_19  and  C_20 
ROOT
HETATM    1  C   UNL     1      24.167  46.014  50.074  1.00  0.00     0.277 C 
HETATM    2  N   UNL     1      24.239  47.323  50.513  1.00  0.00    -0.263 N 
HETATM    3  O   UNL     1      23.402  45.684  49.167  1.00  0.00    -0.265 OA
HETATM    4  H   UNL     1      24.836  47.598  51.290  1.00  0.00     0.190 HD
ENDROOT
BRANCH   1   5
HETATM    5  C   UNL     1      25.052  45.077  50.753  1.00  0.00     0.077 A 
HETATM    6  S   UNL     1      26.100  45.596  52.053  1.00  0.00    -0.064 SA
HETATM    7  C   UNL     1      26.731  44.062  52.196  1.00  0.00     0.113 A 
HETATM    8  N   UNL     1      27.669  43.369  52.922  1.00  0.00    -0.226 N 
HETATM    9  C   UNL     1      26.183  43.202  51.333  1.00  0.00     0.027 A 
HETATM   10  N   UNL     1      27.677  42.045  52.510  1.00  0.00    -0.171 NA
HETATM   11  C   UNL     1      26.758  41.961  51.529  1.00  0.00     0.064 A 
HETATM   12  C   UNL     1      26.493  40.676  50.844  1.00  0.00     0.073 C 
HETATM   13  C   UNL     1      25.217  43.719  50.475  1.00  0.00     0.041 A 
BRANCH   8  14
HETATM   14  C   UNL     1      28.567  43.803  53.942  1.00  0.00     0.059 A 
HETATM   15  C   UNL     1      29.692  43.014  54.238  1.00  0.00     0.031 A 
HETATM   16  C   UNL     1      30.603  43.411  55.221  1.00  0.00     0.002 A 
HETATM   17  C   UNL     1      30.401  44.597  55.920  1.00  0.00     0.000 A 
HETATM   18  C   UNL     1      29.287  45.384  55.639  1.00  0.00     0.002 A 
HETATM   19  C   UNL     1      28.372  44.992  54.656  1.00  0.00     0.031 A 
ENDBRANCH   8  14
ENDBRANCH   1   5
BRANCH   2  20
HETATM   20  N   UNL     1      23.434  48.312  49.931  1.00  0.00    -0.273 N 
HETATM   21  H   UNL     1      22.439  48.090  49.928  1.00  0.00     0.189 HD
BRANCH  20  22
HETATM   22  C   UNL     1      23.938  49.128  48.955  1.00  0.00     0.191 C 
HETATM   23  N   UNL     1      23.066  49.805  48.159  1.00  0.00    -0.331 N 
HETATM   24  H   UNL     1      23.513  50.195  47.331  1.00  0.00     0.168 HD
HETATM   25  S   UNL     1      25.578  49.311  48.638  1.00  0.00    -0.039 SA
BRANCH  23  26
HETATM   26  C   UNL     1      21.681  50.075  48.249  1.00  0.00     0.056 A 
HETATM   27  C   UNL     1      20.784  49.085  47.797  1.00  0.00     0.060 A 
HETATM   28 CL   UNL     1      21.361  47.578  47.167  1.00  0.00    -0.082 Cl
HETATM   29  C   UNL     1      19.403  49.283  47.853  1.00  0.00     0.026 A 
HETATM   30  C   UNL     1      18.894  50.481  48.347  1.00  0.00     0.002 A 
HETATM   31  C   UNL     1      19.769  51.482  48.763  1.00  0.00     0.002 A 
HETATM   32  C   UNL     1      21.154  51.287  48.705  1.00  0.00     0.031 A 
ENDBRANCH  23  26
ENDBRANCH  20  22
ENDBRANCH   2  20
TORSDOF 5
ENDMDL
MODEL 6
REMARK VINA RESULT:      -9.5      2.005      2.398
REMARK  5 active torsions:
REMARK  status: ('A' for Active; 'I' for Inactive)
REMARK    1  A    between atoms: N_4  and  C_5 
REMARK    2  A    between atoms: C_14  and  C_15 
REMARK       I    between atoms: C_15  and  N_16 
REMARK    3  A    between atoms: N_16  and  N_17 
REMARK    4  A    between atoms: N_17  and  C_18 
REMARK    5  A    between atoms: N_19  and  C_20 
ROOT
HETATM    1  C   UNL     1      23.536  43.991  50.483  1.00  0.00     0.277 C 
HETATM    2  N   UNL     1      23.596  45.229  49.870  1.00  0.00    -0.263 N 
HETATM    3  O   UNL     1      22.474  43.377  50.585  1.00  0.00    -0.265 OA
HETATM    4  H   UNL     1      24.461  45.763  49.819  1.00  0.00     0.190 HD
ENDROOT
BRANCH   1   5
HETATM    5  C   UNL     1      24.805  43.481  50.986  1.00  0.00     0.077 A 
HETATM    6  S   UNL     1      25.623  44.244  52.330  1.00  0.00    -0.064 SA
HETATM    7  C   UNL     1      26.885  43.163  52.214  1.00  0.00     0.113 A 
HETATM    8  N   UNL     1      28.095  42.886  52.800  1.00  0.00    -0.226 N 
HETATM    9  C   UNL     1      26.704  42.271  51.236  1.00  0.00     0.027 A 
HETATM   10  N   UNL     1      28.658  41.779  52.182  1.00  0.00    -0.171 NA
HETATM   11  C   UNL     1      27.789  41.415  51.220  1.00  0.00     0.064 A 
HETATM   12  C   UNL     1      28.067  40.255  50.344  1.00  0.00     0.073 C 
HETATM   13  C   UNL     1      25.535  42.398  50.492  1.00  0.00     0.041 A 
BRANCH   8  14
HETATM   14  C   UNL     1      28.793  43.542  53.858  1.00  0.00     0.059 A 
HETATM   15  C   UNL     1      29.961  42.952  54.370  1.00  0.00     0.031 A 
HETATM   16  C   UNL     1      30.681  43.571  55.396  1.00  0.00     0.002 A 
HETATM   17  C   UNL     1      30.242  44.782  55.923  1.00  0.00     0.000 A 
HETATM   18  C   UNL     1      29.083  45.373  55.427  1.00  0.00     0.002 A 
HETATM   19  C   UNL     1      28.359  44.758  54.399  1.00  0.00     0.031 A 
ENDBRANCH   8  14
ENDBRANCH   1   5
BRANCH   2  20
HETATM   20  N   UNL     1      22.437  45.819  49.347  1.00  0.00    -0.273 N 
HETATM   21  H   UNL     1      21.595  45.635  49.892  1.00  0.00     0.189 HD
BRANCH  20  22
HETATM   22  C   UNL     1      22.324  46.050  48.003  1.00  0.00     0.191 C 
HETATM   23  N   UNL     1      22.114  47.325  47.578  1.00  0.00    -0.331 N 
HETATM   24  H   UNL     1      21.816  47.370  46.605  1.00  0.00     0.168 HD
HETATM   25  S   UNL     1      22.377  44.843  46.835  1.00  0.00    -0.039 SA
BRANCH  23  26
HETATM   26  C   UNL     1      22.226  48.587  48.207  1.00  0.00     0.056 A 
HETATM   27  C   UNL     1      21.113  49.068  48.925  1.00  0.00     0.060 A 
HETATM   28 CL   UNL     1      19.659  48.134  49.050  1.00  0.00    -0.082 Cl
HETATM   29  C   UNL     1      21.150  50.307  49.570  1.00  0.00     0.026 A 
HETATM   30  C   UNL     1      22.296  51.093  49.493  1.00  0.00     0.002 A 
HETATM   31  C   UNL     1      23.390  50.647  48.755  1.00  0.00     0.002 A 
HETATM   32  C   UNL     1      23.354  49.407  48.106  1.00  0.00     0.031 A 
ENDBRANCH  23  26
ENDBRANCH  20  22
ENDBRANCH   2  20
TORSDOF 5
ENDMDL
MODEL 7
REMARK VINA RESULT:      -9.2      1.959      2.673
REMARK  5 active torsions:
REMARK  status: ('A' for Active; 'I' for Inactive)
REMARK    1  A    between atoms: N_4  and  C_5 
REMARK    2  A    between atoms: C_14  and  C_15 
REMARK       I    between atoms: C_15  and  N_16 
REMARK    3  A    between atoms: N_16  and  N_17 
REMARK    4  A    between atoms: N_17  and  C_18 
REMARK    5  A    between atoms: N_19  and  C_20 
ROOT
HETATM    1  C   UNL     1      24.215  44.666  50.846  1.00  0.00     0.277 C 
HETATM    2  N   UNL     1      24.369  45.980  50.442  1.00  0.00    -0.263 N 
HETATM    3  O   UNL     1      23.141  44.078  50.718  1.00  0.00    -0.265 OA
HETATM    4  H   UNL     1      25.240  46.488  50.583  1.00  0.00     0.190 HD
ENDROOT
BRANCH   1   5
HETATM    5  C   UNL     1      25.402  44.046  51.420  1.00  0.00     0.077 A 
HETATM    6  S   UNL     1      26.236  44.765  52.778  1.00  0.00    -0.064 SA
HETATM    7  C   UNL     1      27.384  43.559  52.751  1.00  0.00     0.113 A 
HETATM    8  N   UNL     1      28.533  43.179  53.399  1.00  0.00    -0.226 N 
HETATM    9  C   UNL     1      27.153  42.658  51.791  1.00  0.00     0.027 A 
HETATM   10  N   UNL     1      29.005  42.001  52.839  1.00  0.00    -0.171 NA
HETATM   11  C   UNL     1      28.144  41.696  51.848  1.00  0.00     0.064 A 
HETATM   12  C   UNL     1      28.338  40.486  51.019  1.00  0.00     0.073 C 
HETATM   13  C   UNL     1      26.037  42.879  50.991  1.00  0.00     0.041 A 
BRANCH   8  14
HETATM   14  C   UNL     1      29.249  43.795  54.469  1.00  0.00     0.059 A 
HETATM   15  C   UNL     1      28.825  45.051  54.935  1.00  0.00     0.031 A 
HETATM   16  C   UNL     1      29.491  45.682  55.990  1.00  0.00     0.002 A 
HETATM   17  C   UNL     1      30.586  45.067  56.589  1.00  0.00     0.000 A 
HETATM   18  C   UNL     1      31.018  43.825  56.132  1.00  0.00     0.002 A 
HETATM   19  C   UNL     1      30.355  43.189  55.077  1.00  0.00     0.031 A 
ENDBRANCH   8  14
ENDBRANCH   1   5
BRANCH   2  20
HETATM   20  N   UNL     1      23.294  46.678  49.875  1.00  0.00    -0.273 N 
HETATM   21  H   UNL     1      22.550  46.079  49.519  1.00  0.00     0.189 HD
BRANCH  20  22
HETATM   22  C   UNL     1      23.492  47.906  49.303  1.00  0.00     0.191 C 
HETATM   23  N   UNL     1      22.412  48.583  48.826  1.00  0.00    -0.331 N 
HETATM   24  H   UNL     1      22.672  49.361  48.223  1.00  0.00     0.168 HD
HETATM   25  S   UNL     1      25.001  48.616  49.103  1.00  0.00    -0.039 SA
BRANCH  23  26
HETATM   26  C   UNL     1      21.017  48.426  48.999  1.00  0.00     0.056 A 
HETATM   27  C   UNL     1      20.313  49.455  49.658  1.00  0.00     0.060 A 
HETATM   28 CL   UNL     1      21.129  50.876  50.221  1.00  0.00    -0.082 Cl
HETATM   29  C   UNL     1      18.935  49.368  49.866  1.00  0.00     0.026 A 
HETATM   30  C   UNL     1      18.240  48.241  49.434  1.00  0.00     0.002 A 
HETATM   31  C   UNL     1      18.928  47.201  48.816  1.00  0.00     0.002 A 
HETATM   32  C   UNL     1      20.310  47.286  48.608  1.00  0.00     0.031 A 
ENDBRANCH  23  26
ENDBRANCH  20  22
ENDBRANCH   2  20
TORSDOF 5
ENDMDL
MODEL 8
REMARK VINA RESULT:      -9.1      3.121      4.481
REMARK  5 active torsions:
REMARK  status: ('A' for Active; 'I' for Inactive)
REMARK    1  A    between atoms: N_4  and  C_5 
REMARK    2  A    between atoms: C_14  and  C_15 
REMARK       I    between atoms: C_15  and  N_16 
REMARK    3  A    between atoms: N_16  and  N_17 
REMARK    4  A    between atoms: N_17  and  C_18 
REMARK    5  A    between atoms: N_19  and  C_20 
ROOT
HETATM    1  C   UNL     1      24.790  45.460  51.274  1.00  0.00     0.277 C 
HETATM    2  N   UNL     1      24.214  46.531  50.616  1.00  0.00    -0.263 N 
HETATM    3  O   UNL     1      24.583  44.301  50.915  1.00  0.00    -0.265 OA
HETATM    4  H   UNL     1      24.344  47.490  50.931  1.00  0.00     0.190 HD
ENDROOT
BRANCH   1   5
HETATM    5  C   UNL     1      25.645  45.807  52.402  1.00  0.00     0.077 A 
HETATM    6  S   UNL     1      26.985  44.787  52.874  1.00  0.00    -0.064 SA
HETATM    7  C   UNL     1      27.344  45.797  54.148  1.00  0.00     0.113 A 
HETATM    8  N   UNL     1      28.226  45.904  55.195  1.00  0.00    -0.226 N 
HETATM    9  C   UNL     1      26.521  46.847  54.214  1.00  0.00     0.027 A 
HETATM   10  N   UNL     1      27.952  47.063  55.906  1.00  0.00    -0.171 NA
HETATM   11  C   UNL     1      26.897  47.630  55.289  1.00  0.00     0.064 A 
HETATM   12  C   UNL     1      26.320  48.901  55.783  1.00  0.00     0.073 C 
HETATM   13  C   UNL     1      25.523  46.912  53.246  1.00  0.00     0.041 A 
BRANCH   8  14
HETATM   14  C   UNL     1      29.282  45.043  55.617  1.00  0.00     0.059 A 
HETATM   15  C   UNL     1      29.981  45.353  56.797  1.00  0.00     0.031 A 
HETATM   16  C   UNL     1      31.013  44.527  57.252  1.00  0.00     0.002 A 
HETATM   17  C   UNL     1      31.360  43.386  56.535  1.00  0.00     0.000 A 
HETATM   18  C   UNL     1      30.679  43.073  55.362  1.00  0.00     0.002 A 
HETATM   19  C   UNL     1      29.644  43.895  54.902  1.00  0.00     0.031 A 
ENDBRANCH   8  14
ENDBRANCH   1   5
BRANCH   2  20
HETATM   20  N   UNL     1      23.373  46.318  49.515  1.00  0.00    -0.273 N 
HETATM   21  H   UNL     1      23.519  45.424  49.046  1.00  0.00     0.189 HD
BRANCH  20  22
HETATM   22  C   UNL     1      22.896  47.378  48.793  1.00  0.00     0.191 C 
HETATM   23  N   UNL     1      22.182  47.128  47.662  1.00  0.00    -0.331 N 
HETATM   24  H   UNL     1      22.070  47.954  47.078  1.00  0.00     0.168 HD
HETATM   25  S   UNL     1      23.180  48.987  49.188  1.00  0.00    -0.039 SA
BRANCH  23  26
HETATM   26  C   UNL     1      21.570  45.964  47.142  1.00  0.00     0.056 A 
HETATM   27  C   UNL     1      20.227  45.711  47.491  1.00  0.00     0.060 A 
HETATM   28 CL   UNL     1      19.349  46.801  48.511  1.00  0.00    -0.082 Cl
HETATM   29  C   UNL     1      19.559  44.580  47.016  1.00  0.00     0.026 A 
HETATM   30  C   UNL     1      20.227  43.673  46.198  1.00  0.00     0.002 A 
HETATM   31  C   UNL     1      21.564  43.891  45.875  1.00  0.00     0.002 A 
HETATM   32  C   UNL     1      22.236  45.023  46.352  1.00  0.00     0.031 A 
ENDBRANCH  23  26
ENDBRANCH  20  22
ENDBRANCH   2  20
TORSDOF 5
ENDMDL
MODEL 9
REMARK VINA RESULT:      -8.8      4.082      5.264
REMARK  5 active torsions:
REMARK  status: ('A' for Active; 'I' for Inactive)
REMARK    1  A    between atoms: N_4  and  C_5 
REMARK    2  A    between atoms: C_14  and  C_15 
REMARK       I    between atoms: C_15  and  N_16 
REMARK    3  A    between atoms: N_16  and  N_17 
REMARK    4  A    between atoms: N_17  and  C_18 
REMARK    5  A    between atoms: N_19  and  C_20 
ROOT
HETATM    1  C   UNL     1      25.274  44.780  51.334  1.00  0.00     0.277 C 
HETATM    2  N   UNL     1      25.996  44.601  50.169  1.00  0.00    -0.263 N 
HETATM    3  O   UNL     1      24.070  44.527  51.387  1.00  0.00    -0.265 OA
HETATM    4  H   UNL     1      26.982  44.848  50.103  1.00  0.00     0.190 HD
ENDROOT
BRANCH   1   5
HETATM    5  C   UNL     1      26.036  45.279  52.472  1.00  0.00     0.077 A 
HETATM    6  S   UNL     1      27.399  44.390  53.112  1.00  0.00    -0.064 SA
HETATM    7  C   UNL     1      27.621  45.530  54.305  1.00  0.00     0.113 A 
HETATM    8  N   UNL     1      28.429  45.784  55.386  1.00  0.00    -0.226 N 
HETATM    9  C   UNL     1      26.738  46.529  54.225  1.00  0.00     0.027 A 
HETATM   10  N   UNL     1      28.046  46.983  55.969  1.00  0.00    -0.171 NA
HETATM   11  C   UNL     1      27.001  47.427  55.242  1.00  0.00     0.064 A 
HETATM   12  C   UNL     1      26.325  48.699  55.582  1.00  0.00     0.073 C 
HETATM   13  C   UNL     1      25.800  46.446  53.200  1.00  0.00     0.041 A 
BRANCH   8  14
HETATM   14  C   UNL     1      29.503  45.032  55.946  1.00  0.00     0.059 A 
HETATM   15  C   UNL     1      30.025  45.417  57.193  1.00  0.00     0.031 A 
HETATM   16  C   UNL     1      31.068  44.697  57.783  1.00  0.00     0.002 A 
HETATM   17  C   UNL     1      31.603  43.588  57.134  1.00  0.00     0.000 A 
HETATM   18  C   UNL     1      31.098  43.201  55.896  1.00  0.00     0.002 A 
HETATM   19  C   UNL     1      30.053  43.917  55.302  1.00  0.00     0.031 A 
ENDBRANCH   8  14
ENDBRANCH   1   5
BRANCH   2  20
HETATM   20  N   UNL     1      25.367  44.125  49.010  1.00  0.00    -0.273 N 
HETATM   21  H   UNL     1      24.993  44.858  48.409  1.00  0.00     0.189 HD
BRANCH  20  22
HETATM   22  C   UNL     1      24.778  42.890  49.001  1.00  0.00     0.191 C 
HETATM   23  N   UNL     1      23.450  42.804  48.714  1.00  0.00    -0.331 N 
HETATM   24  H   UNL     1      23.055  41.898  48.954  1.00  0.00     0.168 HD
HETATM   25  S   UNL     1      25.582  41.463  49.377  1.00  0.00    -0.039 SA
BRANCH  23  26
HETATM   26  C   UNL     1      22.520  43.711  48.154  1.00  0.00     0.056 A 
HETATM   27  C   UNL     1      22.465  43.817  46.749  1.00  0.00     0.060 A 
HETATM   28 CL   UNL     1      23.490  42.852  45.740  1.00  0.00    -0.082 Cl
HETATM   29  C   UNL     1      21.573  44.693  46.126  1.00  0.00     0.026 A 
HETATM   30  C   UNL     1      20.734  45.491  46.899  1.00  0.00     0.002 A 
HETATM   31  C   UNL     1      20.804  45.425  48.288  1.00  0.00     0.002 A 
HETATM   32  C   UNL     1      21.699  44.549  48.914  1.00  0.00     0.031 A 
ENDBRANCH  23  26
ENDBRANCH  20  22
ENDBRANCH   2  20
TORSDOF 5
ENDMDL
MODEL 10
REMARK VINA RESULT:      -8.5      3.618      9.329
REMARK  5 active torsions:
REMARK  status: ('A' for Active; 'I' for Inactive)
REMARK    1  A    between atoms: N_4  and  C_5 
REMARK    2  A    between atoms: C_14  and  C_15 
REMARK       I    between atoms: C_15  and  N_16 
REMARK    3  A    between atoms: N_16  and  N_17 
REMARK    4  A    between atoms: N_17  and  C_18 
REMARK    5  A    between atoms: N_19  and  C_20 
ROOT
HETATM    1  C   UNL     1      24.848  43.238  50.644  1.00  0.00     0.277 C 
HETATM    2  N   UNL     1      25.528  43.829  51.693  1.00  0.00    -0.263 N 
HETATM    3  O   UNL     1      24.815  42.014  50.510  1.00  0.00    -0.265 OA
HETATM    4  H   UNL     1      25.597  44.840  51.789  1.00  0.00     0.190 HD
ENDROOT
BRANCH   1   5
HETATM    5  C   UNL     1      24.186  44.160  49.731  1.00  0.00     0.077 A 
HETATM    6  S   UNL     1      24.031  45.860  50.109  1.00  0.00    -0.064 SA
HETATM    7  C   UNL     1      23.187  46.128  48.699  1.00  0.00     0.113 A 
HETATM    8  N   UNL     1      22.561  47.144  48.019  1.00  0.00    -0.226 N 
HETATM    9  C   UNL     1      23.039  45.015  47.975  1.00  0.00     0.027 A 
HETATM   10  N   UNL     1      22.038  46.645  46.835  1.00  0.00    -0.171 NA
HETATM   11  C   UNL     1      22.340  45.332  46.825  1.00  0.00     0.064 A 
HETATM   12  C   UNL     1      21.930  44.467  45.697  1.00  0.00     0.073 C 
HETATM   13  C   UNL     1      23.584  43.852  48.509  1.00  0.00     0.041 A 
BRANCH   8  14
HETATM   14  C   UNL     1      22.382  48.519  48.353  1.00  0.00     0.059 A 
HETATM   15  C   UNL     1      21.274  48.889  49.134  1.00  0.00     0.031 A 
HETATM   16  C   UNL     1      21.070  50.224  49.496  1.00  0.00     0.002 A 
HETATM   17  C   UNL     1      21.968  51.203  49.080  1.00  0.00     0.000 A 
HETATM   18  C   UNL     1      23.066  50.849  48.301  1.00  0.00     0.002 A 
HETATM   19  C   UNL     1      23.275  49.513  47.938  1.00  0.00     0.031 A 
ENDBRANCH   8  14
ENDBRANCH   1   5
BRANCH   2  20
HETATM   20  N   UNL     1      26.203  43.040  52.636  1.00  0.00    -0.273 N 
HETATM   21  H   UNL     1      25.834  43.117  53.583  1.00  0.00     0.189 HD
BRANCH  20  22
HETATM   22  C   UNL     1      27.523  42.727  52.457  1.00  0.00     0.191 C 
HETATM   23  N   UNL     1      28.465  43.539  53.009  1.00  0.00    -0.331 N 
HETATM   24  H   UNL     1      29.397  43.367  52.638  1.00  0.00     0.168 HD
HETATM   25  S   UNL     1      28.064  41.421  51.548  1.00  0.00    -0.039 SA
BRANCH  23  26
HETATM   26  C   UNL     1      28.410  44.562  53.984  1.00  0.00     0.056 A 
HETATM   27  C   UNL     1      29.348  44.524  55.035  1.00  0.00     0.060 A 
HETATM   28 CL   UNL     1      30.544  43.274  55.120  1.00  0.00    -0.082 Cl
HETATM   29  C   UNL     1      29.352  45.500  56.035  1.00  0.00     0.026 A 
HETATM   30  C   UNL     1      28.406  46.520  56.010  1.00  0.00     0.002 A 
HETATM   31  C   UNL     1      27.449  46.550  54.998  1.00  0.00     0.002 A 
HETATM   32  C   UNL     1      27.443  45.572  53.997  1.00  0.00     0.031 A 
ENDBRANCH  23  26
ENDBRANCH  20  22
ENDBRANCH   2  20
TORSDOF 5
ENDMDL
