MODEL 1
REMARK VINA RESULT:      -8.7      0.000      0.000
REMARK  3 active torsions:
REMARK  status: ('A' for Active; 'I' for Inactive)
REMARK    1  A    between atoms: C_3  and  N_4 
REMARK    2  A    between atoms: C_10  and  O_11 
REMARK    3  A    between atoms: C_14  and  C_15 
ROOT
HETATM    1  N   UNL     1      25.949  47.039  51.065  1.00  0.00    -0.212 N 
HETATM    2  N   UNL     1      25.528  47.406  52.311  1.00  0.00    -0.177 NA
HETATM    3  C   UNL     1      25.555  46.289  53.029  1.00  0.00     0.152 A 
HETATM    4  C   UNL     1      26.022  45.179  52.302  1.00  0.00     0.027 A 
HETATM    5  C   UNL     1      26.301  45.682  51.038  1.00  0.00     0.163 A 
HETATM    6  N   UNL     1      26.890  45.060  49.982  1.00  0.00    -0.208 NA
HETATM    7  C   UNL     1      26.370  43.927  49.642  1.00  0.00     0.149 C 
HETATM    8  C   UNL     1      25.187  43.217  50.241  1.00  0.00     0.161 C 
HETATM    9  S   UNL     1      25.601  42.417  51.821  1.00  0.00    -0.146 SA
HETATM   10  C   UNL     1      26.271  43.806  52.838  1.00  0.00     0.124 C 
ENDROOT
BRANCH  10  11
HETATM   11  C   UNL     1      27.731  43.600  53.184  1.00  0.00     0.028 A 
HETATM   12  C   UNL     1      28.126  44.080  54.553  1.00  0.00     0.253 A 
HETATM   13  O   UNL     1      27.318  44.585  55.326  1.00  0.00    -0.268 OA
HETATM   14  N   UNL     1      29.448  43.926  54.899  1.00  0.00    -0.333 N 
HETATM   15  C   UNL     1      30.397  43.370  54.086  1.00  0.00     0.091 A 
HETATM   16  H   UNL     1      29.700  44.259  55.822  1.00  0.00     0.168 HD
HETATM   17  C   UNL     1      30.060  42.933  52.868  1.00  0.00     0.018 A 
HETATM   18  C   UNL     1      28.694  43.055  52.414  1.00  0.00     0.015 A 
ENDBRANCH  10  11
BRANCH   1  19
HETATM   19  C   UNL     1      25.995  48.025  50.040  1.00  0.00     0.099 A 
HETATM   20  C   UNL     1      27.245  48.570  49.688  1.00  0.00     0.035 A 
HETATM   21  C   UNL     1      27.348  49.518  48.665  1.00  0.00     0.002 A 
HETATM   22  C   UNL     1      26.206  49.947  47.995  1.00  0.00     0.003 A 
HETATM   23  C   UNL     1      24.961  49.440  48.362  1.00  0.00     0.045 A 
HETATM   24  C   UNL     1      24.857  48.491  49.381  1.00  0.00     0.145 A 
HETATM   25  F   UNL     1      23.618  48.145  49.752  1.00  0.00    -0.204 F 
ENDBRANCH   1  19
BRANCH   7  26
HETATM   26  O   UNL     1      26.949  43.280  48.619  1.00  0.00    -0.347 OA
HETATM   27  H   UNL     1      26.234  42.913  48.071  1.00  0.00     0.219 HD
ENDBRANCH   7  26
TORSDOF 3
ENDMDL
MODEL 2
REMARK VINA RESULT:      -7.8     11.817     13.253
REMARK  3 active torsions:
REMARK  status: ('A' for Active; 'I' for Inactive)
REMARK    1  A    between atoms: C_3  and  N_4 
REMARK    2  A    between atoms: C_10  and  O_11 
REMARK    3  A    between atoms: C_14  and  C_15 
ROOT
HETATM    1  N   UNL     1      29.643  48.759  39.419  1.00  0.00    -0.212 N 
HETATM    2  N   UNL     1      30.765  48.660  38.647  1.00  0.00    -0.177 NA
HETATM    3  C   UNL     1      31.393  49.821  38.798  1.00  0.00     0.152 A 
HETATM    4  C   UNL     1      30.736  50.690  39.687  1.00  0.00     0.027 A 
HETATM    5  C   UNL     1      29.618  49.981  40.106  1.00  0.00     0.163 A 
HETATM    6  N   UNL     1      28.705  50.310  41.058  1.00  0.00    -0.208 NA
HETATM    7  C   UNL     1      28.173  51.481  40.939  1.00  0.00     0.149 C 
HETATM    8  C   UNL     1      28.408  52.518  39.875  1.00  0.00     0.161 C 
HETATM    9  S   UNL     1      29.986  53.391  40.112  1.00  0.00    -0.146 SA
HETATM   10  C   UNL     1      31.227  52.023  40.153  1.00  0.00     0.124 C 
ENDROOT
BRANCH  10  11
HETATM   11  C   UNL     1      31.914  51.923  41.499  1.00  0.00     0.028 A 
HETATM   12  C   UNL     1      33.397  51.687  41.432  1.00  0.00     0.253 A 
HETATM   13  O   UNL     1      33.996  51.599  40.365  1.00  0.00    -0.268 OA
HETATM   14  N   UNL     1      34.056  51.574  42.634  1.00  0.00    -0.333 N 
HETATM   15  C   UNL     1      33.448  51.666  43.856  1.00  0.00     0.091 A 
HETATM   16  H   UNL     1      35.053  51.410  42.573  1.00  0.00     0.168 HD
HETATM   17  C   UNL     1      32.131  51.881  43.932  1.00  0.00     0.018 A 
HETATM   18  C   UNL     1      31.352  52.011  42.722  1.00  0.00     0.015 A 
ENDBRANCH  10  11
BRANCH   1  19
HETATM   19  C   UNL     1      28.729  47.668  39.441  1.00  0.00     0.099 A 
HETATM   20  C   UNL     1      29.208  46.396  39.808  1.00  0.00     0.035 A 
HETATM   21  C   UNL     1      28.344  45.299  39.876  1.00  0.00     0.002 A 
HETATM   22  C   UNL     1      26.997  45.453  39.562  1.00  0.00     0.003 A 
HETATM   23  C   UNL     1      26.522  46.701  39.163  1.00  0.00     0.045 A 
HETATM   24  C   UNL     1      27.383  47.798  39.097  1.00  0.00     0.145 A 
HETATM   25  F   UNL     1      26.875  48.929  38.592  1.00  0.00    -0.204 F 
ENDBRANCH   1  19
BRANCH   7  26
HETATM   26  O   UNL     1      27.288  51.841  41.881  1.00  0.00    -0.347 OA
HETATM   27  H   UNL     1      26.638  52.427  41.455  1.00  0.00     0.219 HD
ENDBRANCH   7  26
TORSDOF 3
ENDMDL
MODEL 3
REMARK VINA RESULT:      -7.6     11.757     14.067
REMARK  3 active torsions:
REMARK  status: ('A' for Active; 'I' for Inactive)
REMARK    1  A    between atoms: C_3  and  N_4 
REMARK    2  A    between atoms: C_10  and  O_11 
REMARK    3  A    between atoms: C_14  and  C_15 
ROOT
HETATM    1  N   UNL     1      32.671  50.891  40.731  1.00  0.00    -0.212 N 
HETATM    2  N   UNL     1      32.328  50.633  42.027  1.00  0.00    -0.177 NA
HETATM    3  C   UNL     1      31.022  50.389  41.999  1.00  0.00     0.152 A 
HETATM    4  C   UNL     1      30.482  50.441  40.701  1.00  0.00     0.027 A 
HETATM    5  C   UNL     1      31.564  50.740  39.883  1.00  0.00     0.163 A 
HETATM    6  N   UNL     1      31.621  50.788  38.526  1.00  0.00    -0.208 NA
HETATM    7  C   UNL     1      30.724  51.525  37.956  1.00  0.00     0.149 C 
HETATM    8  C   UNL     1      29.644  52.354  38.595  1.00  0.00     0.161 C 
HETATM    9  S   UNL     1      28.259  51.332  39.182  1.00  0.00    -0.146 SA
HETATM   10  C   UNL     1      29.075  50.118  40.310  1.00  0.00     0.124 C 
ENDROOT
BRANCH  10  11
HETATM   11  C   UNL     1      28.954  48.698  39.796  1.00  0.00     0.028 A 
HETATM   12  C   UNL     1      28.590  47.681  40.840  1.00  0.00     0.253 A 
HETATM   13  O   UNL     1      28.394  47.988  42.012  1.00  0.00    -0.268 OA
HETATM   14  N   UNL     1      28.486  46.376  40.416  1.00  0.00    -0.333 N 
HETATM   15  C   UNL     1      28.688  45.968  39.126  1.00  0.00     0.091 A 
HETATM   16  H   UNL     1      28.245  45.701  41.132  1.00  0.00     0.168 HD
HETATM   17  C   UNL     1      29.006  46.862  38.185  1.00  0.00     0.018 A 
HETATM   18  C   UNL     1      29.141  48.258  38.535  1.00  0.00     0.015 A 
ENDBRANCH  10  11
BRANCH   1  19
HETATM   19  C   UNL     1      34.021  51.228  40.434  1.00  0.00     0.099 A 
HETATM   20  C   UNL     1      35.042  50.366  40.877  1.00  0.00     0.035 A 
HETATM   21  C   UNL     1      36.382  50.635  40.584  1.00  0.00     0.002 A 
HETATM   22  C   UNL     1      36.721  51.775  39.861  1.00  0.00     0.003 A 
HETATM   23  C   UNL     1      35.720  52.652  39.450  1.00  0.00     0.045 A 
HETATM   24  C   UNL     1      34.381  52.383  39.739  1.00  0.00     0.145 A 
HETATM   25  F   UNL     1      33.495  53.333  39.414  1.00  0.00    -0.204 F 
ENDBRANCH   1  19
BRANCH   7  26
HETATM   26  O   UNL     1      30.743  51.570  36.616  1.00  0.00    -0.347 OA
HETATM   27  H   UNL     1      30.478  52.469  36.355  1.00  0.00     0.219 HD
ENDBRANCH   7  26
TORSDOF 3
ENDMDL
MODEL 4
REMARK VINA RESULT:      -7.4     11.622     13.484
REMARK  3 active torsions:
REMARK  status: ('A' for Active; 'I' for Inactive)
REMARK    1  A    between atoms: C_3  and  N_4 
REMARK    2  A    between atoms: C_10  and  O_11 
REMARK    3  A    between atoms: C_14  and  C_15 
ROOT
HETATM    1  N   UNL     1      28.060  48.599  38.682  1.00  0.00    -0.212 N 
HETATM    2  N   UNL     1      28.760  47.427  38.650  1.00  0.00    -0.177 NA
HETATM    3  C   UNL     1      30.035  47.780  38.768  1.00  0.00     0.152 A 
HETATM    4  C   UNL     1      30.208  49.169  38.916  1.00  0.00     0.027 A 
HETATM    5  C   UNL     1      28.921  49.687  38.887  1.00  0.00     0.163 A 
HETATM    6  N   UNL     1      28.509  50.964  39.108  1.00  0.00    -0.208 NA
HETATM    7  C   UNL     1      29.111  51.872  38.414  1.00  0.00     0.149 C 
HETATM    8  C   UNL     1      30.187  51.703  37.376  1.00  0.00     0.161 C 
HETATM    9  S   UNL     1      31.810  51.371  38.127  1.00  0.00    -0.146 SA
HETATM   10  C   UNL     1      31.498  49.880  39.173  1.00  0.00     0.124 C 
ENDROOT
BRANCH  10  11
HETATM   11  C   UNL     1      31.687  50.174  40.647  1.00  0.00     0.028 A 
HETATM   12  C   UNL     1      32.363  49.079  41.424  1.00  0.00     0.253 A 
HETATM   13  O   UNL     1      32.741  48.039  40.893  1.00  0.00    -0.268 OA
HETATM   14  N   UNL     1      32.538  49.300  42.770  1.00  0.00    -0.333 N 
HETATM   15  C   UNL     1      32.144  50.437  43.421  1.00  0.00     0.091 A 
HETATM   16  H   UNL     1      32.990  48.551  43.281  1.00  0.00     0.168 HD
HETATM   17  C   UNL     1      31.547  51.422  42.742  1.00  0.00     0.018 A 
HETATM   18  C   UNL     1      31.316  51.280  41.323  1.00  0.00     0.015 A 
ENDBRANCH  10  11
BRANCH   1  19
HETATM   19  C   UNL     1      26.645  48.556  38.540  1.00  0.00     0.099 A 
HETATM   20  C   UNL     1      26.096  48.625  37.246  1.00  0.00     0.035 A 
HETATM   21  C   UNL     1      24.713  48.554  37.051  1.00  0.00     0.002 A 
HETATM   22  C   UNL     1      23.861  48.431  38.144  1.00  0.00     0.003 A 
HETATM   23  C   UNL     1      24.394  48.398  39.431  1.00  0.00     0.045 A 
HETATM   24  C   UNL     1      25.775  48.466  39.628  1.00  0.00     0.145 A 
HETATM   25  F   UNL     1      26.196  48.549  40.896  1.00  0.00    -0.204 F 
ENDBRANCH   1  19
BRANCH   7  26
HETATM   26  O   UNL     1      28.741  53.142  38.631  1.00  0.00    -0.347 OA
HETATM   27  H   UNL     1      29.543  53.690  38.564  1.00  0.00     0.219 HD
ENDBRANCH   7  26
TORSDOF 3
ENDMDL
MODEL 5
REMARK VINA RESULT:      -7.4     11.149     12.762
REMARK  3 active torsions:
REMARK  status: ('A' for Active; 'I' for Inactive)
REMARK    1  A    between atoms: C_3  and  N_4 
REMARK    2  A    between atoms: C_10  and  O_11 
REMARK    3  A    between atoms: C_14  and  C_15 
ROOT
HETATM    1  N   UNL     1      28.237  48.155  40.181  1.00  0.00    -0.212 N 
HETATM    2  N   UNL     1      29.186  47.451  39.497  1.00  0.00    -0.177 NA
HETATM    3  C   UNL     1      30.144  48.331  39.227  1.00  0.00     0.152 A 
HETATM    4  C   UNL     1      29.878  49.610  39.749  1.00  0.00     0.027 A 
HETATM    5  C   UNL     1      28.653  49.478  40.389  1.00  0.00     0.163 A 
HETATM    6  N   UNL     1      27.992  50.381  41.161  1.00  0.00    -0.208 NA
HETATM    7  C   UNL     1      27.822  51.548  40.633  1.00  0.00     0.149 C 
HETATM    8  C   UNL     1      28.236  52.033  39.270  1.00  0.00     0.161 C 
HETATM    9  S   UNL     1      30.018  52.385  39.185  1.00  0.00    -0.146 SA
HETATM   10  C   UNL     1      30.792  50.792  39.712  1.00  0.00     0.124 C 
ENDROOT
BRANCH  10  11
HETATM   11  C   UNL     1      31.563  50.939  41.007  1.00  0.00     0.028 A 
HETATM   12  C   UNL     1      32.907  51.597  40.867  1.00  0.00     0.253 A 
HETATM   13  O   UNL     1      33.331  51.993  39.786  1.00  0.00    -0.268 OA
HETATM   14  N   UNL     1      33.647  51.734  42.019  1.00  0.00    -0.333 N 
HETATM   15  C   UNL     1      33.231  51.318  43.254  1.00  0.00     0.091 A 
HETATM   16  H   UNL     1      34.552  52.174  41.908  1.00  0.00     0.168 HD
HETATM   17  C   UNL     1      32.035  50.737  43.396  1.00  0.00     0.018 A 
HETATM   18  C   UNL     1      31.188  50.546  42.241  1.00  0.00     0.015 A 
ENDBRANCH  10  11
BRANCH   1  19
HETATM   19  C   UNL     1      27.049  47.487  40.587  1.00  0.00     0.099 A 
HETATM   20  C   UNL     1      27.165  46.253  41.256  1.00  0.00     0.035 A 
HETATM   21  C   UNL     1      26.029  45.573  41.703  1.00  0.00     0.002 A 
HETATM   22  C   UNL     1      24.764  46.104  41.474  1.00  0.00     0.003 A 
HETATM   23  C   UNL     1      24.637  47.306  40.781  1.00  0.00     0.045 A 
HETATM   24  C   UNL     1      25.771  47.989  40.336  1.00  0.00     0.145 A 
HETATM   25  F   UNL     1      25.559  49.071  39.577  1.00  0.00    -0.204 F 
ENDBRANCH   1  19
BRANCH   7  26
HETATM   26  O   UNL     1      27.194  52.465  41.383  1.00  0.00    -0.347 OA
HETATM   27  H   UNL     1      26.673  51.984  42.048  1.00  0.00     0.219 HD
ENDBRANCH   7  26
TORSDOF 3
ENDMDL
MODEL 6
REMARK VINA RESULT:      -7.3     10.890     12.817
REMARK  3 active torsions:
REMARK  status: ('A' for Active; 'I' for Inactive)
REMARK    1  A    between atoms: C_3  and  N_4 
REMARK    2  A    between atoms: C_10  and  O_11 
REMARK    3  A    between atoms: C_14  and  C_15 
ROOT
HETATM    1  N   UNL     1      29.069  49.827  40.793  1.00  0.00    -0.212 N 
HETATM    2  N   UNL     1      29.268  49.055  41.901  1.00  0.00    -0.177 NA
HETATM    3  C   UNL     1      28.523  47.972  41.707  1.00  0.00     0.152 A 
HETATM    4  C   UNL     1      27.854  47.980  40.470  1.00  0.00     0.027 A 
HETATM    5  C   UNL     1      28.236  49.174  39.873  1.00  0.00     0.163 A 
HETATM    6  N   UNL     1      27.972  49.624  38.618  1.00  0.00    -0.208 NA
HETATM    7  C   UNL     1      26.727  49.612  38.272  1.00  0.00     0.149 C 
HETATM    8  C   UNL     1      25.530  49.189  39.080  1.00  0.00     0.161 C 
HETATM    9  S   UNL     1      25.392  47.380  39.197  1.00  0.00    -0.146 SA
HETATM   10  C   UNL     1      27.023  46.874  39.902  1.00  0.00     0.124 C 
ENDROOT
BRANCH  10  11
HETATM   11  C   UNL     1      27.818  46.023  38.933  1.00  0.00     0.028 A 
HETATM   12  C   UNL     1      28.378  44.758  39.521  1.00  0.00     0.253 A 
HETATM   13  O   UNL     1      28.188  44.442  40.692  1.00  0.00    -0.268 OA
HETATM   14  N   UNL     1      29.121  43.965  38.678  1.00  0.00    -0.333 N 
HETATM   15  C   UNL     1      29.367  44.258  37.364  1.00  0.00     0.091 A 
HETATM   16  H   UNL     1      29.495  43.119  39.090  1.00  0.00     0.168 HD
HETATM   17  C   UNL     1      28.871  45.376  36.826  1.00  0.00     0.018 A 
HETATM   18  C   UNL     1      28.080  46.275  37.635  1.00  0.00     0.015 A 
ENDBRANCH  10  11
BRANCH   1  19
HETATM   19  C   UNL     1      29.715  51.093  40.716  1.00  0.00     0.099 A 
HETATM   20  C   UNL     1      31.116  51.141  40.838  1.00  0.00     0.035 A 
HETATM   21  C   UNL     1      31.801  52.356  40.738  1.00  0.00     0.002 A 
HETATM   22  C   UNL     1      31.096  53.538  40.532  1.00  0.00     0.003 A 
HETATM   23  C   UNL     1      29.705  53.504  40.446  1.00  0.00     0.045 A 
HETATM   24  C   UNL     1      29.020  52.291  40.543  1.00  0.00     0.145 A 
HETATM   25  F   UNL     1      27.684  52.359  40.570  1.00  0.00    -0.204 F 
ENDBRANCH   1  19
BRANCH   7  26
HETATM   26  O   UNL     1      26.442  50.027  37.029  1.00  0.00    -0.347 OA
HETATM   27  H   UNL     1      27.275  50.019  36.525  1.00  0.00     0.219 HD
ENDBRANCH   7  26
TORSDOF 3
ENDMDL
MODEL 7
REMARK VINA RESULT:      -7.2     11.514     13.691
REMARK  3 active torsions:
REMARK  status: ('A' for Active; 'I' for Inactive)
REMARK    1  A    between atoms: C_3  and  N_4 
REMARK    2  A    between atoms: C_10  and  O_11 
REMARK    3  A    between atoms: C_14  and  C_15 
ROOT
HETATM    1  N   UNL     1      30.691  49.795  41.315  1.00  0.00    -0.212 N 
HETATM    2  N   UNL     1      29.882  49.261  42.277  1.00  0.00    -0.177 NA
HETATM    3  C   UNL     1      28.707  49.083  41.683  1.00  0.00     0.152 A 
HETATM    4  C   UNL     1      28.717  49.453  40.325  1.00  0.00     0.027 A 
HETATM    5  C   UNL     1      30.015  49.886  40.090  1.00  0.00     0.163 A 
HETATM    6  N   UNL     1      30.596  50.242  38.914  1.00  0.00    -0.208 NA
HETATM    7  C   UNL     1      29.956  51.125  38.220  1.00  0.00     0.149 C 
HETATM    8  C   UNL     1      28.669  51.829  38.551  1.00  0.00     0.161 C 
HETATM    9  S   UNL     1      27.222  50.756  38.298  1.00  0.00    -0.146 SA
HETATM   10  C   UNL     1      27.596  49.284  39.351  1.00  0.00     0.124 C 
ENDROOT
BRANCH  10  11
HETATM   11  C   UNL     1      27.763  48.026  38.524  1.00  0.00     0.028 A 
HETATM   12  C   UNL     1      26.490  47.488  37.933  1.00  0.00     0.253 A 
HETATM   13  O   UNL     1      25.407  48.040  38.103  1.00  0.00    -0.268 OA
HETATM   14  N   UNL     1      26.597  46.336  37.189  1.00  0.00    -0.333 N 
HETATM   15  C   UNL     1      27.772  45.675  36.960  1.00  0.00     0.091 A 
HETATM   16  H   UNL     1      25.730  45.983  36.802  1.00  0.00     0.168 HD
HETATM   17  C   UNL     1      28.914  46.144  37.473  1.00  0.00     0.018 A 
HETATM   18  C   UNL     1      28.901  47.348  38.273  1.00  0.00     0.015 A 
ENDBRANCH  10  11
BRANCH   1  19
HETATM   19  C   UNL     1      32.029  50.136  41.658  1.00  0.00     0.099 A 
HETATM   20  C   UNL     1      33.072  49.305  41.207  1.00  0.00     0.035 A 
HETATM   21  C   UNL     1      34.406  49.615  41.490  1.00  0.00     0.002 A 
HETATM   22  C   UNL     1      34.714  50.745  42.241  1.00  0.00     0.003 A 
HETATM   23  C   UNL     1      33.686  51.553  42.723  1.00  0.00     0.045 A 
HETATM   24  C   UNL     1      32.353  51.247  42.439  1.00  0.00     0.145 A 
HETATM   25  F   UNL     1      31.425  52.003  43.037  1.00  0.00    -0.204 F 
ENDBRANCH   1  19
BRANCH   7  26
HETATM   26  O   UNL     1      30.496  51.475  37.043  1.00  0.00    -0.347 OA
HETATM   27  H   UNL     1      31.131  52.191  37.220  1.00  0.00     0.219 HD
ENDBRANCH   7  26
TORSDOF 3
ENDMDL
MODEL 8
REMARK VINA RESULT:      -7.0      6.437      9.983
REMARK  3 active torsions:
REMARK  status: ('A' for Active; 'I' for Inactive)
REMARK    1  A    between atoms: C_3  and  N_4 
REMARK    2  A    between atoms: C_10  and  O_11 
REMARK    3  A    between atoms: C_14  and  C_15 
ROOT
HETATM    1  N   UNL     1      22.219  48.199  48.038  1.00  0.00    -0.212 N 
HETATM    2  N   UNL     1      22.020  47.117  47.230  1.00  0.00    -0.177 NA
HETATM    3  C   UNL     1      20.705  47.057  47.048  1.00  0.00     0.152 A 
HETATM    4  C   UNL     1      20.014  48.101  47.689  1.00  0.00     0.027 A 
HETATM    5  C   UNL     1      21.007  48.852  48.304  1.00  0.00     0.163 A 
HETATM    6  N   UNL     1      20.898  50.038  48.959  1.00  0.00    -0.208 NA
HETATM    7  C   UNL     1      20.002  50.083  49.888  1.00  0.00     0.149 C 
HETATM    8  C   UNL     1      19.081  48.991  50.360  1.00  0.00     0.161 C 
HETATM    9  S   UNL     1      17.700  48.720  49.208  1.00  0.00    -0.146 SA
HETATM   10  C   UNL     1      18.548  48.381  47.601  1.00  0.00     0.124 C 
ENDROOT
BRANCH  10  11
HETATM   11  C   UNL     1      18.247  49.448  46.568  1.00  0.00     0.028 A 
HETATM   12  C   UNL     1      18.014  48.927  45.177  1.00  0.00     0.253 A 
HETATM   13  O   UNL     1      18.053  47.730  44.913  1.00  0.00    -0.268 OA
HETATM   14  N   UNL     1      17.754  49.866  44.206  1.00  0.00    -0.333 N 
HETATM   15  C   UNL     1      17.694  51.214  44.435  1.00  0.00     0.091 A 
HETATM   16  H   UNL     1      17.605  49.501  43.273  1.00  0.00     0.168 HD
HETATM   17  C   UNL     1      17.893  51.691  45.668  1.00  0.00     0.018 A 
HETATM   18  C   UNL     1      18.176  50.781  46.754  1.00  0.00     0.015 A 
ENDBRANCH  10  11
BRANCH   1  19
HETATM   19  C   UNL     1      23.545  48.512  48.449  1.00  0.00     0.099 A 
HETATM   20  C   UNL     1      24.202  47.631  49.328  1.00  0.00     0.035 A 
HETATM   21  C   UNL     1      25.517  47.877  49.736  1.00  0.00     0.002 A 
HETATM   22  C   UNL     1      26.185  49.012  49.286  1.00  0.00     0.003 A 
HETATM   23  C   UNL     1      25.529  49.908  48.444  1.00  0.00     0.045 A 
HETATM   24  C   UNL     1      24.217  49.662  48.034  1.00  0.00     0.145 A 
HETATM   25  F   UNL     1      23.622  50.629  47.324  1.00  0.00    -0.204 F 
ENDBRANCH   1  19
BRANCH   7  26
HETATM   26  O   UNL     1      19.857  51.250  50.532  1.00  0.00    -0.347 OA
HETATM   27  H   UNL     1      18.970  51.589  50.317  1.00  0.00     0.219 HD
ENDBRANCH   7  26
TORSDOF 3
ENDMDL
MODEL 9
REMARK VINA RESULT:      -7.0      3.219      6.450
REMARK  3 active torsions:
REMARK  status: ('A' for Active; 'I' for Inactive)
REMARK    1  A    between atoms: C_3  and  N_4 
REMARK    2  A    between atoms: C_10  and  O_11 
REMARK    3  A    between atoms: C_14  and  C_15 
ROOT
HETATM    1  N   UNL     1      24.831  43.030  49.355  1.00  0.00    -0.212 N 
HETATM    2  N   UNL     1      23.547  43.433  49.126  1.00  0.00    -0.177 NA
HETATM    3  C   UNL     1      23.422  44.582  49.781  1.00  0.00     0.152 A 
HETATM    4  C   UNL     1      24.610  44.984  50.417  1.00  0.00     0.027 A 
HETATM    5  C   UNL     1      25.525  43.985  50.112  1.00  0.00     0.163 A 
HETATM    6  N   UNL     1      26.857  43.937  50.378  1.00  0.00    -0.208 NA
HETATM    7  C   UNL     1      27.188  44.149  51.609  1.00  0.00     0.149 C 
HETATM    8  C   UNL     1      26.295  44.416  52.790  1.00  0.00     0.161 C 
HETATM    9  S   UNL     1      25.661  46.120  52.793  1.00  0.00    -0.146 SA
HETATM   10  C   UNL     1      24.837  46.269  51.147  1.00  0.00     0.124 C 
ENDROOT
BRANCH  10  11
HETATM   11  C   UNL     1      25.517  47.296  50.265  1.00  0.00     0.028 A 
HETATM   12  C   UNL     1      24.582  48.243  49.566  1.00  0.00     0.253 A 
HETATM   13  O   UNL     1      23.365  48.189  49.717  1.00  0.00    -0.268 OA
HETATM   14  N   UNL     1      25.159  49.180  48.742  1.00  0.00    -0.333 N 
HETATM   15  C   UNL     1      26.507  49.296  48.534  1.00  0.00     0.091 A 
HETATM   16  H   UNL     1      24.516  49.808  48.275  1.00  0.00     0.168 HD
HETATM   17  C   UNL     1      27.352  48.465  49.153  1.00  0.00     0.018 A 
HETATM   18  C   UNL     1      26.838  47.444  50.037  1.00  0.00     0.015 A 
ENDBRANCH  10  11
BRANCH   1  19
HETATM   19  C   UNL     1      25.269  41.792  48.806  1.00  0.00     0.099 A 
HETATM   20  C   UNL     1      25.124  41.582  47.422  1.00  0.00     0.035 A 
HETATM   21  C   UNL     1      25.567  40.396  46.828  1.00  0.00     0.002 A 
HETATM   22  C   UNL     1      26.143  39.399  47.611  1.00  0.00     0.003 A 
HETATM   23  C   UNL     1      26.257  39.584  48.987  1.00  0.00     0.045 A 
HETATM   24  C   UNL     1      25.817  40.769  49.581  1.00  0.00     0.145 A 
HETATM   25  F   UNL     1      25.853  40.818  50.918  1.00  0.00    -0.204 F 
ENDBRANCH   1  19
BRANCH   7  26
HETATM   26  O   UNL     1      28.499  44.132  51.894  1.00  0.00    -0.347 OA
HETATM   27  H   UNL     1      28.771  43.199  51.936  1.00  0.00     0.219 HD
ENDBRANCH   7  26
TORSDOF 3
ENDMDL
MODEL 10
REMARK VINA RESULT:      -6.9      3.260      6.618
REMARK  3 active torsions:
REMARK  status: ('A' for Active; 'I' for Inactive)
REMARK    1  A    between atoms: C_3  and  N_4 
REMARK    2  A    between atoms: C_10  and  O_11 
REMARK    3  A    between atoms: C_14  and  C_15 
ROOT
HETATM    1  N   UNL     1      26.382  41.787  50.177  1.00  0.00    -0.212 N 
HETATM    2  N   UNL     1      25.092  41.658  49.748  1.00  0.00    -0.177 NA
HETATM    3  C   UNL     1      24.427  42.637  50.350  1.00  0.00     0.152 A 
HETATM    4  C   UNL     1      25.251  43.451  51.150  1.00  0.00     0.027 A 
HETATM    5  C   UNL     1      26.521  42.908  51.008  1.00  0.00     0.163 A 
HETATM    6  N   UNL     1      27.708  43.379  51.473  1.00  0.00    -0.208 NA
HETATM    7  C   UNL     1      27.742  43.656  52.735  1.00  0.00     0.149 C 
HETATM    8  C   UNL     1      26.653  43.502  53.762  1.00  0.00     0.161 C 
HETATM    9  S   UNL     1      25.403  44.815  53.630  1.00  0.00    -0.146 SA
HETATM   10  C   UNL     1      24.839  44.691  51.875  1.00  0.00     0.124 C 
ENDROOT
BRANCH  10  11
HETATM   11  C   UNL     1      25.178  45.937  51.083  1.00  0.00     0.028 A 
HETATM   12  C   UNL     1      24.181  46.294  50.017  1.00  0.00     0.253 A 
HETATM   13  O   UNL     1      23.168  45.630  49.821  1.00  0.00    -0.268 OA
HETATM   14  N   UNL     1      24.462  47.411  49.263  1.00  0.00    -0.333 N 
HETATM   15  C   UNL     1      25.570  48.195  49.433  1.00  0.00     0.091 A 
HETATM   16  H   UNL     1      23.784  47.635  48.545  1.00  0.00     0.168 HD
HETATM   17  C   UNL     1      26.463  47.893  50.381  1.00  0.00     0.018 A 
HETATM   18  C   UNL     1      26.256  46.736  51.221  1.00  0.00     0.015 A 
ENDBRANCH  10  11
BRANCH   1  19
HETATM   19  C   UNL     1      27.350  40.845  49.728  1.00  0.00     0.099 A 
HETATM   20  C   UNL     1      27.968  40.011  50.679  1.00  0.00     0.035 A 
HETATM   21  C   UNL     1      28.901  39.047  50.285  1.00  0.00     0.002 A 
HETATM   22  C   UNL     1      29.243  38.917  48.943  1.00  0.00     0.003 A 
HETATM   23  C   UNL     1      28.663  39.763  47.999  1.00  0.00     0.045 A 
HETATM   24  C   UNL     1      27.729  40.724  48.391  1.00  0.00     0.145 A 
HETATM   25  F   UNL     1      27.311  41.573  47.444  1.00  0.00    -0.204 F 
ENDBRANCH   1  19
BRANCH   7  26
HETATM   26  O   UNL     1      28.894  44.147  53.214  1.00  0.00    -0.347 OA
HETATM   27  H   UNL     1      29.447  43.388  53.467  1.00  0.00     0.219 HD
ENDBRANCH   7  26
TORSDOF 3
ENDMDL
