MODEL 1
REMARK VINA RESULT:      -9.2      0.000      0.000
REMARK  6 active torsions:
REMARK  status: ('A' for Active; 'I' for Inactive)
REMARK    1  A    between atoms: C_3  and  C_4 
REMARK    2  A    between atoms: C_4  and  N_5 
REMARK    3  A    between atoms: N_5  and  C_8 
REMARK    4  A    between atoms: C_8  and  C_9 
REMARK    5  A    between atoms: N_12  and  C_13 
REMARK    6  A    between atoms: C_28  and  O_29 
ROOT
HETATM    1  N   UNL     1      23.950  47.437  50.288  1.00  0.00    -0.062 N 
HETATM    2  H   UNL     1      23.417  47.954  50.994  1.00  0.00     0.278 HD
HETATM    3  H   UNL     1      23.745  46.443  50.427  1.00  0.00     0.278 HD
ENDROOT
BRANCH   1   4
HETATM    4  C   UNL     1      23.413  47.809  48.960  1.00  0.00     0.290 C 
BRANCH   4   5
HETATM    5  C   UNL     1      22.271  48.761  49.041  1.00  0.00     0.042 A 
HETATM    6  C   UNL     1      22.097  50.117  48.759  1.00  0.00    -0.025 A 
HETATM    7  C   UNL     1      23.084  51.103  48.228  1.00  0.00     0.051 C 
HETATM    8  C   UNL     1      20.739  50.449  49.092  1.00  0.00     0.001 A 
HETATM    9  C   UNL     1      20.122  49.293  49.553  1.00  0.00     0.043 A 
HETATM   10  C   UNL     1      19.976  51.636  49.047  1.00  0.00     0.051 A 
HETATM   11  N   UNL     1      21.055  48.291  49.505  1.00  0.00    -0.357 N 
HETATM   12  C   UNL     1      18.786  49.260  49.967  1.00  0.00     0.033 A 
HETATM   13  H   UNL     1      20.853  47.340  49.788  1.00  0.00     0.166 HD
HETATM   14  C   UNL     1      18.055  50.454  49.915  1.00  0.00     0.039 A 
HETATM   15  C   UNL     1      18.637  51.635  49.462  1.00  0.00     0.069 A 
BRANCH  15  16
HETATM   16  O   UNL     1      18.022  52.853  49.372  1.00  0.00    -0.356 OA
HETATM   17  C   UNL     1      16.662  52.925  49.785  1.00  0.00     0.210 C 
ENDBRANCH  15  16
ENDBRANCH   4   5
ENDBRANCH   1   4
BRANCH   1  18
HETATM   18  C   UNL     1      25.418  47.656  50.490  1.00  0.00     0.218 C 
HETATM   19  C   UNL     1      25.921  48.524  49.338  1.00  0.00     0.045 C 
BRANCH  18  20
HETATM   20  C   UNL     1      26.178  46.376  50.605  1.00  0.00     0.015 C 
HETATM   21  C   UNL     1      26.338  45.549  51.716  1.00  0.00     0.042 C 
HETATM   22  C   UNL     1      25.727  45.675  53.069  1.00  0.00     0.071 C 
HETATM   23  N   UNL     1      27.183  44.503  51.320  1.00  0.00    -0.238 N 
HETATM   24  N   UNL     1      27.371  44.549  49.975  1.00  0.00    -0.179 NA
HETATM   25  C   UNL     1      26.873  45.709  49.580  1.00  0.00     0.150 C 
BRANCH  23  26
HETATM   26  C   UNL     1      27.816  43.469  52.072  1.00  0.00     0.058 A 
HETATM   27  C   UNL     1      28.731  43.828  53.078  1.00  0.00     0.031 A 
HETATM   28  C   UNL     1      29.372  42.850  53.843  1.00  0.00     0.002 A 
HETATM   29  C   UNL     1      29.095  41.504  53.625  1.00  0.00     0.000 A 
HETATM   30  C   UNL     1      28.171  41.137  52.649  1.00  0.00     0.002 A 
HETATM   31  C   UNL     1      27.529  42.113  51.878  1.00  0.00     0.031 A 
ENDBRANCH  23  26
ENDBRANCH  18  20
ENDBRANCH   1  18
TORSDOF 6
ENDMDL
MODEL 2
REMARK VINA RESULT:      -9.1      1.741      2.621
REMARK  6 active torsions:
REMARK  status: ('A' for Active; 'I' for Inactive)
REMARK    1  A    between atoms: C_3  and  C_4 
REMARK    2  A    between atoms: C_4  and  N_5 
REMARK    3  A    between atoms: N_5  and  C_8 
REMARK    4  A    between atoms: C_8  and  C_9 
REMARK    5  A    between atoms: N_12  and  C_13 
REMARK    6  A    between atoms: C_28  and  O_29 
ROOT
HETATM    1  N   UNL     1      23.051  46.543  49.338  1.00  0.00    -0.062 N 
HETATM    2  H   UNL     1      22.613  46.597  50.263  1.00  0.00     0.278 HD
HETATM    3  H   UNL     1      22.340  46.186  48.692  1.00  0.00     0.278 HD
ENDROOT
BRANCH   1   4
HETATM    4  C   UNL     1      23.368  47.924  48.913  1.00  0.00     0.290 C 
BRANCH   4   5
HETATM    5  C   UNL     1      22.210  48.852  49.039  1.00  0.00     0.042 A 
HETATM    6  C   UNL     1      22.009  50.215  48.808  1.00  0.00    -0.025 A 
HETATM    7  C   UNL     1      22.974  51.237  48.307  1.00  0.00     0.051 C 
HETATM    8  C   UNL     1      20.649  50.509  49.165  1.00  0.00     0.001 A 
HETATM    9  C   UNL     1      20.057  49.326  49.587  1.00  0.00     0.043 A 
HETATM   10  C   UNL     1      19.864  51.682  49.170  1.00  0.00     0.051 A 
HETATM   11  N   UNL     1      21.006  48.343  49.494  1.00  0.00    -0.357 N 
HETATM   12  C   UNL     1      18.724  49.253  50.010  1.00  0.00     0.033 A 
HETATM   13  H   UNL     1      20.824  47.379  49.743  1.00  0.00     0.166 HD
HETATM   14  C   UNL     1      17.972  50.434  50.009  1.00  0.00     0.039 A 
HETATM   15  C   UNL     1      18.529  51.642  49.595  1.00  0.00     0.069 A 
BRANCH  15  16
HETATM   16  O   UNL     1      17.891  52.851  49.556  1.00  0.00    -0.356 OA
HETATM   17  C   UNL     1      16.497  52.859  49.842  1.00  0.00     0.210 C 
ENDBRANCH  15  16
ENDBRANCH   4   5
ENDBRANCH   1   4
BRANCH   1  18
HETATM   18  C   UNL     1      24.198  45.582  49.367  1.00  0.00     0.218 C 
HETATM   19  C   UNL     1      23.727  44.277  48.725  1.00  0.00     0.045 C 
BRANCH  18  20
HETATM   20  C   UNL     1      24.735  45.370  50.744  1.00  0.00     0.015 C 
HETATM   21  C   UNL     1      25.651  46.144  51.455  1.00  0.00     0.042 C 
HETATM   22  C   UNL     1      26.282  47.436  51.066  1.00  0.00     0.071 C 
HETATM   23  N   UNL     1      25.864  45.491  52.677  1.00  0.00    -0.238 N 
HETATM   24  N   UNL     1      24.969  44.478  52.820  1.00  0.00    -0.179 NA
HETATM   25  C   UNL     1      24.387  44.342  51.640  1.00  0.00     0.150 C 
BRANCH  23  26
HETATM   26  C   UNL     1      26.810  45.730  53.719  1.00  0.00     0.058 A 
HETATM   27  C   UNL     1      27.859  44.812  53.902  1.00  0.00     0.031 A 
HETATM   28  C   UNL     1      28.811  45.007  54.906  1.00  0.00     0.002 A 
HETATM   29  C   UNL     1      28.736  46.127  55.728  1.00  0.00     0.000 A 
HETATM   30  C   UNL     1      27.716  47.057  55.540  1.00  0.00     0.002 A 
HETATM   31  C   UNL     1      26.758  46.865  54.537  1.00  0.00     0.031 A 
ENDBRANCH  23  26
ENDBRANCH  18  20
ENDBRANCH   1  18
TORSDOF 6
ENDMDL
MODEL 3
REMARK VINA RESULT:      -9.1      4.024     10.252
REMARK  6 active torsions:
REMARK  status: ('A' for Active; 'I' for Inactive)
REMARK    1  A    between atoms: C_3  and  C_4 
REMARK    2  A    between atoms: C_4  and  N_5 
REMARK    3  A    between atoms: N_5  and  C_8 
REMARK    4  A    between atoms: C_8  and  C_9 
REMARK    5  A    between atoms: N_12  and  C_13 
REMARK    6  A    between atoms: C_28  and  O_29 
ROOT
HETATM    1  N   UNL     1      25.025  43.321  51.630  1.00  0.00    -0.062 N 
HETATM    2  H   UNL     1      24.296  42.753  52.074  1.00  0.00     0.278 HD
HETATM    3  H   UNL     1      25.228  44.097  52.268  1.00  0.00     0.278 HD
ENDROOT
BRANCH   1   4
HETATM    4  C   UNL     1      26.249  42.495  51.550  1.00  0.00     0.290 C 
BRANCH   4   5
HETATM    5  C   UNL     1      27.297  42.912  52.523  1.00  0.00     0.042 A 
HETATM    6  C   UNL     1      28.491  42.354  52.985  1.00  0.00    -0.025 A 
HETATM    7  C   UNL     1      29.143  41.070  52.595  1.00  0.00     0.051 C 
HETATM    8  C   UNL     1      29.027  43.255  53.968  1.00  0.00     0.001 A 
HETATM    9  C   UNL     1      28.160  44.335  54.070  1.00  0.00     0.043 A 
HETATM   10  C   UNL     1      30.176  43.247  54.788  1.00  0.00     0.051 A 
HETATM   11  N   UNL     1      27.135  44.115  53.188  1.00  0.00    -0.357 N 
HETATM   12  C   UNL     1      28.381  45.406  54.943  1.00  0.00     0.033 A 
HETATM   13  H   UNL     1      26.366  44.762  53.068  1.00  0.00     0.166 HD
HETATM   14  C   UNL     1      29.528  45.369  55.747  1.00  0.00     0.039 A 
HETATM   15  C   UNL     1      30.421  44.302  55.677  1.00  0.00     0.069 A 
BRANCH  15  16
HETATM   16  O   UNL     1      31.565  44.161  56.414  1.00  0.00    -0.356 OA
HETATM   17  C   UNL     1      31.553  43.184  57.449  1.00  0.00     0.210 C 
ENDBRANCH  15  16
ENDBRANCH   4   5
ENDBRANCH   1   4
BRANCH   1  18
HETATM   18  C   UNL     1      24.523  43.884  50.337  1.00  0.00     0.218 C 
HETATM   19  C   UNL     1      25.441  43.380  49.224  1.00  0.00     0.045 C 
BRANCH  18  20
HETATM   20  C   UNL     1      24.428  45.374  50.357  1.00  0.00     0.015 C 
HETATM   21  C   UNL     1      23.684  46.215  49.531  1.00  0.00     0.042 C 
HETATM   22  C   UNL     1      22.721  45.852  48.454  1.00  0.00     0.071 C 
HETATM   23  N   UNL     1      23.980  47.527  49.923  1.00  0.00    -0.238 N 
HETATM   24  N   UNL     1      24.701  47.511  51.076  1.00  0.00    -0.179 NA
HETATM   25  C   UNL     1      25.054  46.250  51.262  1.00  0.00     0.150 C 
BRANCH  23  26
HETATM   26  C   UNL     1      23.645  48.784  49.335  1.00  0.00     0.058 A 
HETATM   27  C   UNL     1      24.559  49.379  48.447  1.00  0.00     0.031 A 
HETATM   28  C   UNL     1      24.273  50.605  47.843  1.00  0.00     0.002 A 
HETATM   29  C   UNL     1      23.065  51.245  48.105  1.00  0.00     0.000 A 
HETATM   30  C   UNL     1      22.141  50.654  48.963  1.00  0.00     0.002 A 
HETATM   31  C   UNL     1      22.424  49.426  49.573  1.00  0.00     0.031 A 
ENDBRANCH  23  26
ENDBRANCH  18  20
ENDBRANCH   1  18
TORSDOF 6
ENDMDL
MODEL 4
REMARK VINA RESULT:      -8.7      1.379      2.119
REMARK  6 active torsions:
REMARK  status: ('A' for Active; 'I' for Inactive)
REMARK    1  A    between atoms: C_3  and  C_4 
REMARK    2  A    between atoms: C_4  and  N_5 
REMARK    3  A    between atoms: N_5  and  C_8 
REMARK    4  A    between atoms: C_8  and  C_9 
REMARK    5  A    between atoms: N_12  and  C_13 
REMARK    6  A    between atoms: C_28  and  O_29 
ROOT
HETATM    1  N   UNL     1      23.532  46.381  49.950  1.00  0.00    -0.062 N 
HETATM    2  H   UNL     1      22.718  46.323  50.571  1.00  0.00     0.278 HD
HETATM    3  H   UNL     1      23.745  45.425  49.648  1.00  0.00     0.278 HD
ENDROOT
BRANCH   1   4
HETATM    4  C   UNL     1      23.124  47.135  48.744  1.00  0.00     0.290 C 
BRANCH   4   5
HETATM    5  C   UNL     1      21.914  47.974  48.966  1.00  0.00     0.042 A 
HETATM    6  C   UNL     1      20.539  47.778  48.822  1.00  0.00    -0.025 A 
HETATM    7  C   UNL     1      19.803  46.557  48.379  1.00  0.00     0.051 C 
HETATM    8  C   UNL     1      19.895  49.014  49.170  1.00  0.00     0.001 A 
HETATM    9  C   UNL     1      20.885  49.920  49.528  1.00  0.00     0.043 A 
HETATM   10  C   UNL     1      18.552  49.449  49.210  1.00  0.00     0.051 A 
HETATM   11  N   UNL     1      22.087  49.274  49.409  1.00  0.00    -0.357 N 
HETATM   12  C   UNL     1      20.605  51.233  49.926  1.00  0.00     0.033 A 
HETATM   13  H   UNL     1      22.972  49.719  49.616  1.00  0.00     0.166 HD
HETATM   14  C   UNL     1      19.264  51.636  49.952  1.00  0.00     0.039 A 
HETATM   15  C   UNL     1      18.242  50.759  49.598  1.00  0.00     0.069 A 
BRANCH  15  16
HETATM   16  O   UNL     1      16.904  51.046  49.584  1.00  0.00    -0.356 OA
HETATM   17  C   UNL     1      16.534  52.417  49.655  1.00  0.00     0.210 C 
ENDBRANCH  15  16
ENDBRANCH   4   5
ENDBRANCH   1   4
BRANCH   1  18
HETATM   18  C   UNL     1      24.711  46.921  50.698  1.00  0.00     0.218 C 
HETATM   19  C   UNL     1      25.466  47.862  49.759  1.00  0.00     0.045 C 
BRANCH  18  20
HETATM   20  C   UNL     1      25.591  45.843  51.240  1.00  0.00     0.015 C 
HETATM   21  C   UNL     1      26.463  45.888  52.326  1.00  0.00     0.042 C 
HETATM   22  C   UNL     1      26.697  46.999  53.290  1.00  0.00     0.071 C 
HETATM   23  N   UNL     1      27.092  44.637  52.388  1.00  0.00    -0.238 N 
HETATM   24  N   UNL     1      26.491  43.776  51.523  1.00  0.00    -0.179 NA
HETATM   25  C   UNL     1      25.689  44.518  50.777  1.00  0.00     0.150 C 
BRANCH  23  26
HETATM   26  C   UNL     1      28.185  44.170  53.179  1.00  0.00     0.058 A 
HETATM   27  C   UNL     1      29.141  43.329  52.582  1.00  0.00     0.031 A 
HETATM   28  C   UNL     1      30.229  42.852  53.316  1.00  0.00     0.002 A 
HETATM   29  C   UNL     1      30.386  43.221  54.648  1.00  0.00     0.000 A 
HETATM   30  C   UNL     1      29.460  44.074  55.243  1.00  0.00     0.002 A 
HETATM   31  C   UNL     1      28.365  44.553  54.513  1.00  0.00     0.031 A 
ENDBRANCH  23  26
ENDBRANCH  18  20
ENDBRANCH   1  18
TORSDOF 6
ENDMDL
MODEL 5
REMARK VINA RESULT:      -8.6      3.683     10.070
REMARK  6 active torsions:
REMARK  status: ('A' for Active; 'I' for Inactive)
REMARK    1  A    between atoms: C_3  and  C_4 
REMARK    2  A    between atoms: C_4  and  N_5 
REMARK    3  A    between atoms: N_5  and  C_8 
REMARK    4  A    between atoms: C_8  and  C_9 
REMARK    5  A    between atoms: N_12  and  C_13 
REMARK    6  A    between atoms: C_28  and  O_29 
ROOT
HETATM    1  N   UNL     1      25.004  44.449  51.426  1.00  0.00    -0.062 N 
HETATM    2  H   UNL     1      24.022  44.391  51.716  1.00  0.00     0.278 HD
HETATM    3  H   UNL     1      25.384  45.310  51.830  1.00  0.00     0.278 HD
ENDROOT
BRANCH   1   4
HETATM    4  C   UNL     1      25.724  43.321  52.058  1.00  0.00     0.290 C 
BRANCH   4   5
HETATM    5  C   UNL     1      26.727  43.763  53.065  1.00  0.00     0.042 A 
HETATM    6  C   UNL     1      26.825  44.838  53.951  1.00  0.00    -0.025 A 
HETATM    7  C   UNL     1      25.864  45.954  54.189  1.00  0.00     0.051 C 
HETATM    8  C   UNL     1      28.083  44.709  54.636  1.00  0.00     0.001 A 
HETATM    9  C   UNL     1      28.706  43.562  54.162  1.00  0.00     0.043 A 
HETATM   10  C   UNL     1      28.752  45.471  55.618  1.00  0.00     0.051 A 
HETATM   11  N   UNL     1      27.872  43.004  53.229  1.00  0.00    -0.357 N 
HETATM   12  C   UNL     1      29.959  43.136  54.619  1.00  0.00     0.033 A 
HETATM   13  H   UNL     1      28.098  42.152  52.733  1.00  0.00     0.166 HD
HETATM   14  C   UNL     1      30.601  43.914  55.591  1.00  0.00     0.039 A 
HETATM   15  C   UNL     1      30.010  45.073  56.089  1.00  0.00     0.069 A 
BRANCH  15  16
HETATM   16  O   UNL     1      30.545  45.907  57.033  1.00  0.00    -0.356 OA
HETATM   17  C   UNL     1      30.827  45.346  58.309  1.00  0.00     0.210 C 
ENDBRANCH  15  16
ENDBRANCH   4   5
ENDBRANCH   1   4
BRANCH   1  18
HETATM   18  C   UNL     1      25.095  44.537  49.934  1.00  0.00     0.218 C 
HETATM   19  C   UNL     1      26.545  44.866  49.577  1.00  0.00     0.045 C 
BRANCH  18  20
HETATM   20  C   UNL     1      24.136  45.525  49.358  1.00  0.00     0.015 C 
HETATM   21  C   UNL     1      24.069  46.903  49.563  1.00  0.00     0.042 C 
HETATM   22  C   UNL     1      24.984  47.775  50.349  1.00  0.00     0.071 C 
HETATM   23  N   UNL     1      22.960  47.362  48.839  1.00  0.00    -0.238 N 
HETATM   24  N   UNL     1      22.483  46.366  48.046  1.00  0.00    -0.179 NA
HETATM   25  C   UNL     1      23.104  45.266  48.437  1.00  0.00     0.150 C 
BRANCH  23  26
HETATM   26  C   UNL     1      22.317  48.636  48.810  1.00  0.00     0.058 A 
HETATM   27  C   UNL     1      23.019  49.735  48.283  1.00  0.00     0.031 A 
HETATM   28  C   UNL     1      22.428  51.000  48.230  1.00  0.00     0.002 A 
HETATM   29  C   UNL     1      21.126  51.180  48.685  1.00  0.00     0.000 A 
HETATM   30  C   UNL     1      20.411  50.094  49.184  1.00  0.00     0.002 A 
HETATM   31  C   UNL     1      20.999  48.825  49.243  1.00  0.00     0.031 A 
ENDBRANCH  23  26
ENDBRANCH  18  20
ENDBRANCH   1  18
TORSDOF 6
ENDMDL
MODEL 6
REMARK VINA RESULT:      -8.4      2.068      3.144
REMARK  6 active torsions:
REMARK  status: ('A' for Active; 'I' for Inactive)
REMARK    1  A    between atoms: C_3  and  C_4 
REMARK    2  A    between atoms: C_4  and  N_5 
REMARK    3  A    between atoms: N_5  and  C_8 
REMARK    4  A    between atoms: C_8  and  C_9 
REMARK    5  A    between atoms: N_12  and  C_13 
REMARK    6  A    between atoms: C_28  and  O_29 
ROOT
HETATM    1  N   UNL     1      24.383  45.778  51.003  1.00  0.00    -0.062 N 
HETATM    2  H   UNL     1      24.542  46.011  51.989  1.00  0.00     0.278 HD
HETATM    3  H   UNL     1      23.370  45.691  50.877  1.00  0.00     0.278 HD
ENDROOT
BRANCH   1   4
HETATM    4  C   UNL     1      24.821  46.937  50.194  1.00  0.00     0.290 C 
BRANCH   4   5
HETATM    5  C   UNL     1      23.688  47.655  49.546  1.00  0.00     0.042 A 
HETATM    6  C   UNL     1      22.703  47.307  48.619  1.00  0.00    -0.025 A 
HETATM    7  C   UNL     1      22.457  45.994  47.954  1.00  0.00     0.051 C 
HETATM    8  C   UNL     1      21.919  48.485  48.372  1.00  0.00     0.001 A 
HETATM    9  C   UNL     1      22.433  49.508  49.158  1.00  0.00     0.043 A 
HETATM   10  C   UNL     1      20.814  48.777  47.544  1.00  0.00     0.051 A 
HETATM   11  N   UNL     1      23.487  48.986  49.862  1.00  0.00    -0.357 N 
HETATM   12  C   UNL     1      21.901  50.803  49.162  1.00  0.00     0.033 A 
HETATM   13  H   UNL     1      24.035  49.533  50.514  1.00  0.00     0.166 HD
HETATM   14  C   UNL     1      20.808  51.064  48.327  1.00  0.00     0.039 A 
HETATM   15  C   UNL     1      20.264  50.066  47.522  1.00  0.00     0.069 A 
BRANCH  15  16
HETATM   16  O   UNL     1      19.203  50.209  46.669  1.00  0.00    -0.356 OA
HETATM   17  C   UNL     1      18.185  51.126  47.050  1.00  0.00     0.210 C 
ENDBRANCH  15  16
ENDBRANCH   4   5
ENDBRANCH   1   4
BRANCH   1  18
HETATM   18  C   UNL     1      25.022  44.465  50.674  1.00  0.00     0.218 C 
HETATM   19  C   UNL     1      24.009  43.364  50.990  1.00  0.00     0.045 C 
BRANCH  18  20
HETATM   20  C   UNL     1      26.316  44.260  51.390  1.00  0.00     0.015 C 
HETATM   21  C   UNL     1      26.591  44.375  52.752  1.00  0.00     0.042 C 
HETATM   22  C   UNL     1      25.652  44.653  53.874  1.00  0.00     0.071 C 
HETATM   23  N   UNL     1      27.964  44.135  52.905  1.00  0.00    -0.238 N 
HETATM   24  N   UNL     1      28.485  43.681  51.735  1.00  0.00    -0.179 NA
HETATM   25  C   UNL     1      27.542  43.863  50.826  1.00  0.00     0.150 C 
BRANCH  23  26
HETATM   26  C   UNL     1      28.824  44.280  54.035  1.00  0.00     0.058 A 
HETATM   27  C   UNL     1      28.687  45.419  54.848  1.00  0.00     0.031 A 
HETATM   28  C   UNL     1      29.503  45.601  55.967  1.00  0.00     0.002 A 
HETATM   29  C   UNL     1      30.453  44.640  56.298  1.00  0.00     0.000 A 
HETATM   30  C   UNL     1      30.581  43.494  55.517  1.00  0.00     0.002 A 
HETATM   31  C   UNL     1      29.768  43.309  54.392  1.00  0.00     0.031 A 
ENDBRANCH  23  26
ENDBRANCH  18  20
ENDBRANCH   1  18
TORSDOF 6
ENDMDL
MODEL 7
REMARK VINA RESULT:      -8.4      2.548      4.136
REMARK  6 active torsions:
REMARK  status: ('A' for Active; 'I' for Inactive)
REMARK    1  A    between atoms: C_3  and  C_4 
REMARK    2  A    between atoms: C_4  and  N_5 
REMARK    3  A    between atoms: N_5  and  C_8 
REMARK    4  A    between atoms: C_8  and  C_9 
REMARK    5  A    between atoms: N_12  and  C_13 
REMARK    6  A    between atoms: C_28  and  O_29 
ROOT
HETATM    1  N   UNL     1      26.311  46.068  51.181  1.00  0.00    -0.062 N 
HETATM    2  H   UNL     1      27.248  46.406  50.940  1.00  0.00     0.278 HD
HETATM    3  H   UNL     1      25.815  46.852  51.617  1.00  0.00     0.278 HD
ENDROOT
BRANCH   1   4
HETATM    4  C   UNL     1      25.607  45.760  49.916  1.00  0.00     0.290 C 
BRANCH   4   5
HETATM    5  C   UNL     1      24.647  46.824  49.511  1.00  0.00     0.042 A 
HETATM    6  C   UNL     1      24.754  48.182  49.203  1.00  0.00    -0.025 A 
HETATM    7  C   UNL     1      25.970  49.047  49.168  1.00  0.00     0.051 C 
HETATM    8  C   UNL     1      23.428  48.659  48.922  1.00  0.00     0.001 A 
HETATM    9  C   UNL     1      22.557  47.585  49.051  1.00  0.00     0.043 A 
HETATM   10  C   UNL     1      22.887  49.914  48.571  1.00  0.00     0.051 A 
HETATM   11  N   UNL     1      23.309  46.493  49.395  1.00  0.00    -0.357 N 
HETATM   12  C   UNL     1      21.177  47.699  48.846  1.00  0.00     0.033 A 
HETATM   13  H   UNL     1      22.907  45.576  49.547  1.00  0.00     0.166 HD
HETATM   14  C   UNL     1      20.668  48.958  48.502  1.00  0.00     0.039 A 
HETATM   15  C   UNL     1      21.508  50.060  48.365  1.00  0.00     0.069 A 
BRANCH  15  16
HETATM   16  O   UNL     1      21.122  51.331  48.038  1.00  0.00    -0.356 OA
HETATM   17  C   UNL     1      19.968  51.847  48.691  1.00  0.00     0.210 C 
ENDBRANCH  15  16
ENDBRANCH   4   5
ENDBRANCH   1   4
BRANCH   1  18
HETATM   18  C   UNL     1      26.406  44.951  52.173  1.00  0.00     0.218 C 
HETATM   19  C   UNL     1      24.982  44.547  52.555  1.00  0.00     0.045 C 
BRANCH  18  20
HETATM   20  C   UNL     1      27.229  45.310  53.366  1.00  0.00     0.015 C 
HETATM   21  C   UNL     1      28.335  44.650  53.897  1.00  0.00     0.042 C 
HETATM   22  C   UNL     1      29.047  43.450  53.373  1.00  0.00     0.071 C 
HETATM   23  N   UNL     1      28.711  45.358  55.047  1.00  0.00    -0.238 N 
HETATM   24  N   UNL     1      28.017  46.524  55.116  1.00  0.00    -0.179 NA
HETATM   25  C   UNL     1      27.074  46.438  54.192  1.00  0.00     0.150 C 
BRANCH  23  26
HETATM   26  C   UNL     1      29.658  45.055  56.071  1.00  0.00     0.058 A 
HETATM   27  C   UNL     1      30.599  44.036  55.841  1.00  0.00     0.031 A 
HETATM   28  C   UNL     1      31.548  43.708  56.812  1.00  0.00     0.002 A 
HETATM   29  C   UNL     1      31.580  44.404  58.017  1.00  0.00     0.000 A 
HETATM   30  C   UNL     1      30.670  45.433  58.246  1.00  0.00     0.002 A 
HETATM   31  C   UNL     1      29.715  45.763  57.277  1.00  0.00     0.031 A 
ENDBRANCH  23  26
ENDBRANCH  18  20
ENDBRANCH   1  18
TORSDOF 6
ENDMDL
MODEL 8
REMARK VINA RESULT:      -8.4      3.495     10.307
REMARK  6 active torsions:
REMARK  status: ('A' for Active; 'I' for Inactive)
REMARK    1  A    between atoms: C_3  and  C_4 
REMARK    2  A    between atoms: C_4  and  N_5 
REMARK    3  A    between atoms: N_5  and  C_8 
REMARK    4  A    between atoms: C_8  and  C_9 
REMARK    5  A    between atoms: N_12  and  C_13 
REMARK    6  A    between atoms: C_28  and  O_29 
ROOT
HETATM    1  N   UNL     1      24.303  47.206  50.884  1.00  0.00    -0.062 N 
HETATM    2  H   UNL     1      23.407  47.359  51.358  1.00  0.00     0.278 HD
HETATM    3  H   UNL     1      24.995  47.795  51.357  1.00  0.00     0.278 HD
ENDROOT
BRANCH   1   4
HETATM    4  C   UNL     1      24.698  45.800  51.115  1.00  0.00     0.290 C 
BRANCH   4   5
HETATM    5  C   UNL     1      25.787  45.661  52.122  1.00  0.00     0.042 A 
HETATM    6  C   UNL     1      26.786  44.717  52.367  1.00  0.00    -0.025 A 
HETATM    7  C   UNL     1      27.102  43.463  51.622  1.00  0.00     0.051 C 
HETATM    8  C   UNL     1      27.504  45.153  53.534  1.00  0.00     0.001 A 
HETATM    9  C   UNL     1      26.937  46.348  53.956  1.00  0.00     0.043 A 
HETATM   10  C   UNL     1      28.588  44.634  54.274  1.00  0.00     0.051 A 
HETATM   11  N   UNL     1      25.916  46.640  53.090  1.00  0.00    -0.357 N 
HETATM   12  C   UNL     1      27.397  47.052  55.075  1.00  0.00     0.033 A 
HETATM   13  H   UNL     1      25.342  47.468  53.180  1.00  0.00     0.166 HD
HETATM   14  C   UNL     1      28.471  46.511  55.793  1.00  0.00     0.039 A 
HETATM   15  C   UNL     1      29.066  45.314  55.403  1.00  0.00     0.069 A 
BRANCH  15  16
HETATM   16  O   UNL     1      30.114  44.695  56.028  1.00  0.00    -0.356 OA
HETATM   17  C   UNL     1      30.570  43.469  55.468  1.00  0.00     0.210 C 
ENDBRANCH  15  16
ENDBRANCH   4   5
ENDBRANCH   1   4
BRANCH   1  18
HETATM   18  C   UNL     1      24.206  47.638  49.453  1.00  0.00     0.218 C 
HETATM   19  C   UNL     1      25.313  48.661  49.201  1.00  0.00     0.045 C 
BRANCH  18  20
HETATM   20  C   UNL     1      22.856  48.171  49.103  1.00  0.00     0.015 C 
HETATM   21  C   UNL     1      22.417  49.494  49.079  1.00  0.00     0.042 C 
HETATM   22  C   UNL     1      23.196  50.741  49.317  1.00  0.00     0.071 C 
HETATM   23  N   UNL     1      21.058  49.459  48.739  1.00  0.00    -0.238 N 
HETATM   24  N   UNL     1      20.711  48.201  48.357  1.00  0.00    -0.179 NA
HETATM   25  C   UNL     1      21.737  47.431  48.679  1.00  0.00     0.150 C 
BRANCH  23  26
HETATM   26  C   UNL     1      20.064  50.484  48.727  1.00  0.00     0.058 A 
HETATM   27  C   UNL     1      19.630  51.018  49.953  1.00  0.00     0.031 A 
HETATM   28  C   UNL     1      18.663  52.025  49.991  1.00  0.00     0.002 A 
HETATM   29  C   UNL     1      18.130  52.523  48.806  1.00  0.00     0.000 A 
HETATM   30  C   UNL     1      18.571  52.020  47.584  1.00  0.00     0.002 A 
HETATM   31  C   UNL     1      19.537  51.008  47.541  1.00  0.00     0.031 A 
ENDBRANCH  23  26
ENDBRANCH  18  20
ENDBRANCH   1  18
TORSDOF 6
ENDMDL
MODEL 9
REMARK VINA RESULT:      -8.2      6.435      9.950
REMARK  6 active torsions:
REMARK  status: ('A' for Active; 'I' for Inactive)
REMARK    1  A    between atoms: C_3  and  C_4 
REMARK    2  A    between atoms: C_4  and  N_5 
REMARK    3  A    between atoms: N_5  and  C_8 
REMARK    4  A    between atoms: C_8  and  C_9 
REMARK    5  A    between atoms: N_12  and  C_13 
REMARK    6  A    between atoms: C_28  and  O_29 
ROOT
HETATM    1  N   UNL     1      25.404  43.208  50.362  1.00  0.00    -0.062 N 
HETATM    2  H   UNL     1      26.351  43.191  49.971  1.00  0.00     0.278 HD
HETATM    3  H   UNL     1      24.833  43.785  49.736  1.00  0.00     0.278 HD
ENDROOT
BRANCH   1   4
HETATM    4  C   UNL     1      24.866  41.832  50.293  1.00  0.00     0.290 C 
BRANCH   4   5
HETATM    5  C   UNL     1      25.781  40.885  49.598  1.00  0.00     0.042 A 
HETATM    6  C   UNL     1      25.759  40.214  48.373  1.00  0.00    -0.025 A 
HETATM    7  C   UNL     1      24.733  40.262  47.291  1.00  0.00     0.051 C 
HETATM    8  C   UNL     1      26.945  39.404  48.312  1.00  0.00     0.001 A 
HETATM    9  C   UNL     1      27.659  39.611  49.485  1.00  0.00     0.043 A 
HETATM   10  C   UNL     1      27.477  38.506  47.361  1.00  0.00     0.051 A 
HETATM   11  N   UNL     1      26.949  40.510  50.238  1.00  0.00    -0.357 N 
HETATM   12  C   UNL     1      28.874  38.972  49.757  1.00  0.00     0.033 A 
HETATM   13  H   UNL     1      27.260  40.831  51.145  1.00  0.00     0.166 HD
HETATM   14  C   UNL     1      29.375  38.083  48.797  1.00  0.00     0.039 A 
HETATM   15  C   UNL     1      28.688  37.847  47.608  1.00  0.00     0.069 A 
BRANCH  15  16
HETATM   16  O   UNL     1      29.080  37.001  46.607  1.00  0.00    -0.356 OA
HETATM   17  C   UNL     1      28.801  37.405  45.271  1.00  0.00     0.210 C 
ENDBRANCH  15  16
ENDBRANCH   4   5
ENDBRANCH   1   4
BRANCH   1  18
HETATM   18  C   UNL     1      25.419  43.844  51.718  1.00  0.00     0.218 C 
HETATM   19  C   UNL     1      24.863  45.260  51.573  1.00  0.00     0.045 C 
BRANCH  18  20
HETATM   20  C   UNL     1      26.775  43.833  52.342  1.00  0.00     0.015 C 
HETATM   21  C   UNL     1      27.117  43.830  53.693  1.00  0.00     0.042 C 
HETATM   22  C   UNL     1      26.222  43.756  54.882  1.00  0.00     0.071 C 
HETATM   23  N   UNL     1      28.517  43.873  53.754  1.00  0.00    -0.238 N 
HETATM   24  N   UNL     1      29.036  43.693  52.510  1.00  0.00    -0.179 NA
HETATM   25  C   UNL     1      28.014  43.782  51.676  1.00  0.00     0.150 C 
BRANCH  23  26
HETATM   26  C   UNL     1      29.407  44.054  54.855  1.00  0.00     0.058 A 
HETATM   27  C   UNL     1      29.340  45.252  55.587  1.00  0.00     0.031 A 
HETATM   28  C   UNL     1      30.187  45.472  56.676  1.00  0.00     0.002 A 
HETATM   29  C   UNL     1      31.099  44.492  57.057  1.00  0.00     0.000 A 
HETATM   30  C   UNL     1      31.156  43.290  56.356  1.00  0.00     0.002 A 
HETATM   31  C   UNL     1      30.312  43.067  55.262  1.00  0.00     0.031 A 
ENDBRANCH  23  26
ENDBRANCH  18  20
ENDBRANCH   1  18
TORSDOF 6
ENDMDL
MODEL 10
REMARK VINA RESULT:      -8.0      3.412      9.663
REMARK  6 active torsions:
REMARK  status: ('A' for Active; 'I' for Inactive)
REMARK    1  A    between atoms: C_3  and  C_4 
REMARK    2  A    between atoms: C_4  and  N_5 
REMARK    3  A    between atoms: N_5  and  C_8 
REMARK    4  A    between atoms: C_8  and  C_9 
REMARK    5  A    between atoms: N_12  and  C_13 
REMARK    6  A    between atoms: C_28  and  O_29 
ROOT
HETATM    1  N   UNL     1      23.266  44.736  48.454  1.00  0.00    -0.062 N 
HETATM    2  H   UNL     1      23.965  45.464  48.631  1.00  0.00     0.278 HD
HETATM    3  H   UNL     1      23.668  44.098  47.759  1.00  0.00     0.278 HD
ENDROOT
BRANCH   1   4
HETATM    4  C   UNL     1      23.097  43.963  49.704  1.00  0.00     0.290 C 
BRANCH   4   5
HETATM    5  C   UNL     1      24.192  44.201  50.686  1.00  0.00     0.042 A 
HETATM    6  C   UNL     1      25.249  43.438  51.186  1.00  0.00    -0.025 A 
HETATM    7  C   UNL     1      25.647  42.041  50.845  1.00  0.00     0.051 C 
HETATM    8  C   UNL     1      25.936  44.249  52.154  1.00  0.00     0.001 A 
HETATM    9  C   UNL     1      25.292  45.478  52.209  1.00  0.00     0.043 A 
HETATM   10  C   UNL     1      27.050  44.045  52.996  1.00  0.00     0.051 A 
HETATM   11  N   UNL     1      24.256  45.432  51.314  1.00  0.00    -0.357 N 
HETATM   12  C   UNL     1      25.704  46.513  53.057  1.00  0.00     0.033 A 
HETATM   13  H   UNL     1      23.629  46.212  51.161  1.00  0.00     0.166 HD
HETATM   14  C   UNL     1      26.810  46.280  53.884  1.00  0.00     0.039 A 
HETATM   15  C   UNL     1      27.481  45.061  53.860  1.00  0.00     0.069 A 
BRANCH  15  16
HETATM   16  O   UNL     1      28.566  44.724  54.623  1.00  0.00    -0.356 OA
HETATM   17  C   UNL     1      29.101  45.734  55.471  1.00  0.00     0.210 C 
ENDBRANCH  15  16
ENDBRANCH   4   5
ENDBRANCH   1   4
BRANCH   1  18
HETATM   18  C   UNL     1      22.023  45.345  47.882  1.00  0.00     0.218 C 
HETATM   19  C   UNL     1      22.130  45.274  46.359  1.00  0.00     0.045 C 
BRANCH  18  20
HETATM   20  C   UNL     1      21.791  46.738  48.366  1.00  0.00     0.015 C 
HETATM   21  C   UNL     1      20.589  47.432  48.491  1.00  0.00     0.042 C 
HETATM   22  C   UNL     1      19.201  46.947  48.251  1.00  0.00     0.071 C 
HETATM   23  N   UNL     1      20.914  48.720  48.939  1.00  0.00    -0.238 N 
HETATM   24  N   UNL     1      22.228  48.769  49.285  1.00  0.00    -0.179 NA
HETATM   25  C   UNL     1      22.759  47.641  48.844  1.00  0.00     0.150 C 
BRANCH  23  26
HETATM   26  C   UNL     1      20.118  49.896  49.082  1.00  0.00     0.058 A 
HETATM   27  C   UNL     1      20.368  50.989  48.233  1.00  0.00     0.031 A 
HETATM   28  C   UNL     1      19.611  52.159  48.333  1.00  0.00     0.002 A 
HETATM   29  C   UNL     1      18.585  52.246  49.269  1.00  0.00     0.000 A 
HETATM   30  C   UNL     1      18.310  51.160  50.097  1.00  0.00     0.002 A 
HETATM   31  C   UNL     1      19.068  49.987  50.003  1.00  0.00     0.031 A 
ENDBRANCH  23  26
ENDBRANCH  18  20
ENDBRANCH   1  18
TORSDOF 6
ENDMDL
