MODEL 1
REMARK VINA RESULT:      -8.6      0.000      0.000
REMARK  8 active torsions:
REMARK  status: ('A' for Active; 'I' for Inactive)
REMARK    1  A    between atoms: C_3  and  N_4 
REMARK       I    between atoms: N_4  and  C_5 
REMARK    2  A    between atoms: C_5  and  C_6 
REMARK    3  A    between atoms: C_7  and  C_8 
REMARK    4  A    between atoms: C_17  and  C_18 
REMARK    5  A    between atoms: C_20  and  O_21 
REMARK    6  A    between atoms: C_23  and  O_24 
REMARK    7  A    between atoms: O_24  and  C_25 
REMARK    8  A    between atoms: C_25  and  C_26 
REMARK       I    between atoms: C_26  and  N_27 
ROOT
HETATM    1  C   UNL     1      26.242  45.348  51.725  1.00  0.00     0.062 C 
HETATM    2  C   UNL     1      26.203  44.356  50.589  1.00  0.00     0.176 C 
HETATM    3  N   UNL     1      26.969  43.176  50.959  1.00  0.00    -0.277 N 
HETATM    4  C   UNL     1      27.285  42.925  52.256  1.00  0.00     0.177 C 
HETATM    5  S   UNL     1      28.011  41.354  52.438  1.00  0.00    -0.046 SA
HETATM    6  C   UNL     1      27.822  41.001  50.755  1.00  0.00     0.077 C 
HETATM    7  C   UNL     1      28.013  39.777  50.241  1.00  0.00     0.036 C 
HETATM    8  C   UNL     1      27.324  42.216  50.040  1.00  0.00     0.267 C 
HETATM    9  O   UNL     1      27.275  42.341  48.827  1.00  0.00    -0.266 OA
HETATM   10  N   UNL     1      27.112  43.729  53.248  1.00  0.00    -0.228 NA
HETATM   11  C   UNL     1      26.621  44.988  52.970  1.00  0.00     0.047 C 
HETATM   12  C   UNL     1      26.526  45.879  54.181  1.00  0.00     0.071 C 
ENDROOT
BRANCH   7  13
HETATM   13  C   UNL     1      27.675  39.398  48.868  1.00  0.00    -0.032 A 
HETATM   14  C   UNL     1      26.330  39.178  48.530  1.00  0.00     0.051 A 
HETATM   15  C   UNL     1      25.971  38.854  47.218  1.00  0.00     0.102 A 
HETATM   16  C   UNL     1      26.977  38.746  46.246  1.00  0.00     0.102 A 
HETATM   17  C   UNL     1      28.318  38.969  46.577  1.00  0.00     0.040 A 
HETATM   18  C   UNL     1      28.667  39.286  47.890  1.00  0.00     0.014 A 
BRANCH  15  19
HETATM   19  O   UNL     1      24.690  38.615  46.787  1.00  0.00    -0.353 OA
HETATM   20  C   UNL     1      23.793  39.718  46.771  1.00  0.00     0.210 C 
ENDBRANCH  15  19
BRANCH  16  21
HETATM   21  O   UNL     1      26.587  38.497  44.956  1.00  0.00    -0.339 OA
BRANCH  21  22
HETATM   22  C   UNL     1      27.060  39.462  44.015  1.00  0.00     0.278 C 
BRANCH  22  23
HETATM   23  C   UNL     1      26.031  40.581  43.887  1.00  0.00     0.239 C 
HETATM   24  N   UNL     1      26.436  41.804  44.344  1.00  0.00    -0.368 N 
HETATM   25  H   UNL     1      27.423  41.959  44.525  1.00  0.00     0.159 HD
HETATM   26  H   UNL     1      25.825  42.596  44.206  1.00  0.00     0.159 HD
HETATM   27  O   UNL     1      24.894  40.406  43.459  1.00  0.00    -0.271 OA
ENDBRANCH  22  23
ENDBRANCH  21  22
ENDBRANCH  16  21
ENDBRANCH   7  13
BRANCH   2  28
HETATM   28  C   UNL     1      24.803  43.879  50.223  1.00  0.00     0.011 A 
HETATM   29  S   UNL     1      24.138  44.281  48.690  1.00  0.00    -0.104 SA
HETATM   30  C   UNL     1      22.694  43.430  49.020  1.00  0.00     0.050 A 
HETATM   31  C   UNL     1      22.704  42.858  50.271  1.00  0.00     0.008 A 
HETATM   32  C   UNL     1      23.919  43.118  50.968  1.00  0.00     0.017 A 
ENDBRANCH   2  28
BRANCH   1  33
HETATM   33  C   UNL     1      25.800  46.723  51.364  1.00  0.00     0.256 C 
HETATM   34  N   UNL     1      25.852  46.972  50.007  1.00  0.00    -0.323 N 
HETATM   35  H   UNL     1      26.227  46.237  49.424  1.00  0.00     0.169 HD
HETATM   36  O   UNL     1      25.403  47.476  52.243  1.00  0.00    -0.267 OA
BRANCH  34  37
HETATM   37  C   UNL     1      25.463  48.155  49.332  1.00  0.00     0.041 A 
HETATM   38  C   UNL     1      26.463  49.044  48.880  1.00  0.00    -0.035 A 
HETATM   39  C   UNL     1      27.929  48.805  49.125  1.00  0.00     0.050 C 
HETATM   40  C   UNL     1      26.088  50.218  48.200  1.00  0.00     0.009 A 
HETATM   41  C   UNL     1      24.749  50.511  47.962  1.00  0.00     0.001 A 
HETATM   42  C   UNL     1      23.765  49.636  48.404  1.00  0.00     0.002 A 
HETATM   43  C   UNL     1      24.120  48.468  49.085  1.00  0.00     0.030 A 
ENDBRANCH  34  37
ENDBRANCH   1  33
TORSDOF 8
ENDMDL
MODEL 2
REMARK VINA RESULT:      -8.5      3.341      6.270
REMARK  8 active torsions:
REMARK  status: ('A' for Active; 'I' for Inactive)
REMARK    1  A    between atoms: C_3  and  N_4 
REMARK       I    between atoms: N_4  and  C_5 
REMARK    2  A    between atoms: C_5  and  C_6 
REMARK    3  A    between atoms: C_7  and  C_8 
REMARK    4  A    between atoms: C_17  and  C_18 
REMARK    5  A    between atoms: C_20  and  O_21 
REMARK    6  A    between atoms: C_23  and  O_24 
REMARK    7  A    between atoms: O_24  and  C_25 
REMARK    8  A    between atoms: C_25  and  C_26 
REMARK       I    between atoms: C_26  and  N_27 
ROOT
HETATM    1  C   UNL     1      25.210  44.311  51.025  1.00  0.00     0.062 C 
HETATM    2  C   UNL     1      24.756  42.984  50.467  1.00  0.00     0.176 C 
HETATM    3  N   UNL     1      23.877  43.219  49.332  1.00  0.00    -0.277 N 
HETATM    4  C   UNL     1      23.848  44.424  48.707  1.00  0.00     0.177 C 
HETATM    5  S   UNL     1      22.878  44.365  47.264  1.00  0.00    -0.046 SA
HETATM    6  C   UNL     1      22.563  42.676  47.467  1.00  0.00     0.077 C 
HETATM    7  C   UNL     1      21.998  41.919  46.516  1.00  0.00     0.036 C 
HETATM    8  C   UNL     1      23.111  42.219  48.782  1.00  0.00     0.267 C 
HETATM    9  O   UNL     1      22.881  41.135  49.294  1.00  0.00    -0.266 OA
HETATM   10  N   UNL     1      24.428  45.502  49.110  1.00  0.00    -0.228 NA
HETATM   11  C   UNL     1      25.087  45.456  50.321  1.00  0.00     0.047 C 
HETATM   12  C   UNL     1      25.666  46.782  50.743  1.00  0.00     0.071 C 
ENDROOT
BRANCH   7  13
HETATM   13  C   UNL     1      21.895  40.460  46.574  1.00  0.00    -0.032 A 
HETATM   14  C   UNL     1      20.684  39.875  46.979  1.00  0.00     0.051 A 
HETATM   15  C   UNL     1      20.540  38.486  47.007  1.00  0.00     0.102 A 
HETATM   16  C   UNL     1      21.629  37.683  46.630  1.00  0.00     0.102 A 
HETATM   17  C   UNL     1      22.835  38.261  46.221  1.00  0.00     0.040 A 
HETATM   18  C   UNL     1      22.970  39.650  46.202  1.00  0.00     0.014 A 
BRANCH  15  19
HETATM   19  O   UNL     1      19.405  37.817  47.391  1.00  0.00    -0.353 OA
HETATM   20  C   UNL     1      18.643  38.383  48.449  1.00  0.00     0.210 C 
ENDBRANCH  15  19
BRANCH  16  21
HETATM   21  O   UNL     1      21.434  36.326  46.600  1.00  0.00    -0.339 OA
BRANCH  21  22
HETATM   22  C   UNL     1      22.190  35.615  47.580  1.00  0.00     0.278 C 
BRANCH  22  23
HETATM   23  C   UNL     1      21.239  34.794  48.445  1.00  0.00     0.239 C 
HETATM   24  N   UNL     1      20.503  35.510  49.349  1.00  0.00    -0.368 N 
HETATM   25  H   UNL     1      20.454  36.520  49.252  1.00  0.00     0.159 HD
HETATM   26  H   UNL     1      19.799  35.027  49.888  1.00  0.00     0.159 HD
HETATM   27  O   UNL     1      21.164  33.571  48.392  1.00  0.00    -0.271 OA
ENDBRANCH  22  23
ENDBRANCH  21  22
ENDBRANCH  16  21
ENDBRANCH   7  13
BRANCH   2  28
HETATM   28  C   UNL     1      25.888  42.092  49.974  1.00  0.00     0.011 A 
HETATM   29  S   UNL     1      26.143  40.555  50.699  1.00  0.00    -0.104 SA
HETATM   30  C   UNL     1      27.453  40.208  49.660  1.00  0.00     0.050 A 
HETATM   31  C   UNL     1      27.705  41.237  48.783  1.00  0.00     0.008 A 
HETATM   32  C   UNL     1      26.805  42.327  48.964  1.00  0.00     0.017 A 
ENDBRANCH   2  28
BRANCH   1  33
HETATM   33  C   UNL     1      25.827  44.238  52.378  1.00  0.00     0.256 C 
HETATM   34  N   UNL     1      27.203  44.342  52.354  1.00  0.00    -0.323 N 
HETATM   35  H   UNL     1      27.640  44.397  51.444  1.00  0.00     0.169 HD
HETATM   36  O   UNL     1      25.106  44.141  53.361  1.00  0.00    -0.267 OA
BRANCH  34  37
HETATM   37  C   UNL     1      28.086  44.353  53.462  1.00  0.00     0.041 A 
HETATM   38  C   UNL     1      29.050  43.327  53.579  1.00  0.00    -0.035 A 
HETATM   39  C   UNL     1      29.149  42.195  52.592  1.00  0.00     0.050 C 
HETATM   40  C   UNL     1      29.938  43.334  54.670  1.00  0.00     0.009 A 
HETATM   41  C   UNL     1      29.884  44.340  55.631  1.00  0.00     0.001 A 
HETATM   42  C   UNL     1      28.939  45.350  55.515  1.00  0.00     0.002 A 
HETATM   43  C   UNL     1      28.045  45.355  54.441  1.00  0.00     0.030 A 
ENDBRANCH  34  37
ENDBRANCH   1  33
TORSDOF 8
ENDMDL
MODEL 3
REMARK VINA RESULT:      -8.3      1.490      2.157
REMARK  8 active torsions:
REMARK  status: ('A' for Active; 'I' for Inactive)
REMARK    1  A    between atoms: C_3  and  N_4 
REMARK       I    between atoms: N_4  and  C_5 
REMARK    2  A    between atoms: C_5  and  C_6 
REMARK    3  A    between atoms: C_7  and  C_8 
REMARK    4  A    between atoms: C_17  and  C_18 
REMARK    5  A    between atoms: C_20  and  O_21 
REMARK    6  A    between atoms: C_23  and  O_24 
REMARK    7  A    between atoms: O_24  and  C_25 
REMARK    8  A    between atoms: C_25  and  C_26 
REMARK       I    between atoms: C_26  and  N_27 
ROOT
HETATM    1  C   UNL     1      25.636  46.238  50.693  1.00  0.00     0.062 C 
HETATM    2  C   UNL     1      25.797  44.979  49.878  1.00  0.00     0.176 C 
HETATM    3  N   UNL     1      26.575  44.013  50.639  1.00  0.00    -0.277 N 
HETATM    4  C   UNL     1      26.739  44.148  51.980  1.00  0.00     0.177 C 
HETATM    5  S   UNL     1      27.524  42.754  52.665  1.00  0.00    -0.046 SA
HETATM    6  C   UNL     1      27.568  41.948  51.135  1.00  0.00     0.077 C 
HETATM    7  C   UNL     1      27.892  40.653  51.001  1.00  0.00     0.036 C 
HETATM    8  C   UNL     1      27.097  42.879  50.063  1.00  0.00     0.267 C 
HETATM    9  O   UNL     1      27.194  42.670  48.865  1.00  0.00    -0.266 OA
HETATM   10  N   UNL     1      26.397  45.170  52.687  1.00  0.00    -0.228 NA
HETATM   11  C   UNL     1      25.875  46.259  52.022  1.00  0.00     0.047 C 
HETATM   12  C   UNL     1      25.577  47.430  52.923  1.00  0.00     0.071 C 
ENDROOT
BRANCH   7  13
HETATM   13  C   UNL     1      27.752  39.892  49.759  1.00  0.00    -0.032 A 
HETATM   14  C   UNL     1      26.474  39.722  49.200  1.00  0.00     0.051 A 
HETATM   15  C   UNL     1      26.312  39.035  47.994  1.00  0.00     0.102 A 
HETATM   16  C   UNL     1      27.446  38.512  47.353  1.00  0.00     0.102 A 
HETATM   17  C   UNL     1      28.721  38.683  47.903  1.00  0.00     0.040 A 
HETATM   18  C   UNL     1      28.872  39.365  49.111  1.00  0.00     0.014 A 
BRANCH  15  19
HETATM   19  O   UNL     1      25.111  38.811  47.369  1.00  0.00    -0.353 OA
HETATM   20  C   UNL     1      24.309  39.947  47.076  1.00  0.00     0.210 C 
ENDBRANCH  15  19
BRANCH  16  21
HETATM   21  O   UNL     1      27.262  37.906  46.137  1.00  0.00    -0.339 OA
BRANCH  21  22
HETATM   22  C   UNL     1      28.141  38.384  45.118  1.00  0.00     0.278 C 
BRANCH  22  23
HETATM   23  C   UNL     1      27.572  39.672  44.531  1.00  0.00     0.239 C 
HETATM   24  N   UNL     1      28.449  40.717  44.451  1.00  0.00    -0.368 N 
HETATM   25  H   UNL     1      29.442  40.535  44.563  1.00  0.00     0.159 HD
HETATM   26  H   UNL     1      28.147  41.566  43.994  1.00  0.00     0.159 HD
HETATM   27  O   UNL     1      26.397  39.801  44.200  1.00  0.00    -0.271 OA
ENDBRANCH  22  23
ENDBRANCH  21  22
ENDBRANCH  16  21
ENDBRANCH   7  13
BRANCH   2  28
HETATM   28  C   UNL     1      24.483  44.299  49.512  1.00  0.00     0.011 A 
HETATM   29  S   UNL     1      24.096  44.023  47.860  1.00  0.00    -0.104 SA
HETATM   30  C   UNL     1      22.618  43.268  48.264  1.00  0.00     0.050 A 
HETATM   31  C   UNL     1      22.410  43.231  49.623  1.00  0.00     0.008 A 
HETATM   32  C   UNL     1      23.484  43.828  50.345  1.00  0.00     0.017 A 
ENDBRANCH   2  28
BRANCH   1  33
HETATM   33  C   UNL     1      25.166  47.422  49.922  1.00  0.00     0.256 C 
HETATM   34  N   UNL     1      23.791  47.522  49.865  1.00  0.00    -0.323 N 
HETATM   35  H   UNL     1      23.262  46.773  50.291  1.00  0.00     0.169 HD
HETATM   36  O   UNL     1      25.987  48.201  49.458  1.00  0.00    -0.267 OA
BRANCH  34  37
HETATM   37  C   UNL     1      23.025  48.544  49.252  1.00  0.00     0.041 A 
HETATM   38  C   UNL     1      21.877  48.188  48.511  1.00  0.00    -0.035 A 
HETATM   39  C   UNL     1      21.457  46.756  48.310  1.00  0.00     0.050 C 
HETATM   40  C   UNL     1      21.104  49.196  47.906  1.00  0.00     0.009 A 
HETATM   41  C   UNL     1      21.451  50.538  48.033  1.00  0.00     0.001 A 
HETATM   42  C   UNL     1      22.578  50.889  48.764  1.00  0.00     0.002 A 
HETATM   43  C   UNL     1      23.360  49.900  49.367  1.00  0.00     0.030 A 
ENDBRANCH  34  37
ENDBRANCH   1  33
TORSDOF 8
ENDMDL
MODEL 4
REMARK VINA RESULT:      -8.2      8.741     12.917
REMARK  8 active torsions:
REMARK  status: ('A' for Active; 'I' for Inactive)
REMARK    1  A    between atoms: C_3  and  N_4 
REMARK       I    between atoms: N_4  and  C_5 
REMARK    2  A    between atoms: C_5  and  C_6 
REMARK    3  A    between atoms: C_7  and  C_8 
REMARK    4  A    between atoms: C_17  and  C_18 
REMARK    5  A    between atoms: C_20  and  O_21 
REMARK    6  A    between atoms: C_23  and  O_24 
REMARK    7  A    between atoms: O_24  and  C_25 
REMARK    8  A    between atoms: C_25  and  C_26 
REMARK       I    between atoms: C_26  and  N_27 
ROOT
HETATM    1  C   UNL     1      15.302  52.763  45.528  1.00  0.00     0.062 C 
HETATM    2  C   UNL     1      16.554  51.984  45.852  1.00  0.00     0.176 C 
HETATM    3  N   UNL     1      16.918  52.221  47.240  1.00  0.00    -0.277 N 
HETATM    4  C   UNL     1      16.021  52.735  48.121  1.00  0.00     0.177 C 
HETATM    5  S   UNL     1      16.648  52.715  49.744  1.00  0.00    -0.046 SA
HETATM    6  C   UNL     1      18.109  51.940  49.240  1.00  0.00     0.077 C 
HETATM    7  C   UNL     1      18.997  51.425  50.103  1.00  0.00     0.036 C 
HETATM    8  C   UNL     1      18.142  51.854  47.747  1.00  0.00     0.267 C 
HETATM    9  O   UNL     1      19.119  51.536  47.088  1.00  0.00    -0.266 OA
HETATM   10  N   UNL     1      14.860  53.211  47.830  1.00  0.00    -0.228 NA
HETATM   11  C   UNL     1      14.510  53.268  46.497  1.00  0.00     0.047 C 
HETATM   12  C   UNL     1      13.167  53.908  46.253  1.00  0.00     0.071 C 
ENDROOT
BRANCH   7  13
HETATM   13  C   UNL     1      20.139  50.596  49.715  1.00  0.00    -0.032 A 
HETATM   14  C   UNL     1      19.941  49.226  49.477  1.00  0.00     0.051 A 
HETATM   15  C   UNL     1      21.002  48.415  49.066  1.00  0.00     0.102 A 
HETATM   16  C   UNL     1      22.272  48.990  48.901  1.00  0.00     0.102 A 
HETATM   17  C   UNL     1      22.474  50.355  49.132  1.00  0.00     0.040 A 
HETATM   18  C   UNL     1      21.408  51.155  49.548  1.00  0.00     0.014 A 
BRANCH  15  19
HETATM   19  O   UNL     1      20.914  47.069  48.813  1.00  0.00    -0.353 OA
HETATM   20  C   UNL     1      19.656  46.569  48.380  1.00  0.00     0.210 C 
ENDBRANCH  15  19
BRANCH  16  21
HETATM   21  O   UNL     1      23.275  48.185  48.429  1.00  0.00    -0.339 OA
BRANCH  21  22
HETATM   22  C   UNL     1      24.487  48.275  49.180  1.00  0.00     0.278 C 
BRANCH  22  23
HETATM   23  C   UNL     1      24.444  47.264  50.321  1.00  0.00     0.239 C 
HETATM   24  N   UNL     1      23.786  46.097  50.046  1.00  0.00    -0.368 N 
HETATM   25  H   UNL     1      23.567  45.873  49.079  1.00  0.00     0.159 HD
HETATM   26  H   UNL     1      23.800  45.361  50.736  1.00  0.00     0.159 HD
HETATM   27  O   UNL     1      24.911  47.482  51.434  1.00  0.00    -0.271 OA
ENDBRANCH  22  23
ENDBRANCH  21  22
ENDBRANCH  16  21
ENDBRANCH   7  13
BRANCH   2  28
HETATM   28  C   UNL     1      16.413  50.477  45.682  1.00  0.00     0.011 A 
HETATM   29  S   UNL     1      17.260  49.676  44.418  1.00  0.00    -0.104 SA
HETATM   30  C   UNL     1      16.651  48.151  44.886  1.00  0.00     0.050 A 
HETATM   31  C   UNL     1      15.811  48.239  45.972  1.00  0.00     0.008 A 
HETATM   32  C   UNL     1      15.671  49.580  46.431  1.00  0.00     0.017 A 
ENDBRANCH   2  28
BRANCH   1  33
HETATM   33  C   UNL     1      15.009  52.891  44.074  1.00  0.00     0.256 C 
HETATM   34  N   UNL     1      15.770  53.857  43.449  1.00  0.00    -0.323 N 
HETATM   35  H   UNL     1      16.387  54.401  44.037  1.00  0.00     0.169 HD
HETATM   36  O   UNL     1      14.192  52.141  43.558  1.00  0.00    -0.267 OA
BRANCH  34  37
HETATM   37  C   UNL     1      15.770  54.200  42.074  1.00  0.00     0.041 A 
HETATM   38  C   UNL     1      16.782  53.678  41.239  1.00  0.00    -0.035 A 
HETATM   39  C   UNL     1      17.890  52.803  41.761  1.00  0.00     0.050 C 
HETATM   40  C   UNL     1      16.786  54.005  39.870  1.00  0.00     0.009 A 
HETATM   41  C   UNL     1      15.803  54.828  39.328  1.00  0.00     0.001 A 
HETATM   42  C   UNL     1      14.806  55.339  40.148  1.00  0.00     0.002 A 
HETATM   43  C   UNL     1      14.791  55.030  41.511  1.00  0.00     0.030 A 
ENDBRANCH  34  37
ENDBRANCH   1  33
TORSDOF 8
ENDMDL
MODEL 5
REMARK VINA RESULT:      -8.1      8.872     13.568
REMARK  8 active torsions:
REMARK  status: ('A' for Active; 'I' for Inactive)
REMARK    1  A    between atoms: C_3  and  N_4 
REMARK       I    between atoms: N_4  and  C_5 
REMARK    2  A    between atoms: C_5  and  C_6 
REMARK    3  A    between atoms: C_7  and  C_8 
REMARK    4  A    between atoms: C_17  and  C_18 
REMARK    5  A    between atoms: C_20  and  O_21 
REMARK    6  A    between atoms: C_23  and  O_24 
REMARK    7  A    between atoms: O_24  and  C_25 
REMARK    8  A    between atoms: C_25  and  C_26 
REMARK       I    between atoms: C_26  and  N_27 
ROOT
HETATM    1  C   UNL     1      19.778  47.531  47.324  1.00  0.00     0.062 C 
HETATM    2  C   UNL     1      19.207  48.837  46.828  1.00  0.00     0.176 C 
HETATM    3  N   UNL     1      17.796  48.656  46.524  1.00  0.00    -0.277 N 
HETATM    4  C   UNL     1      17.106  47.592  47.010  1.00  0.00     0.177 C 
HETATM    5  S   UNL     1      15.404  47.735  46.674  1.00  0.00    -0.046 SA
HETATM    6  C   UNL     1      15.615  49.283  45.932  1.00  0.00     0.077 C 
HETATM    7  C   UNL     1      14.589  50.086  45.615  1.00  0.00     0.036 C 
HETATM    8  C   UNL     1      17.074  49.591  45.820  1.00  0.00     0.267 C 
HETATM    9  O   UNL     1      17.545  50.513  45.173  1.00  0.00    -0.266 OA
HETATM   10  N   UNL     1      17.610  46.576  47.620  1.00  0.00    -0.228 NA
HETATM   11  C   UNL     1      18.983  46.522  47.740  1.00  0.00     0.047 C 
HETATM   12  C   UNL     1      19.482  45.261  48.400  1.00  0.00     0.071 C 
ENDROOT
BRANCH   7  13
HETATM   13  C   UNL     1      14.734  51.473  45.170  1.00  0.00    -0.032 A 
HETATM   14  C   UNL     1      14.729  51.754  43.794  1.00  0.00     0.051 A 
HETATM   15  C   UNL     1      14.824  53.072  43.337  1.00  0.00     0.102 A 
HETATM   16  C   UNL     1      14.932  54.110  44.276  1.00  0.00     0.102 A 
HETATM   17  C   UNL     1      14.933  53.835  45.648  1.00  0.00     0.040 A 
HETATM   18  C   UNL     1      14.843  52.515  46.093  1.00  0.00     0.014 A 
BRANCH  15  19
HETATM   19  O   UNL     1      14.833  53.451  42.018  1.00  0.00    -0.353 OA
HETATM   20  C   UNL     1      13.827  52.902  41.177  1.00  0.00     0.210 C 
ENDBRANCH  15  19
BRANCH  16  21
HETATM   21  O   UNL     1      14.952  55.395  43.800  1.00  0.00    -0.339 OA
BRANCH  21  22
HETATM   22  C   UNL     1      13.766  56.134  44.091  1.00  0.00     0.278 C 
BRANCH  22  23
HETATM   23  C   UNL     1      14.154  57.506  44.636  1.00  0.00     0.239 C 
HETATM   24  N   UNL     1      14.029  57.656  45.989  1.00  0.00    -0.368 N 
HETATM   25  H   UNL     1      13.911  56.828  46.566  1.00  0.00     0.159 HD
HETATM   26  H   UNL     1      14.351  58.515  46.411  1.00  0.00     0.159 HD
HETATM   27  O   UNL     1      14.502  58.441  43.923  1.00  0.00    -0.271 OA
ENDBRANCH  22  23
ENDBRANCH  21  22
ENDBRANCH  16  21
ENDBRANCH   7  13
BRANCH   2  28
HETATM   28  C   UNL     1      19.302  49.981  47.829  1.00  0.00     0.011 A 
HETATM   29  S   UNL     1      18.664  49.786  49.413  1.00  0.00    -0.104 SA
HETATM   30  C   UNL     1      19.149  51.357  49.874  1.00  0.00     0.050 A 
HETATM   31  C   UNL     1      19.775  52.028  48.848  1.00  0.00     0.008 A 
HETATM   32  C   UNL     1      19.862  51.237  47.667  1.00  0.00     0.017 A 
ENDBRANCH   2  28
BRANCH   1  33
HETATM   33  C   UNL     1      21.265  47.471  47.346  1.00  0.00     0.256 C 
HETATM   34  N   UNL     1      21.815  48.047  48.474  1.00  0.00    -0.323 N 
HETATM   35  H   UNL     1      21.174  48.487  49.119  1.00  0.00     0.169 HD
HETATM   36  O   UNL     1      21.857  46.908  46.436  1.00  0.00    -0.267 OA
BRANCH  34  37
HETATM   37  C   UNL     1      23.187  48.119  48.823  1.00  0.00     0.041 A 
HETATM   38  C   UNL     1      23.917  49.280  48.487  1.00  0.00    -0.035 A 
HETATM   39  C   UNL     1      23.306  50.430  47.730  1.00  0.00     0.050 C 
HETATM   40  C   UNL     1      25.277  49.367  48.837  1.00  0.00     0.009 A 
HETATM   41  C   UNL     1      25.909  48.329  49.516  1.00  0.00     0.001 A 
HETATM   42  C   UNL     1      25.190  47.188  49.850  1.00  0.00     0.002 A 
HETATM   43  C   UNL     1      23.840  47.084  49.504  1.00  0.00     0.030 A 
ENDBRANCH  34  37
ENDBRANCH   1  33
TORSDOF 8
ENDMDL
MODEL 6
REMARK VINA RESULT:      -8.0      3.059      6.158
REMARK  8 active torsions:
REMARK  status: ('A' for Active; 'I' for Inactive)
REMARK    1  A    between atoms: C_3  and  N_4 
REMARK       I    between atoms: N_4  and  C_5 
REMARK    2  A    between atoms: C_5  and  C_6 
REMARK    3  A    between atoms: C_7  and  C_8 
REMARK    4  A    between atoms: C_17  and  C_18 
REMARK    5  A    between atoms: C_20  and  O_21 
REMARK    6  A    between atoms: C_23  and  O_24 
REMARK    7  A    between atoms: O_24  and  C_25 
REMARK    8  A    between atoms: C_25  and  C_26 
REMARK       I    between atoms: C_26  and  N_27 
ROOT
HETATM    1  C   UNL     1      25.062  44.485  51.148  1.00  0.00     0.062 C 
HETATM    2  C   UNL     1      24.608  43.202  50.496  1.00  0.00     0.176 C 
HETATM    3  N   UNL     1      23.714  43.517  49.393  1.00  0.00    -0.277 N 
HETATM    4  C   UNL     1      23.670  44.766  48.862  1.00  0.00     0.177 C 
HETATM    5  S   UNL     1      22.682  44.810  47.430  1.00  0.00    -0.046 SA
HETATM    6  C   UNL     1      22.380  43.109  47.508  1.00  0.00     0.077 C 
HETATM    7  C   UNL     1      21.808  42.423  46.507  1.00  0.00     0.036 C 
HETATM    8  C   UNL     1      22.947  42.556  48.777  1.00  0.00     0.267 C 
HETATM    9  O   UNL     1      22.730  41.435  49.207  1.00  0.00    -0.266 OA
HETATM   10  N   UNL     1      24.248  45.814  49.340  1.00  0.00    -0.228 NA
HETATM   11  C   UNL     1      24.922  45.680  50.536  1.00  0.00     0.047 C 
HETATM   12  C   UNL     1      25.499  46.974  51.051  1.00  0.00     0.071 C 
ENDROOT
BRANCH   7  13
HETATM   13  C   UNL     1      21.715  40.963  46.456  1.00  0.00    -0.032 A 
HETATM   14  C   UNL     1      22.855  40.217  46.117  1.00  0.00     0.051 A 
HETATM   15  C   UNL     1      22.809  38.820  46.098  1.00  0.00     0.102 A 
HETATM   16  C   UNL     1      21.604  38.175  46.416  1.00  0.00     0.102 A 
HETATM   17  C   UNL     1      20.467  38.915  46.759  1.00  0.00     0.040 A 
HETATM   18  C   UNL     1      20.521  40.309  46.770  1.00  0.00     0.014 A 
BRANCH  15  19
HETATM   19  O   UNL     1      23.863  38.001  45.776  1.00  0.00    -0.353 OA
HETATM   20  C   UNL     1      24.315  38.021  44.429  1.00  0.00     0.210 C 
ENDBRANCH  15  19
BRANCH  16  21
HETATM   21  O   UNL     1      21.610  36.805  46.458  1.00  0.00    -0.339 OA
BRANCH  21  22
HETATM   22  C   UNL     1      20.369  36.237  46.875  1.00  0.00     0.278 C 
BRANCH  22  23
HETATM   23  C   UNL     1      20.531  35.656  48.277  1.00  0.00     0.239 C 
HETATM   24  N   UNL     1      21.822  35.496  48.699  1.00  0.00    -0.368 N 
HETATM   25  H   UNL     1      22.568  35.957  48.186  1.00  0.00     0.159 HD
HETATM   26  H   UNL     1      21.984  35.194  49.649  1.00  0.00     0.159 HD
HETATM   27  O   UNL     1      19.586  35.297  48.972  1.00  0.00    -0.271 OA
ENDBRANCH  22  23
ENDBRANCH  21  22
ENDBRANCH  16  21
ENDBRANCH   7  13
BRANCH   2  28
HETATM   28  C   UNL     1      25.740  42.359  49.922  1.00  0.00     0.011 A 
HETATM   29  S   UNL     1      26.099  40.826  50.614  1.00  0.00    -0.104 SA
HETATM   30  C   UNL     1      27.352  40.538  49.490  1.00  0.00     0.050 A 
HETATM   31  C   UNL     1      27.508  41.583  48.609  1.00  0.00     0.008 A 
HETATM   32  C   UNL     1      26.581  42.636  48.859  1.00  0.00     0.017 A 
ENDBRANCH   2  28
BRANCH   1  33
HETATM   33  C   UNL     1      25.695  44.313  52.484  1.00  0.00     0.256 C 
HETATM   34  N   UNL     1      27.052  44.566  52.479  1.00  0.00    -0.323 N 
HETATM   35  H   UNL     1      27.472  44.778  51.584  1.00  0.00     0.169 HD
HETATM   36  O   UNL     1      24.998  44.020  53.446  1.00  0.00    -0.267 OA
BRANCH  34  37
HETATM   37  C   UNL     1      27.939  44.535  53.583  1.00  0.00     0.041 A 
HETATM   38  C   UNL     1      27.898  45.589  54.523  1.00  0.00    -0.035 A 
HETATM   39  C   UNL     1      26.975  46.769  54.374  1.00  0.00     0.050 C 
HETATM   40  C   UNL     1      28.768  45.564  55.628  1.00  0.00     0.009 A 
HETATM   41  C   UNL     1      29.663  44.514  55.811  1.00  0.00     0.001 A 
HETATM   42  C   UNL     1      29.703  43.477  54.889  1.00  0.00     0.002 A 
HETATM   43  C   UNL     1      28.849  43.488  53.782  1.00  0.00     0.030 A 
ENDBRANCH  34  37
ENDBRANCH   1  33
TORSDOF 8
ENDMDL
MODEL 7
REMARK VINA RESULT:      -8.0     11.873     15.810
REMARK  8 active torsions:
REMARK  status: ('A' for Active; 'I' for Inactive)
REMARK    1  A    between atoms: C_3  and  N_4 
REMARK       I    between atoms: N_4  and  C_5 
REMARK    2  A    between atoms: C_5  and  C_6 
REMARK    3  A    between atoms: C_7  and  C_8 
REMARK    4  A    between atoms: C_17  and  C_18 
REMARK    5  A    between atoms: C_20  and  O_21 
REMARK    6  A    between atoms: C_23  and  O_24 
REMARK    7  A    between atoms: O_24  and  C_25 
REMARK    8  A    between atoms: C_25  and  C_26 
REMARK       I    between atoms: C_26  and  N_27 
ROOT
HETATM    1  C   UNL     1      32.366  50.477  39.942  1.00  0.00     0.062 C 
HETATM    2  C   UNL     1      33.272  50.680  41.132  1.00  0.00     0.176 C 
HETATM    3  N   UNL     1      34.395  51.517  40.739  1.00  0.00    -0.277 N 
HETATM    4  C   UNL     1      34.348  52.266  39.607  1.00  0.00     0.177 C 
HETATM    5  S   UNL     1      35.724  53.325  39.493  1.00  0.00    -0.046 SA
HETATM    6  C   UNL     1      36.335  52.803  41.024  1.00  0.00     0.077 C 
HETATM    7  C   UNL     1      37.340  53.424  41.659  1.00  0.00     0.036 C 
HETATM    8  C   UNL     1      35.508  51.665  41.533  1.00  0.00     0.267 C 
HETATM    9  O   UNL     1      35.801  50.961  42.486  1.00  0.00    -0.266 OA
HETATM   10  N   UNL     1      33.436  52.211  38.699  1.00  0.00    -0.228 NA
HETATM   11  C   UNL     1      32.446  51.262  38.847  1.00  0.00     0.047 C 
HETATM   12  C   UNL     1      31.471  51.225  37.698  1.00  0.00     0.071 C 
ENDROOT
BRANCH   7  13
HETATM   13  C   UNL     1      37.752  53.134  43.034  1.00  0.00    -0.032 A 
HETATM   14  C   UNL     1      38.797  52.223  43.257  1.00  0.00     0.051 A 
HETATM   15  C   UNL     1      39.241  51.955  44.555  1.00  0.00     0.102 A 
HETATM   16  C   UNL     1      38.621  52.607  45.633  1.00  0.00     0.102 A 
HETATM   17  C   UNL     1      37.583  53.519  45.415  1.00  0.00     0.040 A 
HETATM   18  C   UNL     1      37.143  53.775  44.115  1.00  0.00     0.014 A 
BRANCH  15  19
HETATM   19  O   UNL     1      40.248  51.081  44.880  1.00  0.00    -0.353 OA
HETATM   20  C   UNL     1      40.117  49.740  44.427  1.00  0.00     0.210 C 
ENDBRANCH  15  19
BRANCH  16  21
HETATM   21  O   UNL     1      39.125  52.377  46.886  1.00  0.00    -0.339 OA
BRANCH  21  22
HETATM   22  C   UNL     1      39.350  53.568  47.642  1.00  0.00     0.278 C 
BRANCH  22  23
HETATM   23  C   UNL     1      40.839  53.900  47.619  1.00  0.00     0.239 C 
HETATM   24  N   UNL     1      41.378  54.260  48.823  1.00  0.00    -0.368 N 
HETATM   25  H   UNL     1      40.850  54.079  49.672  1.00  0.00     0.159 HD
HETATM   26  H   UNL     1      42.375  54.409  48.880  1.00  0.00     0.159 HD
HETATM   27  O   UNL     1      41.514  53.905  46.594  1.00  0.00    -0.271 OA
ENDBRANCH  22  23
ENDBRANCH  21  22
ENDBRANCH  16  21
ENDBRANCH   7  13
BRANCH   2  28
HETATM   28  C   UNL     1      32.602  51.363  42.317  1.00  0.00     0.011 A 
HETATM   29  S   UNL     1      31.343  52.502  42.047  1.00  0.00    -0.104 SA
HETATM   30  C   UNL     1      31.128  52.761  43.721  1.00  0.00     0.050 A 
HETATM   31  C   UNL     1      31.997  52.010  44.478  1.00  0.00     0.008 A 
HETATM   32  C   UNL     1      32.851  51.205  43.670  1.00  0.00     0.017 A 
ENDBRANCH   2  28
BRANCH   1  33
HETATM   33  C   UNL     1      31.375  49.377  40.096  1.00  0.00     0.256 C 
HETATM   34  N   UNL     1      30.075  49.828  40.199  1.00  0.00    -0.323 N 
HETATM   35  H   UNL     1      29.941  50.830  40.217  1.00  0.00     0.169 HD
HETATM   36  O   UNL     1      31.758  48.216  40.076  1.00  0.00    -0.267 OA
BRANCH  34  37
HETATM   37  C   UNL     1      28.897  49.048  40.312  1.00  0.00     0.041 A 
HETATM   38  C   UNL     1      27.766  49.403  39.545  1.00  0.00    -0.035 A 
HETATM   39  C   UNL     1      27.747  50.607  38.642  1.00  0.00     0.050 C 
HETATM   40  C   UNL     1      26.594  48.630  39.643  1.00  0.00     0.009 A 
HETATM   41  C   UNL     1      26.538  47.518  40.477  1.00  0.00     0.001 A 
HETATM   42  C   UNL     1      27.651  47.166  41.229  1.00  0.00     0.002 A 
HETATM   43  C   UNL     1      28.821  47.927  41.149  1.00  0.00     0.030 A 
ENDBRANCH  34  37
ENDBRANCH   1  33
TORSDOF 8
ENDMDL
MODEL 8
REMARK VINA RESULT:      -7.7      8.531     13.114
REMARK  8 active torsions:
REMARK  status: ('A' for Active; 'I' for Inactive)
REMARK    1  A    between atoms: C_3  and  N_4 
REMARK       I    between atoms: N_4  and  C_5 
REMARK    2  A    between atoms: C_5  and  C_6 
REMARK    3  A    between atoms: C_7  and  C_8 
REMARK    4  A    between atoms: C_17  and  C_18 
REMARK    5  A    between atoms: C_20  and  O_21 
REMARK    6  A    between atoms: C_23  and  O_24 
REMARK    7  A    between atoms: O_24  and  C_25 
REMARK    8  A    between atoms: C_25  and  C_26 
REMARK       I    between atoms: C_26  and  N_27 
ROOT
HETATM    1  C   UNL     1      20.679  48.546  47.966  1.00  0.00     0.062 C 
HETATM    2  C   UNL     1      19.958  49.678  47.276  1.00  0.00     0.176 C 
HETATM    3  N   UNL     1      18.993  49.128  46.337  1.00  0.00    -0.277 N 
HETATM    4  C   UNL     1      18.593  47.833  46.421  1.00  0.00     0.177 C 
HETATM    5  S   UNL     1      17.287  47.502  45.320  1.00  0.00    -0.046 SA
HETATM    6  C   UNL     1      17.232  49.147  44.789  1.00  0.00     0.077 C 
HETATM    7  C   UNL     1      16.238  49.636  44.034  1.00  0.00     0.036 C 
HETATM    8  C   UNL     1      18.373  49.906  45.387  1.00  0.00     0.267 C 
HETATM    9  O   UNL     1      18.714  51.030  45.055  1.00  0.00    -0.266 OA
HETATM   10  N   UNL     1      19.105  46.930  47.184  1.00  0.00    -0.228 NA
HETATM   11  C   UNL     1      20.203  47.282  47.941  1.00  0.00     0.047 C 
HETATM   12  C   UNL     1      20.776  46.140  48.741  1.00  0.00     0.071 C 
ENDROOT
BRANCH   7  13
HETATM   13  C   UNL     1      16.055  51.057  43.730  1.00  0.00    -0.032 A 
HETATM   14  C   UNL     1      15.405  51.879  44.666  1.00  0.00     0.051 A 
HETATM   15  C   UNL     1      15.251  53.247  44.424  1.00  0.00     0.102 A 
HETATM   16  C   UNL     1      15.751  53.785  43.227  1.00  0.00     0.102 A 
HETATM   17  C   UNL     1      16.403  52.971  42.295  1.00  0.00     0.040 A 
HETATM   18  C   UNL     1      16.546  51.605  42.543  1.00  0.00     0.014 A 
BRANCH  15  19
HETATM   19  O   UNL     1      14.629  54.132  45.268  1.00  0.00    -0.353 OA
HETATM   20  C   UNL     1      14.318  53.673  46.577  1.00  0.00     0.210 C 
ENDBRANCH  15  19
BRANCH  16  21
HETATM   21  O   UNL     1      15.647  55.140  43.051  1.00  0.00    -0.339 OA
BRANCH  21  22
HETATM   22  C   UNL     1      14.621  55.525  42.136  1.00  0.00     0.278 C 
BRANCH  22  23
HETATM   23  C   UNL     1      14.127  56.922  42.497  1.00  0.00     0.239 C 
HETATM   24  N   UNL     1      12.974  57.314  41.877  1.00  0.00    -0.368 N 
HETATM   25  H   UNL     1      12.406  56.615  41.407  1.00  0.00     0.159 HD
HETATM   26  H   UNL     1      12.559  58.195  42.143  1.00  0.00     0.159 HD
HETATM   27  O   UNL     1      14.734  57.680  43.247  1.00  0.00    -0.271 OA
ENDBRANCH  22  23
ENDBRANCH  21  22
ENDBRANCH  16  21
ENDBRANCH   7  13
BRANCH   2  28
HETATM   28  C   UNL     1      19.187  50.594  48.218  1.00  0.00     0.011 A 
HETATM   29  S   UNL     1      17.905  49.958  49.170  1.00  0.00    -0.104 SA
HETATM   30  C   UNL     1      17.607  51.472  49.901  1.00  0.00     0.050 A 
HETATM   31  C   UNL     1      18.453  52.450  49.431  1.00  0.00     0.008 A 
HETATM   32  C   UNL     1      19.363  51.946  48.458  1.00  0.00     0.017 A 
ENDBRANCH   2  28
BRANCH   1  33
HETATM   33  C   UNL     1      21.916  48.946  48.691  1.00  0.00     0.256 C 
HETATM   34  N   UNL     1      23.070  48.484  48.091  1.00  0.00    -0.323 N 
HETATM   35  H   UNL     1      22.956  47.891  47.281  1.00  0.00     0.169 HD
HETATM   36  O   UNL     1      21.827  49.654  49.684  1.00  0.00    -0.267 OA
BRANCH  34  37
HETATM   37  C   UNL     1      24.407  48.720  48.497  1.00  0.00     0.041 A 
HETATM   38  C   UNL     1      25.004  47.841  49.428  1.00  0.00    -0.035 A 
HETATM   39  C   UNL     1      24.261  46.684  50.040  1.00  0.00     0.050 C 
HETATM   40  C   UNL     1      26.334  48.062  49.831  1.00  0.00     0.009 A 
HETATM   41  C   UNL     1      27.070  49.127  49.321  1.00  0.00     0.001 A 
HETATM   42  C   UNL     1      26.484  49.990  48.404  1.00  0.00     0.002 A 
HETATM   43  C   UNL     1      25.162  49.789  47.997  1.00  0.00     0.030 A 
ENDBRANCH  34  37
ENDBRANCH   1  33
TORSDOF 8
ENDMDL
MODEL 9
REMARK VINA RESULT:      -7.7      7.463     11.895
REMARK  8 active torsions:
REMARK  status: ('A' for Active; 'I' for Inactive)
REMARK    1  A    between atoms: C_3  and  N_4 
REMARK       I    between atoms: N_4  and  C_5 
REMARK    2  A    between atoms: C_5  and  C_6 
REMARK    3  A    between atoms: C_7  and  C_8 
REMARK    4  A    between atoms: C_17  and  C_18 
REMARK    5  A    between atoms: C_20  and  O_21 
REMARK    6  A    between atoms: C_23  and  O_24 
REMARK    7  A    between atoms: O_24  and  C_25 
REMARK    8  A    between atoms: C_25  and  C_26 
REMARK       I    between atoms: C_26  and  N_27 
ROOT
HETATM    1  C   UNL     1      15.960  48.209  45.387  1.00  0.00     0.062 C 
HETATM    2  C   UNL     1      17.433  48.253  45.712  1.00  0.00     0.176 C 
HETATM    3  N   UNL     1      17.662  49.239  46.757  1.00  0.00    -0.277 N 
HETATM    4  C   UNL     1      16.639  49.696  47.525  1.00  0.00     0.177 C 
HETATM    5  S   UNL     1      17.222  50.696  48.824  1.00  0.00    -0.046 SA
HETATM    6  C   UNL     1      18.871  50.438  48.369  1.00  0.00     0.077 C 
HETATM    7  C   UNL     1      19.906  50.797  49.143  1.00  0.00     0.036 C 
HETATM    8  C   UNL     1      18.923  49.681  47.081  1.00  0.00     0.267 C 
HETATM    9  O   UNL     1      19.929  49.515  46.410  1.00  0.00    -0.266 OA
HETATM   10  N   UNL     1      15.386  49.465  47.334  1.00  0.00    -0.228 NA
HETATM   11  C   UNL     1      15.035  48.743  46.213  1.00  0.00     0.047 C 
HETATM   12  C   UNL     1      13.546  48.590  46.036  1.00  0.00     0.071 C 
ENDROOT
BRANCH   7  13
HETATM   13  C   UNL     1      21.297  50.422  48.886  1.00  0.00    -0.032 A 
HETATM   14  C   UNL     1      21.749  49.153  49.282  1.00  0.00     0.051 A 
HETATM   15  C   UNL     1      23.060  48.750  49.015  1.00  0.00     0.102 A 
HETATM   16  C   UNL     1      23.921  49.637  48.349  1.00  0.00     0.102 A 
HETATM   17  C   UNL     1      23.474  50.900  47.948  1.00  0.00     0.040 A 
HETATM   18  C   UNL     1      22.165  51.296  48.225  1.00  0.00     0.014 A 
BRANCH  15  19
HETATM   19  O   UNL     1      23.599  47.537  49.363  1.00  0.00    -0.353 OA
HETATM   20  C   UNL     1      23.063  46.381  48.732  1.00  0.00     0.210 C 
ENDBRANCH  15  19
BRANCH  16  21
HETATM   21  O   UNL     1      25.177  49.186  48.039  1.00  0.00    -0.339 OA
BRANCH  21  22
HETATM   22  C   UNL     1      26.162  49.506  49.021  1.00  0.00     0.278 C 
BRANCH  22  23
HETATM   23  C   UNL     1      26.879  48.228  49.445  1.00  0.00     0.239 C 
HETATM   24  N   UNL     1      26.487  47.707  50.647  1.00  0.00    -0.368 N 
HETATM   25  H   UNL     1      25.628  48.044  51.072  1.00  0.00     0.159 HD
HETATM   26  H   UNL     1      26.870  46.819  50.935  1.00  0.00     0.159 HD
HETATM   27  O   UNL     1      27.786  47.716  48.797  1.00  0.00    -0.271 OA
ENDBRANCH  22  23
ENDBRANCH  21  22
ENDBRANCH  16  21
ENDBRANCH   7  13
BRANCH   2  28
HETATM   28  C   UNL     1      18.002  46.932  46.217  1.00  0.00     0.011 A 
HETATM   29  S   UNL     1      19.239  46.139  45.325  1.00  0.00    -0.104 SA
HETATM   30  C   UNL     1      19.335  44.869  46.463  1.00  0.00     0.050 A 
HETATM   31  C   UNL     1      18.443  45.030  47.497  1.00  0.00     0.008 A 
HETATM   32  C   UNL     1      17.670  46.219  47.355  1.00  0.00     0.017 A 
ENDBRANCH   2  28
BRANCH   1  33
HETATM   33  C   UNL     1      15.625  47.507  44.118  1.00  0.00     0.256 C 
HETATM   34  N   UNL     1      15.352  46.166  44.294  1.00  0.00    -0.323 N 
HETATM   35  H   UNL     1      15.462  45.798  45.229  1.00  0.00     0.169 HD
HETATM   36  O   UNL     1      15.574  48.145  43.075  1.00  0.00    -0.267 OA
BRANCH  34  37
HETATM   37  C   UNL     1      14.960  45.228  43.306  1.00  0.00     0.041 A 
HETATM   38  C   UNL     1      13.593  44.896  43.184  1.00  0.00    -0.035 A 
HETATM   39  C   UNL     1      12.537  45.468  44.092  1.00  0.00     0.050 C 
HETATM   40  C   UNL     1      13.191  43.973  42.200  1.00  0.00     0.009 A 
HETATM   41  C   UNL     1      14.120  43.390  41.344  1.00  0.00     0.001 A 
HETATM   42  C   UNL     1      15.464  43.718  41.462  1.00  0.00     0.002 A 
HETATM   43  C   UNL     1      15.881  44.629  42.437  1.00  0.00     0.030 A 
ENDBRANCH  34  37
ENDBRANCH   1  33
TORSDOF 8
ENDMDL
MODEL 10
REMARK VINA RESULT:      -7.4      3.295      5.943
REMARK  8 active torsions:
REMARK  status: ('A' for Active; 'I' for Inactive)
REMARK    1  A    between atoms: C_3  and  N_4 
REMARK       I    between atoms: N_4  and  C_5 
REMARK    2  A    between atoms: C_5  and  C_6 
REMARK    3  A    between atoms: C_7  and  C_8 
REMARK    4  A    between atoms: C_17  and  C_18 
REMARK    5  A    between atoms: C_20  and  O_21 
REMARK    6  A    between atoms: C_23  and  O_24 
REMARK    7  A    between atoms: O_24  and  C_25 
REMARK    8  A    between atoms: C_25  and  C_26 
REMARK       I    between atoms: C_26  and  N_27 
ROOT
HETATM    1  C   UNL     1      24.916  44.515  50.948  1.00  0.00     0.062 C 
HETATM    2  C   UNL     1      24.459  43.151  50.492  1.00  0.00     0.176 C 
HETATM    3  N   UNL     1      23.702  43.290  49.257  1.00  0.00    -0.277 N 
HETATM    4  C   UNL     1      23.785  44.420  48.508  1.00  0.00     0.177 C 
HETATM    5  S   UNL     1      22.954  44.235  46.990  1.00  0.00    -0.046 SA
HETATM    6  C   UNL     1      22.548  42.591  47.339  1.00  0.00     0.077 C 
HETATM    7  C   UNL     1      22.042  41.754  46.421  1.00  0.00     0.036 C 
HETATM    8  C   UNL     1      22.948  42.262  48.742  1.00  0.00     0.267 C 
HETATM    9  O   UNL     1      22.624  41.249  49.341  1.00  0.00    -0.266 OA
HETATM   10  N   UNL     1      24.371  45.515  48.851  1.00  0.00    -0.228 NA
HETATM   11  C   UNL     1      24.910  45.580  50.119  1.00  0.00     0.047 C 
HETATM   12  C   UNL     1      25.504  46.924  50.453  1.00  0.00     0.071 C 
ENDROOT
BRANCH   7  13
HETATM   13  C   UNL     1      21.870  40.314  46.623  1.00  0.00    -0.032 A 
HETATM   14  C   UNL     1      20.608  39.821  46.994  1.00  0.00     0.051 A 
HETATM   15  C   UNL     1      20.402  38.448  47.155  1.00  0.00     0.102 A 
HETATM   16  C   UNL     1      21.477  37.570  46.947  1.00  0.00     0.102 A 
HETATM   17  C   UNL     1      22.734  38.057  46.573  1.00  0.00     0.040 A 
HETATM   18  C   UNL     1      22.932  39.430  46.420  1.00  0.00     0.014 A 
BRANCH  15  19
HETATM   19  O   UNL     1      19.212  37.867  47.518  1.00  0.00    -0.353 OA
HETATM   20  C   UNL     1      18.207  37.763  46.518  1.00  0.00     0.210 C 
ENDBRANCH  15  19
BRANCH  16  21
HETATM   21  O   UNL     1      21.225  36.226  47.043  1.00  0.00    -0.339 OA
BRANCH  21  22
HETATM   22  C   UNL     1      21.672  35.476  45.913  1.00  0.00     0.278 C 
BRANCH  22  23
HETATM   23  C   UNL     1      20.475  35.154  45.023  1.00  0.00     0.239 C 
HETATM   24  N   UNL     1      20.590  35.554  43.720  1.00  0.00    -0.368 N 
HETATM   25  H   UNL     1      21.504  35.824  43.368  1.00  0.00     0.159 HD
HETATM   26  H   UNL     1      19.863  35.292  43.070  1.00  0.00     0.159 HD
HETATM   27  O   UNL     1      19.449  34.625  45.437  1.00  0.00    -0.271 OA
ENDBRANCH  22  23
ENDBRANCH  21  22
ENDBRANCH  16  21
ENDBRANCH   7  13
BRANCH   2  28
HETATM   28  C   UNL     1      25.592  42.174  50.209  1.00  0.00     0.011 A 
HETATM   29  S   UNL     1      26.891  42.644  49.186  1.00  0.00    -0.104 SA
HETATM   30  C   UNL     1      27.680  41.143  49.385  1.00  0.00     0.050 A 
HETATM   31  C   UNL     1      26.973  40.291  50.202  1.00  0.00     0.008 A 
HETATM   32  C   UNL     1      25.767  40.882  50.676  1.00  0.00     0.017 A 
ENDBRANCH   2  28
BRANCH   1  33
HETATM   33  C   UNL     1      25.398  44.570  52.355  1.00  0.00     0.256 C 
HETATM   34  N   UNL     1      26.687  45.051  52.470  1.00  0.00    -0.323 N 
HETATM   35  H   UNL     1      27.175  45.256  51.609  1.00  0.00     0.169 HD
HETATM   36  O   UNL     1      24.644  44.244  53.261  1.00  0.00    -0.267 OA
BRANCH  34  37
HETATM   37  C   UNL     1      27.423  45.269  53.661  1.00  0.00     0.041 A 
HETATM   38  C   UNL     1      27.155  46.423  54.429  1.00  0.00    -0.035 A 
HETATM   39  C   UNL     1      26.145  47.457  54.009  1.00  0.00     0.050 C 
HETATM   40  C   UNL     1      27.874  46.645  55.618  1.00  0.00     0.009 A 
HETATM   41  C   UNL     1      28.839  45.740  56.050  1.00  0.00     0.001 A 
HETATM   42  C   UNL     1      29.101  44.603  55.297  1.00  0.00     0.002 A 
HETATM   43  C   UNL     1      28.400  44.371  54.110  1.00  0.00     0.030 A 
ENDBRANCH  34  37
ENDBRANCH   1  33
TORSDOF 8
ENDMDL
