MODEL 1
REMARK VINA RESULT:      -8.6      0.000      0.000
REMARK  6 active torsions:
REMARK  status: ('A' for Active; 'I' for Inactive)
REMARK    1  A    between atoms: C_3  and  C_4 
REMARK    2  A    between atoms: C_9  and  C_10 
REMARK    3  A    between atoms: C_10  and  O_11 
REMARK    4  A    between atoms: C_10  and  C_12 
REMARK    5  A    between atoms: C_12  and  N_13 
REMARK    6  A    between atoms: C_17  and  C_18 
ROOT
HETATM    1  C   UNL     1      27.502  42.346  53.015  1.00  0.00     0.271 C 
ENDROOT
BRANCH   1   2
HETATM    2  C   UNL     1      28.808  43.179  52.898  1.00  0.00     0.177 C 
BRANCH   2   3
HETATM    3  C   UNL     1      29.158  43.994  54.131  1.00  0.00    -0.027 A 
HETATM    4  C   UNL     1      30.050  43.485  55.093  1.00  0.00     0.025 A 
HETATM    5  C   UNL     1      30.431  44.239  56.220  1.00  0.00     0.048 A 
HETATM    6  C   UNL     1      29.872  45.507  56.407  1.00  0.00     0.016 A 
HETATM    7  C   UNL     1      28.951  46.008  55.491  1.00  0.00     0.001 A 
HETATM    8  C   UNL     1      28.597  45.260  54.364  1.00  0.00     0.010 A 
BRANCH   5   9
HETATM    9  C   UNL     1      31.454  43.682  57.185  1.00  0.00     0.417 C 
HETATM   10  F   UNL     1      32.719  43.651  56.693  1.00  0.00    -0.166 F 
HETATM   11  F   UNL     1      31.504  44.386  58.347  1.00  0.00    -0.166 F 
HETATM   12  F   UNL     1      31.150  42.400  57.538  1.00  0.00    -0.166 F 
ENDBRANCH   5   9
ENDBRANCH   2   3
BRANCH   2  13
HETATM   13  O   UNL     1      29.840  42.234  52.570  1.00  0.00    -0.389 OA
HETATM   14  H   UNL     1      30.452  42.218  53.333  1.00  0.00     0.210 HD
ENDBRANCH   2  13
ENDBRANCH   1   2
BRANCH   1  15
HETATM   15  N   UNL     1      26.581  42.549  51.799  1.00  0.00    -0.068 N 
HETATM   16  H   UNL     1      26.295  41.584  51.553  1.00  0.00     0.280 HD
HETATM   17  C   UNL     1      25.323  43.312  52.131  1.00  0.00     0.235 C 
HETATM   18  C   UNL     1      24.472  43.520  50.887  1.00  0.00     0.037 C 
HETATM   19  C   UNL     1      25.244  44.247  49.779  1.00  0.00     0.025 C 
HETATM   20  C   UNL     1      26.475  43.394  49.445  1.00  0.00     0.037 C 
HETATM   21  C   UNL     1      27.362  43.149  50.657  1.00  0.00     0.235 C 
BRANCH  19  22
HETATM   22  C   UNL     1      25.566  45.678  50.132  1.00  0.00    -0.018 A 
HETATM   23  C   UNL     1      24.883  46.550  51.018  1.00  0.00     0.147 A 
HETATM   24  N   UNL     1      25.415  47.769  51.057  1.00  0.00    -0.187 NA
HETATM   25  N   UNL     1      26.510  47.671  50.292  1.00  0.00    -0.289 N 
HETATM   26  H   UNL     1      27.121  48.478  50.214  1.00  0.00     0.188 HD
HETATM   27  C   UNL     1      26.635  46.444  49.703  1.00  0.00     0.118 A 
ENDBRANCH  19  22
ENDBRANCH   1  15
TORSDOF 6
ENDMDL
MODEL 2
REMARK VINA RESULT:      -8.5      2.214      3.128
REMARK  6 active torsions:
REMARK  status: ('A' for Active; 'I' for Inactive)
REMARK    1  A    between atoms: C_3  and  C_4 
REMARK    2  A    between atoms: C_9  and  C_10 
REMARK    3  A    between atoms: C_10  and  O_11 
REMARK    4  A    between atoms: C_10  and  C_12 
REMARK    5  A    between atoms: C_12  and  N_13 
REMARK    6  A    between atoms: C_17  and  C_18 
ROOT
HETATM    1  C   UNL     1      27.424  44.106  51.067  1.00  0.00     0.271 C 
ENDROOT
BRANCH   1   2
HETATM    2  C   UNL     1      27.432  43.125  52.271  1.00  0.00     0.177 C 
BRANCH   2   3
HETATM    3  C   UNL     1      28.497  43.407  53.317  1.00  0.00    -0.027 A 
HETATM    4  C   UNL     1      28.390  44.529  54.160  1.00  0.00     0.025 A 
HETATM    5  C   UNL     1      29.337  44.787  55.171  1.00  0.00     0.048 A 
HETATM    6  C   UNL     1      30.432  43.928  55.308  1.00  0.00     0.016 A 
HETATM    7  C   UNL     1      30.579  42.840  54.453  1.00  0.00     0.001 A 
HETATM    8  C   UNL     1      29.623  42.581  53.466  1.00  0.00     0.010 A 
BRANCH   5   9
HETATM    9  C   UNL     1      29.138  45.961  56.103  1.00  0.00     0.417 C 
HETATM   10  F   UNL     1      30.226  46.257  56.860  1.00  0.00    -0.166 F 
HETATM   11  F   UNL     1      28.805  47.099  55.437  1.00  0.00    -0.166 F 
HETATM   12  F   UNL     1      28.117  45.728  56.977  1.00  0.00    -0.166 F 
ENDBRANCH   5   9
ENDBRANCH   2   3
BRANCH   2  13
HETATM   13  O   UNL     1      26.108  43.185  52.826  1.00  0.00    -0.389 OA
HETATM   14  H   UNL     1      25.934  42.308  53.223  1.00  0.00     0.210 HD
ENDBRANCH   2  13
ENDBRANCH   1   2
BRANCH   1  15
HETATM   15  N   UNL     1      26.170  44.999  51.062  1.00  0.00    -0.068 N 
HETATM   16  H   UNL     1      25.489  44.458  51.625  1.00  0.00     0.280 HD
HETATM   17  C   UNL     1      26.380  46.316  51.766  1.00  0.00     0.235 C 
HETATM   18  C   UNL     1      25.125  47.174  51.693  1.00  0.00     0.037 C 
HETATM   19  C   UNL     1      24.683  47.423  50.245  1.00  0.00     0.025 C 
HETATM   20  C   UNL     1      24.429  46.052  49.603  1.00  0.00     0.037 C 
HETATM   21  C   UNL     1      25.652  45.148  49.654  1.00  0.00     0.235 C 
BRANCH  19  22
HETATM   22  C   UNL     1      25.652  48.289  49.479  1.00  0.00    -0.018 A 
HETATM   23  C   UNL     1      25.376  49.350  48.580  1.00  0.00     0.147 A 
HETATM   24  N   UNL     1      26.476  49.870  48.040  1.00  0.00    -0.187 NA
HETATM   25  N   UNL     1      27.476  49.237  48.665  1.00  0.00    -0.289 N 
HETATM   26  H   UNL     1      28.431  49.511  48.455  1.00  0.00     0.188 HD
HETATM   27  C   UNL     1      27.034  48.270  49.524  1.00  0.00     0.118 A 
ENDBRANCH  19  22
ENDBRANCH   1  15
TORSDOF 6
ENDMDL
MODEL 3
REMARK VINA RESULT:      -8.4      3.479      5.455
REMARK  6 active torsions:
REMARK  status: ('A' for Active; 'I' for Inactive)
REMARK    1  A    between atoms: C_3  and  C_4 
REMARK    2  A    between atoms: C_9  and  C_10 
REMARK    3  A    between atoms: C_10  and  O_11 
REMARK    4  A    between atoms: C_10  and  C_12 
REMARK    5  A    between atoms: C_12  and  N_13 
REMARK    6  A    between atoms: C_17  and  C_18 
ROOT
HETATM    1  C   UNL     1      26.697  41.969  51.558  1.00  0.00     0.271 C 
ENDROOT
BRANCH   1   2
HETATM    2  C   UNL     1      27.849  41.774  52.581  1.00  0.00     0.177 C 
BRANCH   2   3
HETATM    3  C   UNL     1      28.154  42.989  53.441  1.00  0.00    -0.027 A 
HETATM    4  C   UNL     1      29.184  42.945  54.399  1.00  0.00     0.025 A 
HETATM    5  C   UNL     1      29.520  44.071  55.175  1.00  0.00     0.048 A 
HETATM    6  C   UNL     1      28.780  45.247  55.017  1.00  0.00     0.016 A 
HETATM    7  C   UNL     1      27.726  45.295  54.108  1.00  0.00     0.001 A 
HETATM    8  C   UNL     1      27.415  44.178  53.328  1.00  0.00     0.010 A 
BRANCH   5   9
HETATM    9  C   UNL     1      30.687  44.000  56.135  1.00  0.00     0.417 C 
HETATM   10  F   UNL     1      30.491  44.680  57.294  1.00  0.00    -0.166 F 
HETATM   11  F   UNL     1      30.994  42.721  56.479  1.00  0.00    -0.166 F 
HETATM   12  F   UNL     1      31.817  44.517  55.575  1.00  0.00    -0.166 F 
ENDBRANCH   5   9
ENDBRANCH   2   3
BRANCH   2  13
HETATM   13  O   UNL     1      27.471  40.638  53.375  1.00  0.00    -0.389 OA
HETATM   14  H   UNL     1      26.551  40.417  53.122  1.00  0.00     0.210 HD
ENDBRANCH   2  13
ENDBRANCH   1   2
BRANCH   1  15
HETATM   15  N   UNL     1      26.986  41.258  50.224  1.00  0.00    -0.068 N 
HETATM   16  H   UNL     1      26.658  41.938  49.515  1.00  0.00     0.280 HD
HETATM   17  C   UNL     1      28.458  41.037  49.980  1.00  0.00     0.235 C 
HETATM   18  C   UNL     1      28.683  40.293  48.671  1.00  0.00     0.037 C 
HETATM   19  C   UNL     1      27.944  38.950  48.640  1.00  0.00     0.025 C 
HETATM   20  C   UNL     1      26.450  39.245  48.834  1.00  0.00     0.037 C 
HETATM   21  C   UNL     1      26.167  39.996  50.128  1.00  0.00     0.235 C 
BRANCH  19  22
HETATM   22  C   UNL     1      28.505  37.951  49.622  1.00  0.00    -0.018 A 
HETATM   23  C   UNL     1      29.760  37.962  50.282  1.00  0.00     0.147 A 
HETATM   24  N   UNL     1      29.950  36.892  51.050  1.00  0.00    -0.187 NA
HETATM   25  N   UNL     1      28.784  36.237  50.990  1.00  0.00    -0.289 N 
HETATM   26  H   UNL     1      28.669  35.399  51.553  1.00  0.00     0.188 HD
HETATM   27  C   UNL     1      27.892  36.822  50.136  1.00  0.00     0.118 A 
ENDBRANCH  19  22
ENDBRANCH   1  15
TORSDOF 6
ENDMDL
MODEL 4
REMARK VINA RESULT:      -8.4      2.136      2.705
REMARK  6 active torsions:
REMARK  status: ('A' for Active; 'I' for Inactive)
REMARK    1  A    between atoms: C_3  and  C_4 
REMARK    2  A    between atoms: C_9  and  C_10 
REMARK    3  A    between atoms: C_10  and  O_11 
REMARK    4  A    between atoms: C_10  and  C_12 
REMARK    5  A    between atoms: C_12  and  N_13 
REMARK    6  A    between atoms: C_17  and  C_18 
ROOT
HETATM    1  C   UNL     1      27.409  41.913  52.707  1.00  0.00     0.271 C 
ENDROOT
BRANCH   1   2
HETATM    2  C   UNL     1      28.801  42.592  52.592  1.00  0.00     0.177 C 
BRANCH   2   3
HETATM    3  C   UNL     1      29.157  43.519  53.742  1.00  0.00    -0.027 A 
HETATM    4  C   UNL     1      28.426  44.702  53.958  1.00  0.00     0.025 A 
HETATM    5  C   UNL     1      28.702  45.554  55.045  1.00  0.00     0.048 A 
HETATM    6  C   UNL     1      29.760  45.236  55.902  1.00  0.00     0.016 A 
HETATM    7  C   UNL     1      30.525  44.095  55.677  1.00  0.00     0.001 A 
HETATM    8  C   UNL     1      30.229  43.245  54.607  1.00  0.00     0.010 A 
BRANCH   5   9
HETATM    9  C   UNL     1      27.837  46.772  55.282  1.00  0.00     0.417 C 
HETATM   10  F   UNL     1      26.551  46.626  54.870  1.00  0.00    -0.166 F 
HETATM   11  F   UNL     1      27.789  47.122  56.595  1.00  0.00    -0.166 F 
HETATM   12  F   UNL     1      28.328  47.860  54.623  1.00  0.00    -0.166 F 
ENDBRANCH   5   9
ENDBRANCH   2   3
BRANCH   2  13
HETATM   13  O   UNL     1      29.745  41.516  52.461  1.00  0.00    -0.389 OA
HETATM   14  H   UNL     1      29.438  40.970  51.708  1.00  0.00     0.210 HD
ENDBRANCH   2  13
ENDBRANCH   1   2
BRANCH   1  15
HETATM   15  N   UNL     1      26.466  42.340  51.568  1.00  0.00    -0.068 N 
HETATM   16  H   UNL     1      26.123  41.437  51.191  1.00  0.00     0.280 HD
HETATM   17  C   UNL     1      25.260  43.104  52.054  1.00  0.00     0.235 C 
HETATM   18  C   UNL     1      24.387  43.537  50.884  1.00  0.00     0.037 C 
HETATM   19  C   UNL     1      25.165  44.383  49.870  1.00  0.00     0.025 C 
HETATM   20  C   UNL     1      26.340  43.533  49.370  1.00  0.00     0.037 C 
HETATM   21  C   UNL     1      27.246  43.066  50.501  1.00  0.00     0.235 C 
BRANCH  19  22
HETATM   22  C   UNL     1      25.571  45.728  50.421  1.00  0.00    -0.018 A 
HETATM   23  C   UNL     1      25.246  46.311  51.671  1.00  0.00     0.147 A 
HETATM   24  N   UNL     1      25.736  47.541  51.812  1.00  0.00    -0.187 NA
HETATM   25  N   UNL     1      26.476  47.724  50.712  1.00  0.00    -0.289 N 
HETATM   26  H   UNL     1      27.003  48.588  50.620  1.00  0.00     0.188 HD
HETATM   27  C   UNL     1      26.396  46.675  49.840  1.00  0.00     0.118 A 
ENDBRANCH  19  22
ENDBRANCH   1  15
TORSDOF 6
ENDMDL
MODEL 5
REMARK VINA RESULT:      -8.3      2.232      3.961
REMARK  6 active torsions:
REMARK  status: ('A' for Active; 'I' for Inactive)
REMARK    1  A    between atoms: C_3  and  C_4 
REMARK    2  A    between atoms: C_9  and  C_10 
REMARK    3  A    between atoms: C_10  and  O_11 
REMARK    4  A    between atoms: C_10  and  C_12 
REMARK    5  A    between atoms: C_12  and  N_13 
REMARK    6  A    between atoms: C_17  and  C_18 
ROOT
HETATM    1  C   UNL     1      25.213  45.092  52.493  1.00  0.00     0.271 C 
ENDROOT
BRANCH   1   2
HETATM    2  C   UNL     1      25.703  44.329  53.755  1.00  0.00     0.177 C 
BRANCH   2   3
HETATM    3  C   UNL     1      26.963  44.891  54.392  1.00  0.00    -0.027 A 
HETATM    4  C   UNL     1      28.094  44.074  54.577  1.00  0.00     0.025 A 
HETATM    5  C   UNL     1      29.291  44.582  55.119  1.00  0.00     0.048 A 
HETATM    6  C   UNL     1      29.337  45.920  55.524  1.00  0.00     0.016 A 
HETATM    7  C   UNL     1      28.213  46.730  55.393  1.00  0.00     0.001 A 
HETATM    8  C   UNL     1      27.037  46.222  54.834  1.00  0.00     0.010 A 
BRANCH   5   9
HETATM    9  C   UNL     1      30.506  43.687  55.225  1.00  0.00     0.417 C 
HETATM   10  F   UNL     1      31.624  44.322  55.662  1.00  0.00    -0.166 F 
HETATM   11  F   UNL     1      30.301  42.636  56.063  1.00  0.00    -0.166 F 
HETATM   12  F   UNL     1      30.823  43.143  54.015  1.00  0.00    -0.166 F 
ENDBRANCH   5   9
ENDBRANCH   2   3
BRANCH   2  13
HETATM   13  O   UNL     1      24.593  44.338  54.666  1.00  0.00    -0.389 OA
HETATM   14  H   UNL     1      24.178  45.221  54.588  1.00  0.00     0.210 HD
ENDBRANCH   2  13
ENDBRANCH   1   2
BRANCH   1  15
HETATM   15  N   UNL     1      25.412  44.266  51.210  1.00  0.00    -0.068 N 
HETATM   16  H   UNL     1      24.811  44.750  50.519  1.00  0.00     0.280 HD
HETATM   17  C   UNL     1      26.825  44.321  50.685  1.00  0.00     0.235 C 
HETATM   18  C   UNL     1      26.974  43.454  49.442  1.00  0.00     0.037 C 
HETATM   19  C   UNL     1      26.574  41.998  49.707  1.00  0.00     0.025 C 
HETATM   20  C   UNL     1      25.114  42.003  50.180  1.00  0.00     0.037 C 
HETATM   21  C   UNL     1      24.905  42.861  51.419  1.00  0.00     0.235 C 
BRANCH  19  22
HETATM   22  C   UNL     1      27.521  41.293  50.647  1.00  0.00    -0.018 A 
HETATM   23  C   UNL     1      27.828  41.604  51.996  1.00  0.00     0.147 A 
HETATM   24  N   UNL     1      28.751  40.797  52.516  1.00  0.00    -0.187 NA
HETATM   25  N   UNL     1      28.967  39.889  51.556  1.00  0.00    -0.289 N 
HETATM   26  H   UNL     1      29.606  39.123  51.748  1.00  0.00     0.188 HD
HETATM   27  C   UNL     1      28.267  40.152  50.412  1.00  0.00     0.118 A 
ENDBRANCH  19  22
ENDBRANCH   1  15
TORSDOF 6
ENDMDL
MODEL 6
REMARK VINA RESULT:      -8.2      3.870      5.792
REMARK  6 active torsions:
REMARK  status: ('A' for Active; 'I' for Inactive)
REMARK    1  A    between atoms: C_3  and  C_4 
REMARK    2  A    between atoms: C_9  and  C_10 
REMARK    3  A    between atoms: C_10  and  O_11 
REMARK    4  A    between atoms: C_10  and  C_12 
REMARK    5  A    between atoms: C_12  and  N_13 
REMARK    6  A    between atoms: C_17  and  C_18 
ROOT
HETATM    1  C   UNL     1      26.990  42.186  51.882  1.00  0.00     0.271 C 
ENDROOT
BRANCH   1   2
HETATM    2  C   UNL     1      28.087  41.661  52.848  1.00  0.00     0.177 C 
BRANCH   2   3
HETATM    3  C   UNL     1      28.720  42.722  53.733  1.00  0.00    -0.027 A 
HETATM    4  C   UNL     1      28.057  43.940  53.971  1.00  0.00     0.025 A 
HETATM    5  C   UNL     1      28.597  44.920  54.826  1.00  0.00     0.048 A 
HETATM    6  C   UNL     1      29.844  44.692  55.416  1.00  0.00     0.016 A 
HETATM    7  C   UNL     1      30.537  43.512  55.154  1.00  0.00     0.001 A 
HETATM    8  C   UNL     1      29.982  42.537  54.320  1.00  0.00     0.010 A 
BRANCH   5   9
HETATM    9  C   UNL     1      27.811  46.180  55.115  1.00  0.00     0.417 C 
HETATM   10  F   UNL     1      28.259  47.276  54.449  1.00  0.00    -0.166 F 
HETATM   11  F   UNL     1      26.493  46.048  54.806  1.00  0.00    -0.166 F 
HETATM   12  F   UNL     1      27.854  46.495  56.441  1.00  0.00    -0.166 F 
ENDBRANCH   5   9
ENDBRANCH   2   3
BRANCH   2  13
HETATM   13  O   UNL     1      27.458  40.626  53.620  1.00  0.00    -0.389 OA
HETATM   14  H   UNL     1      26.873  40.139  53.004  1.00  0.00     0.210 HD
ENDBRANCH   2  13
ENDBRANCH   1   2
BRANCH   1  15
HETATM   15  N   UNL     1      27.057  41.496  50.507  1.00  0.00    -0.068 N 
HETATM   16  H   UNL     1      26.674  42.211  49.862  1.00  0.00     0.280 HD
HETATM   17  C   UNL     1      28.468  41.206  50.060  1.00  0.00     0.235 C 
HETATM   18  C   UNL     1      28.473  40.486  48.719  1.00  0.00     0.037 C 
HETATM   19  C   UNL     1      27.663  39.185  48.763  1.00  0.00     0.025 C 
HETATM   20  C   UNL     1      26.228  39.552  49.165  1.00  0.00     0.037 C 
HETATM   21  C   UNL     1      26.164  40.282  50.499  1.00  0.00     0.235 C 
BRANCH  19  22
HETATM   22  C   UNL     1      28.295  38.133  49.640  1.00  0.00    -0.018 A 
HETATM   23  C   UNL     1      29.580  38.130  50.240  1.00  0.00     0.147 A 
HETATM   24  N   UNL     1      29.834  37.012  50.916  1.00  0.00    -0.187 NA
HETATM   25  N   UNL     1      28.683  36.330  50.861  1.00  0.00    -0.289 N 
HETATM   26  H   UNL     1      28.616  35.450  51.364  1.00  0.00     0.188 HD
HETATM   27  C   UNL     1      27.737  36.952  50.095  1.00  0.00     0.118 A 
ENDBRANCH  19  22
ENDBRANCH   1  15
TORSDOF 6
ENDMDL
MODEL 7
REMARK VINA RESULT:      -8.1      1.586      2.152
REMARK  6 active torsions:
REMARK  status: ('A' for Active; 'I' for Inactive)
REMARK    1  A    between atoms: C_3  and  C_4 
REMARK    2  A    between atoms: C_9  and  C_10 
REMARK    3  A    between atoms: C_10  and  O_11 
REMARK    4  A    between atoms: C_10  and  C_12 
REMARK    5  A    between atoms: C_12  and  N_13 
REMARK    6  A    between atoms: C_17  and  C_18 
ROOT
HETATM    1  C   UNL     1      27.982  44.193  51.793  1.00  0.00     0.271 C 
ENDROOT
BRANCH   1   2
HETATM    2  C   UNL     1      27.987  43.428  53.145  1.00  0.00     0.177 C 
BRANCH   2   3
HETATM    3  C   UNL     1      28.688  44.149  54.284  1.00  0.00    -0.027 A 
HETATM    4  C   UNL     1      29.648  43.482  55.067  1.00  0.00     0.025 A 
HETATM    5  C   UNL     1      30.348  44.140  56.097  1.00  0.00     0.048 A 
HETATM    6  C   UNL     1      30.047  45.477  56.374  1.00  0.00     0.016 A 
HETATM    7  C   UNL     1      29.066  46.139  55.642  1.00  0.00     0.001 A 
HETATM    8  C   UNL     1      28.391  45.483  54.608  1.00  0.00     0.010 A 
BRANCH   5   9
HETATM    9  C   UNL     1      31.428  43.404  56.859  1.00  0.00     0.417 C 
HETATM   10  F   UNL     1      32.004  44.137  57.847  1.00  0.00    -0.166 F 
HETATM   11  F   UNL     1      30.966  42.264  57.437  1.00  0.00    -0.166 F 
HETATM   12  F   UNL     1      32.440  43.019  56.030  1.00  0.00    -0.166 F 
ENDBRANCH   5   9
ENDBRANCH   2   3
BRANCH   2  13
HETATM   13  O   UNL     1      26.606  43.168  53.446  1.00  0.00    -0.389 OA
HETATM   14  H   UNL     1      26.568  42.939  54.397  1.00  0.00     0.210 HD
ENDBRANCH   2  13
ENDBRANCH   1   2
BRANCH   1  15
HETATM   15  N   UNL     1      26.611  44.828  51.497  1.00  0.00    -0.068 N 
HETATM   16  H   UNL     1      25.947  44.203  51.990  1.00  0.00     0.280 HD
HETATM   17  C   UNL     1      26.454  46.202  52.099  1.00  0.00     0.235 C 
HETATM   18  C   UNL     1      25.100  46.798  51.740  1.00  0.00     0.037 C 
HETATM   19  C   UNL     1      24.888  46.867  50.222  1.00  0.00     0.025 C 
HETATM   20  C   UNL     1      25.000  45.436  49.680  1.00  0.00     0.037 C 
HETATM   21  C   UNL     1      26.335  44.787  50.016  1.00  0.00     0.235 C 
BRANCH  19  22
HETATM   22  C   UNL     1      25.809  47.853  49.547  1.00  0.00    -0.018 A 
HETATM   23  C   UNL     1      25.489  49.088  48.928  1.00  0.00     0.147 A 
HETATM   24  N   UNL     1      26.547  49.684  48.385  1.00  0.00    -0.187 NA
HETATM   25  N   UNL     1      27.578  48.908  48.743  1.00  0.00    -0.289 N 
HETATM   26  H   UNL     1      28.516  49.198  48.485  1.00  0.00     0.188 HD
HETATM   27  C   UNL     1      27.185  47.791  49.426  1.00  0.00     0.118 A 
ENDBRANCH  19  22
ENDBRANCH   1  15
TORSDOF 6
ENDMDL
MODEL 8
REMARK VINA RESULT:      -8.0      2.588      3.888
REMARK  6 active torsions:
REMARK  status: ('A' for Active; 'I' for Inactive)
REMARK    1  A    between atoms: C_3  and  C_4 
REMARK    2  A    between atoms: C_9  and  C_10 
REMARK    3  A    between atoms: C_10  and  O_11 
REMARK    4  A    between atoms: C_10  and  C_12 
REMARK    5  A    between atoms: C_12  and  N_13 
REMARK    6  A    between atoms: C_17  and  C_18 
ROOT
HETATM    1  C   UNL     1      27.503  44.188  51.974  1.00  0.00     0.271 C 
ENDROOT
BRANCH   1   2
HETATM    2  C   UNL     1      27.316  44.612  53.456  1.00  0.00     0.177 C 
BRANCH   2   3
HETATM    3  C   UNL     1      28.537  44.410  54.337  1.00  0.00    -0.027 A 
HETATM    4  C   UNL     1      28.709  45.177  55.505  1.00  0.00     0.025 A 
HETATM    5  C   UNL     1      29.806  44.976  56.366  1.00  0.00     0.048 A 
HETATM    6  C   UNL     1      30.768  44.021  56.025  1.00  0.00     0.016 A 
HETATM    7  C   UNL     1      30.640  43.286  54.850  1.00  0.00     0.001 A 
HETATM    8  C   UNL     1      29.537  43.478  54.013  1.00  0.00     0.010 A 
BRANCH   5   9
HETATM    9  C   UNL     1      29.906  45.769  57.650  1.00  0.00     0.417 C 
HETATM   10  F   UNL     1      30.920  46.672  57.664  1.00  0.00    -0.166 F 
HETATM   11  F   UNL     1      28.766  46.458  57.921  1.00  0.00    -0.166 F 
HETATM   12  F   UNL     1      30.110  44.949  58.720  1.00  0.00    -0.166 F 
ENDBRANCH   5   9
ENDBRANCH   2   3
BRANCH   2  13
HETATM   13  O   UNL     1      26.909  45.990  53.414  1.00  0.00    -0.389 OA
HETATM   14  H   UNL     1      27.240  46.350  52.567  1.00  0.00     0.210 HD
ENDBRANCH   2  13
ENDBRANCH   1   2
BRANCH   1  15
HETATM   15  N   UNL     1      26.615  42.986  51.604  1.00  0.00    -0.068 N 
HETATM   16  H   UNL     1      26.011  42.870  52.438  1.00  0.00     0.280 HD
HETATM   17  C   UNL     1      25.706  43.261  50.433  1.00  0.00     0.235 C 
HETATM   18  C   UNL     1      24.884  42.028  50.084  1.00  0.00     0.037 C 
HETATM   19  C   UNL     1      25.772  40.815  49.780  1.00  0.00     0.025 C 
HETATM   20  C   UNL     1      26.627  40.550  51.027  1.00  0.00     0.037 C 
HETATM   21  C   UNL     1      27.467  41.755  51.425  1.00  0.00     0.235 C 
BRANCH  19  22
HETATM   22  C   UNL     1      26.571  40.979  48.511  1.00  0.00    -0.018 A 
HETATM   23  C   UNL     1      27.976  40.920  48.332  1.00  0.00     0.147 A 
HETATM   24  N   UNL     1      28.348  41.160  47.077  1.00  0.00    -0.187 NA
HETATM   25  N   UNL     1      27.193  41.261  46.408  1.00  0.00    -0.289 N 
HETATM   26  H   UNL     1      27.224  41.391  45.401  1.00  0.00     0.188 HD
HETATM   27  C   UNL     1      26.101  41.176  47.225  1.00  0.00     0.118 A 
ENDBRANCH  19  22
ENDBRANCH   1  15
TORSDOF 6
ENDMDL
MODEL 9
REMARK VINA RESULT:      -8.0      2.002      3.859
REMARK  6 active torsions:
REMARK  status: ('A' for Active; 'I' for Inactive)
REMARK    1  A    between atoms: C_3  and  C_4 
REMARK    2  A    between atoms: C_9  and  C_10 
REMARK    3  A    between atoms: C_10  and  O_11 
REMARK    4  A    between atoms: C_10  and  C_12 
REMARK    5  A    between atoms: C_12  and  N_13 
REMARK    6  A    between atoms: C_17  and  C_18 
ROOT
HETATM    1  C   UNL     1      26.522  45.771  52.277  1.00  0.00     0.271 C 
ENDROOT
BRANCH   1   2
HETATM    2  C   UNL     1      26.743  44.980  53.595  1.00  0.00     0.177 C 
BRANCH   2   3
HETATM    3  C   UNL     1      28.082  44.268  53.695  1.00  0.00    -0.027 A 
HETATM    4  C   UNL     1      28.856  44.366  54.866  1.00  0.00     0.025 A 
HETATM    5  C   UNL     1      30.077  43.677  55.005  1.00  0.00     0.048 A 
HETATM    6  C   UNL     1      30.548  42.913  53.933  1.00  0.00     0.016 A 
HETATM    7  C   UNL     1      29.819  42.842  52.749  1.00  0.00     0.001 A 
HETATM    8  C   UNL     1      28.599  43.513  52.630  1.00  0.00     0.010 A 
BRANCH   5   9
HETATM    9  C   UNL     1      30.835  43.749  56.312  1.00  0.00     0.417 C 
HETATM   10  F   UNL     1      30.811  42.596  57.029  1.00  0.00    -0.166 F 
HETATM   11  F   UNL     1      32.144  44.070  56.132  1.00  0.00    -0.166 F 
HETATM   12  F   UNL     1      30.323  44.716  57.125  1.00  0.00    -0.166 F 
ENDBRANCH   5   9
ENDBRANCH   2   3
BRANCH   2  13
HETATM   13  O   UNL     1      26.566  45.936  54.653  1.00  0.00    -0.389 OA
HETATM   14  H   UNL     1      26.970  46.771  54.342  1.00  0.00     0.210 HD
ENDBRANCH   2  13
ENDBRANCH   1   2
BRANCH   1  15
HETATM   15  N   UNL     1      25.653  44.988  51.276  1.00  0.00    -0.068 N 
HETATM   16  H   UNL     1      24.883  45.647  51.062  1.00  0.00     0.280 HD
HETATM   17  C   UNL     1      26.364  44.700  49.977  1.00  0.00     0.235 C 
HETATM   18  C   UNL     1      25.476  43.889  49.044  1.00  0.00     0.037 C 
HETATM   19  C   UNL     1      25.016  42.575  49.688  1.00  0.00     0.025 C 
HETATM   20  C   UNL     1      24.252  42.937  50.968  1.00  0.00     0.037 C 
HETATM   21  C   UNL     1      25.092  43.756  51.938  1.00  0.00     0.235 C 
BRANCH  19  22
HETATM   22  C   UNL     1      26.149  41.602  49.903  1.00  0.00    -0.018 A 
HETATM   23  C   UNL     1      27.405  41.541  49.248  1.00  0.00     0.147 A 
HETATM   24  N   UNL     1      28.151  40.517  49.654  1.00  0.00    -0.187 NA
HETATM   25  N   UNL     1      27.443  39.973  50.651  1.00  0.00    -0.289 N 
HETATM   26  H   UNL     1      27.845  39.193  51.163  1.00  0.00     0.188 HD
HETATM   27  C   UNL     1      26.229  40.576  50.828  1.00  0.00     0.118 A 
ENDBRANCH  19  22
ENDBRANCH   1  15
TORSDOF 6
ENDMDL
MODEL 10
REMARK VINA RESULT:      -7.9     13.230     14.504
REMARK  6 active torsions:
REMARK  status: ('A' for Active; 'I' for Inactive)
REMARK    1  A    between atoms: C_3  and  C_4 
REMARK    2  A    between atoms: C_9  and  C_10 
REMARK    3  A    between atoms: C_10  and  O_11 
REMARK    4  A    between atoms: C_10  and  C_12 
REMARK    5  A    between atoms: C_12  and  N_13 
REMARK    6  A    between atoms: C_17  and  C_18 
ROOT
HETATM    1  C   UNL     1      30.700  47.979  40.985  1.00  0.00     0.271 C 
ENDROOT
BRANCH   1   2
HETATM    2  C   UNL     1      32.212  48.322  40.905  1.00  0.00     0.177 C 
BRANCH   2   3
HETATM    3  C   UNL     1      32.664  49.437  41.833  1.00  0.00    -0.027 A 
HETATM    4  C   UNL     1      33.938  50.017  41.684  1.00  0.00     0.025 A 
HETATM    5  C   UNL     1      34.363  51.085  42.499  1.00  0.00     0.048 A 
HETATM    6  C   UNL     1      33.513  51.548  43.508  1.00  0.00     0.016 A 
HETATM    7  C   UNL     1      32.269  50.955  43.701  1.00  0.00     0.001 A 
HETATM    8  C   UNL     1      31.847  49.909  42.873  1.00  0.00     0.010 A 
BRANCH   5   9
HETATM    9  C   UNL     1      35.709  51.728  42.249  1.00  0.00     0.417 C 
HETATM   10  F   UNL     1      35.838  52.279  41.015  1.00  0.00    -0.166 F 
HETATM   11  F   UNL     1      35.985  52.712  43.146  1.00  0.00    -0.166 F 
HETATM   12  F   UNL     1      36.719  50.820  42.369  1.00  0.00    -0.166 F 
ENDBRANCH   5   9
ENDBRANCH   2   3
BRANCH   2  13
HETATM   13  O   UNL     1      32.902  47.091  41.173  1.00  0.00    -0.389 OA
HETATM   14  H   UNL     1      33.130  46.706  40.303  1.00  0.00     0.210 HD
ENDBRANCH   2  13
ENDBRANCH   1   2
BRANCH   1  15
HETATM   15  N   UNL     1      29.843  48.967  40.174  1.00  0.00    -0.068 N 
HETATM   16  H   UNL     1      29.110  48.364  39.760  1.00  0.00     0.280 HD
HETATM   17  C   UNL     1      29.141  49.986  41.038  1.00  0.00     0.235 C 
HETATM   18  C   UNL     1      28.345  50.962  40.184  1.00  0.00     0.037 C 
HETATM   19  C   UNL     1      29.228  51.675  39.152  1.00  0.00     0.025 C 
HETATM   20  C   UNL     1      29.864  50.592  38.270  1.00  0.00     0.037 C 
HETATM   21  C   UNL     1      30.670  49.582  39.075  1.00  0.00     0.235 C 
BRANCH  19  22
HETATM   22  C   UNL     1      30.224  52.615  39.785  1.00  0.00    -0.018 A 
HETATM   23  C   UNL     1      31.635  52.496  39.859  1.00  0.00     0.147 A 
HETATM   24  N   UNL     1      32.203  53.490  40.537  1.00  0.00    -0.187 NA
HETATM   25  N   UNL     1      31.188  54.320  40.809  1.00  0.00    -0.289 N 
HETATM   26  H   UNL     1      31.391  55.195  41.283  1.00  0.00     0.188 HD
HETATM   27  C   UNL     1      29.981  53.832  40.394  1.00  0.00     0.118 A 
ENDBRANCH  19  22
ENDBRANCH   1  15
TORSDOF 6
ENDMDL
