MODEL 1
REMARK VINA RESULT:      -8.3      0.000      0.000
REMARK  4 active torsions:
REMARK  status: ('A' for Active; 'I' for Inactive)
REMARK    1  A    between atoms: C_2  and  N_3 
REMARK    2  A    between atoms: C_2  and  C_13 
REMARK       I    between atoms: N_3  and  C_4 
REMARK    3  A    between atoms: C_4  and  C_5 
REMARK    4  A    between atoms: C_6  and  C_7 
ROOT
HETATM    1  C   UNL     1      27.428  42.161  51.371  1.00  0.00     0.040 C 
HETATM    2  C   UNL     1      26.860  43.206  52.328  1.00  0.00     0.150 C 
ENDROOT
BRANCH   2   3
HETATM    3  N   UNL     1      26.500  44.422  51.628  1.00  0.00    -0.346 N 
HETATM    4  C   UNL     1      25.231  44.927  51.653  1.00  0.00     0.241 C 
HETATM    5  O   UNL     1      24.310  44.434  52.292  1.00  0.00    -0.269 OA
HETATM    6  H   UNL     1      27.231  44.836  51.059  1.00  0.00     0.163 HD
BRANCH   4   7
HETATM    7  C   UNL     1      25.072  46.140  50.816  1.00  0.00     0.075 C 
HETATM    8  C   UNL     1      26.158  46.842  50.452  1.00  0.00     0.017 C 
BRANCH   8   9
HETATM    9  C   UNL     1      26.162  48.033  49.655  1.00  0.00    -0.029 A 
HETATM   10  C   UNL     1      24.994  48.566  49.145  1.00  0.00     0.061 A 
HETATM   11  S   UNL     1      25.265  49.985  48.227  1.00  0.00    -0.113 SA
HETATM   12  C   UNL     1      26.949  49.906  48.506  1.00  0.00     0.050 A 
HETATM   13  C   UNL     1      27.296  48.819  49.281  1.00  0.00     0.019 A 
ENDBRANCH   8   9
ENDBRANCH   4   7
ENDBRANCH   2   3
BRANCH   2  14
HETATM   14  C   UNL     1      27.879  43.582  53.362  1.00  0.00     0.127 A 
HETATM   15  N   UNL     1      28.892  42.841  53.779  1.00  0.00    -0.231 NA
HETATM   16  C   UNL     1      29.529  43.597  54.734  1.00  0.00     0.085 A 
HETATM   17  C   UNL     1      28.901  44.826  54.897  1.00  0.00     0.062 A 
HETATM   18  C   UNL     1      30.659  43.295  55.509  1.00  0.00     0.034 A 
HETATM   19  N   UNL     1      27.860  44.795  54.006  1.00  0.00    -0.341 N 
HETATM   20  C   UNL     1      29.335  45.794  55.805  1.00  0.00     0.032 A 
HETATM   21  H   UNL     1      27.190  45.535  53.855  1.00  0.00     0.167 HD
HETATM   22  C   UNL     1      30.462  45.475  56.573  1.00  0.00     0.002 A 
HETATM   23  C   UNL     1      31.114  44.248  56.430  1.00  0.00     0.002 A 
ENDBRANCH   2  14
TORSDOF 4
ENDMDL
MODEL 2
REMARK VINA RESULT:      -7.8      3.028      7.689
REMARK  4 active torsions:
REMARK  status: ('A' for Active; 'I' for Inactive)
REMARK    1  A    between atoms: C_2  and  N_3 
REMARK    2  A    between atoms: C_2  and  C_13 
REMARK       I    between atoms: N_3  and  C_4 
REMARK    3  A    between atoms: C_4  and  C_5 
REMARK    4  A    between atoms: C_6  and  C_7 
ROOT
HETATM    1  C   UNL     1      24.304  44.372  51.498  1.00  0.00     0.040 C 
HETATM    2  C   UNL     1      25.724  44.829  51.169  1.00  0.00     0.150 C 
ENDROOT
BRANCH   2   3
HETATM    3  N   UNL     1      26.510  45.011  52.372  1.00  0.00    -0.346 N 
HETATM    4  C   UNL     1      27.579  44.214  52.670  1.00  0.00     0.241 C 
HETATM    5  O   UNL     1      27.988  43.319  51.942  1.00  0.00    -0.269 OA
HETATM    6  H   UNL     1      26.175  45.722  53.014  1.00  0.00     0.163 HD
BRANCH   4   7
HETATM    7  C   UNL     1      28.196  44.536  53.978  1.00  0.00     0.075 C 
HETATM    8  C   UNL     1      29.338  43.929  54.341  1.00  0.00     0.017 C 
BRANCH   8   9
HETATM    9  C   UNL     1      30.045  44.131  55.571  1.00  0.00    -0.029 A 
HETATM   10  C   UNL     1      29.814  45.238  56.364  1.00  0.00     0.061 A 
HETATM   11  S   UNL     1      30.783  45.251  57.775  1.00  0.00    -0.113 SA
HETATM   12  C   UNL     1      31.520  43.770  57.343  1.00  0.00     0.050 A 
HETATM   13  C   UNL     1      31.039  43.280  56.148  1.00  0.00     0.019 A 
ENDBRANCH   8   9
ENDBRANCH   4   7
ENDBRANCH   2   3
BRANCH   2  14
HETATM   14  C   UNL     1      25.700  46.149  50.457  1.00  0.00     0.127 A 
HETATM   15  N   UNL     1      24.628  46.827  50.085  1.00  0.00    -0.231 NA
HETATM   16  C   UNL     1      25.106  47.955  49.462  1.00  0.00     0.085 A 
HETATM   17  C   UNL     1      26.496  47.972  49.461  1.00  0.00     0.062 A 
HETATM   18  C   UNL     1      24.407  49.015  48.866  1.00  0.00     0.034 A 
HETATM   19  N   UNL     1      26.849  46.817  50.109  1.00  0.00    -0.341 N 
HETATM   20  C   UNL     1      27.250  49.000  48.892  1.00  0.00     0.032 A 
HETATM   21  H   UNL     1      27.793  46.508  50.293  1.00  0.00     0.167 HD
HETATM   22  C   UNL     1      26.535  50.049  48.299  1.00  0.00     0.002 A 
HETATM   23  C   UNL     1      25.138  50.059  48.285  1.00  0.00     0.002 A 
ENDBRANCH   2  14
TORSDOF 4
ENDMDL
MODEL 3
REMARK VINA RESULT:      -7.6      3.850      5.971
REMARK  4 active torsions:
REMARK  status: ('A' for Active; 'I' for Inactive)
REMARK    1  A    between atoms: C_2  and  N_3 
REMARK    2  A    between atoms: C_2  and  C_13 
REMARK       I    between atoms: N_3  and  C_4 
REMARK    3  A    between atoms: C_4  and  C_5 
REMARK    4  A    between atoms: C_6  and  C_7 
ROOT
HETATM    1  C   UNL     1      27.490  49.169  49.168  1.00  0.00     0.040 C 
HETATM    2  C   UNL     1      26.264  48.261  49.091  1.00  0.00     0.150 C 
ENDROOT
BRANCH   2   3
HETATM    3  N   UNL     1      25.037  49.029  49.131  1.00  0.00    -0.346 N 
HETATM    4  C   UNL     1      24.711  49.931  48.157  1.00  0.00     0.241 C 
HETATM    5  O   UNL     1      25.391  50.136  47.159  1.00  0.00    -0.269 OA
HETATM    6  H   UNL     1      24.468  48.909  49.963  1.00  0.00     0.163 HD
BRANCH   4   7
HETATM    7  C   UNL     1      23.445  50.650  48.432  1.00  0.00     0.075 C 
HETATM    8  C   UNL     1      22.333  49.952  48.716  1.00  0.00     0.017 C 
BRANCH   8   9
HETATM    9  C   UNL     1      21.040  50.504  48.996  1.00  0.00    -0.029 A 
HETATM   10  C   UNL     1      20.142  49.857  49.822  1.00  0.00     0.061 A 
HETATM   11  S   UNL     1      18.672  50.716  49.995  1.00  0.00    -0.113 SA
HETATM   12  C   UNL     1      19.223  51.968  48.970  1.00  0.00     0.050 A 
HETATM   13  C   UNL     1      20.499  51.733  48.504  1.00  0.00     0.019 A 
ENDBRANCH   8   9
ENDBRANCH   4   7
ENDBRANCH   2   3
BRANCH   2  14
HETATM   14  C   UNL     1      26.230  47.321  50.259  1.00  0.00     0.127 A 
HETATM   15  N   UNL     1      25.911  47.622  51.506  1.00  0.00    -0.231 NA
HETATM   16  C   UNL     1      26.039  46.448  52.210  1.00  0.00     0.085 A 
HETATM   17  C   UNL     1      26.434  45.408  51.377  1.00  0.00     0.062 A 
HETATM   18  C   UNL     1      25.834  46.194  53.574  1.00  0.00     0.034 A 
HETATM   19  N   UNL     1      26.539  45.988  50.139  1.00  0.00    -0.341 N 
HETATM   20  C   UNL     1      26.644  44.103  51.826  1.00  0.00     0.032 A 
HETATM   21  H   UNL     1      26.805  45.516  49.286  1.00  0.00     0.167 HD
HETATM   22  C   UNL     1      26.438  43.868  53.191  1.00  0.00     0.002 A 
HETATM   23  C   UNL     1      26.040  44.893  54.052  1.00  0.00     0.002 A 
ENDBRANCH   2  14
TORSDOF 4
ENDMDL
MODEL 4
REMARK VINA RESULT:      -7.6      3.081      7.224
REMARK  4 active torsions:
REMARK  status: ('A' for Active; 'I' for Inactive)
REMARK    1  A    between atoms: C_2  and  N_3 
REMARK    2  A    between atoms: C_2  and  C_13 
REMARK       I    between atoms: N_3  and  C_4 
REMARK    3  A    between atoms: C_4  and  C_5 
REMARK    4  A    between atoms: C_6  and  C_7 
ROOT
HETATM    1  C   UNL     1      25.605  42.748  50.974  1.00  0.00     0.040 C 
HETATM    2  C   UNL     1      26.933  43.402  50.599  1.00  0.00     0.150 C 
ENDROOT
BRANCH   2   3
HETATM    3  N   UNL     1      27.844  43.430  51.725  1.00  0.00    -0.346 N 
HETATM    4  C   UNL     1      28.615  42.355  52.064  1.00  0.00     0.241 C 
HETATM    5  O   UNL     1      28.641  41.306  51.434  1.00  0.00    -0.269 OA
HETATM    6  H   UNL     1      27.820  44.273  52.290  1.00  0.00     0.163 HD
BRANCH   4   7
HETATM    7  C   UNL     1      29.422  42.582  53.287  1.00  0.00     0.075 C 
HETATM    8  C   UNL     1      29.182  43.660  54.050  1.00  0.00     0.017 C 
BRANCH   8   9
HETATM    9  C   UNL     1      29.880  44.014  55.251  1.00  0.00    -0.029 A 
HETATM   10  C   UNL     1      29.614  45.193  55.920  1.00  0.00     0.061 A 
HETATM   11  S   UNL     1      30.579  45.387  57.320  1.00  0.00    -0.113 SA
HETATM   12  C   UNL     1      31.360  43.891  57.050  1.00  0.00     0.050 A 
HETATM   13  C   UNL     1      30.897  43.260  55.915  1.00  0.00     0.019 A 
ENDBRANCH   8   9
ENDBRANCH   4   7
ENDBRANCH   2   3
BRANCH   2  14
HETATM   14  C   UNL     1      26.718  44.824  50.174  1.00  0.00     0.127 A 
HETATM   15  N   UNL     1      27.639  45.667  49.738  1.00  0.00    -0.231 NA
HETATM   16  C   UNL     1      26.971  46.843  49.491  1.00  0.00     0.085 A 
HETATM   17  C   UNL     1      25.616  46.714  49.771  1.00  0.00     0.062 A 
HETATM   18  C   UNL     1      27.462  48.071  49.023  1.00  0.00     0.034 A 
HETATM   19  N   UNL     1      25.479  45.418  50.195  1.00  0.00    -0.341 N 
HETATM   20  C   UNL     1      24.698  47.755  49.613  1.00  0.00     0.032 A 
HETATM   21  H   UNL     1      24.616  44.978  50.480  1.00  0.00     0.167 HD
HETATM   22  C   UNL     1      25.206  48.975  49.149  1.00  0.00     0.002 A 
HETATM   23  C   UNL     1      26.563  49.133  48.858  1.00  0.00     0.002 A 
ENDBRANCH   2  14
TORSDOF 4
ENDMDL
MODEL 5
REMARK VINA RESULT:      -7.6      3.131      4.262
REMARK  4 active torsions:
REMARK  status: ('A' for Active; 'I' for Inactive)
REMARK    1  A    between atoms: C_2  and  N_3 
REMARK    2  A    between atoms: C_2  and  C_13 
REMARK       I    between atoms: N_3  and  C_4 
REMARK    3  A    between atoms: C_4  and  C_5 
REMARK    4  A    between atoms: C_6  and  C_7 
ROOT
HETATM    1  C   UNL     1      26.482  47.770  55.344  1.00  0.00     0.040 C 
HETATM    2  C   UNL     1      27.306  46.987  54.323  1.00  0.00     0.150 C 
ENDROOT
BRANCH   2   3
HETATM    3  N   UNL     1      26.473  46.083  53.557  1.00  0.00    -0.346 N 
HETATM    4  C   UNL     1      25.819  46.480  52.425  1.00  0.00     0.241 C 
HETATM    5  O   UNL     1      25.910  47.600  51.940  1.00  0.00    -0.269 OA
HETATM    6  H   UNL     1      26.348  45.156  53.952  1.00  0.00     0.163 HD
BRANCH   4   7
HETATM    7  C   UNL     1      24.973  45.413  51.838  1.00  0.00     0.075 C 
HETATM    8  C   UNL     1      25.407  44.739  50.761  1.00  0.00     0.017 C 
BRANCH   8   9
HETATM    9  C   UNL     1      24.702  43.692  50.082  1.00  0.00    -0.029 A 
HETATM   10  C   UNL     1      25.367  42.742  49.331  1.00  0.00     0.061 A 
HETATM   11  S   UNL     1      24.304  41.603  48.621  1.00  0.00    -0.113 SA
HETATM   12  C   UNL     1      22.942  42.365  49.316  1.00  0.00     0.050 A 
HETATM   13  C   UNL     1      23.290  43.465  50.071  1.00  0.00     0.019 A 
ENDBRANCH   8   9
ENDBRANCH   4   7
ENDBRANCH   2   3
BRANCH   2  14
HETATM   14  C   UNL     1      28.341  46.149  55.014  1.00  0.00     0.127 A 
HETATM   15  N   UNL     1      28.893  45.039  54.555  1.00  0.00    -0.231 NA
HETATM   16  C   UNL     1      29.762  44.629  55.538  1.00  0.00     0.085 A 
HETATM   17  C   UNL     1      29.749  45.510  56.613  1.00  0.00     0.062 A 
HETATM   18  C   UNL     1      30.600  43.505  55.582  1.00  0.00     0.034 A 
HETATM   19  N   UNL     1      28.844  46.474  56.250  1.00  0.00    -0.341 N 
HETATM   20  C   UNL     1      30.534  45.338  57.755  1.00  0.00     0.032 A 
HETATM   21  H   UNL     1      28.587  47.280  56.801  1.00  0.00     0.167 HD
HETATM   22  C   UNL     1      31.363  44.209  57.783  1.00  0.00     0.002 A 
HETATM   23  C   UNL     1      31.397  43.307  56.717  1.00  0.00     0.002 A 
ENDBRANCH   2  14
TORSDOF 4
ENDMDL
MODEL 6
REMARK VINA RESULT:      -7.5      3.879      5.884
REMARK  4 active torsions:
REMARK  status: ('A' for Active; 'I' for Inactive)
REMARK    1  A    between atoms: C_2  and  N_3 
REMARK    2  A    between atoms: C_2  and  C_13 
REMARK       I    between atoms: N_3  and  C_4 
REMARK    3  A    between atoms: C_4  and  C_5 
REMARK    4  A    between atoms: C_6  and  C_7 
ROOT
HETATM    1  C   UNL     1      25.398  45.161  52.950  1.00  0.00     0.040 C 
HETATM    2  C   UNL     1      26.788  44.833  52.408  1.00  0.00     0.150 C 
ENDROOT
BRANCH   2   3
HETATM    3  N   UNL     1      26.808  43.538  51.759  1.00  0.00    -0.346 N 
HETATM    4  C   UNL     1      27.046  43.398  50.420  1.00  0.00     0.241 C 
HETATM    5  O   UNL     1      27.302  44.332  49.671  1.00  0.00    -0.269 OA
HETATM    6  H   UNL     1      26.565  42.747  52.346  1.00  0.00     0.163 HD
BRANCH   4   7
HETATM    7  C   UNL     1      26.956  41.993  49.958  1.00  0.00     0.075 C 
HETATM    8  C   UNL     1      27.825  41.083  50.425  1.00  0.00     0.017 C 
BRANCH   8   9
HETATM    9  C   UNL     1      27.867  39.696  50.068  1.00  0.00    -0.029 A 
HETATM   10  C   UNL     1      26.760  39.049  49.552  1.00  0.00     0.061 A 
HETATM   11  S   UNL     1      27.062  37.400  49.209  1.00  0.00    -0.113 SA
HETATM   12  C   UNL     1      28.681  37.534  49.740  1.00  0.00     0.050 A 
HETATM   13  C   UNL     1      28.982  38.808  50.173  1.00  0.00     0.019 A 
ENDBRANCH   8   9
ENDBRANCH   4   7
ENDBRANCH   2   3
BRANCH   2  14
HETATM   14  C   UNL     1      27.790  44.780  53.523  1.00  0.00     0.127 A 
HETATM   15  N   UNL     1      27.915  45.645  54.514  1.00  0.00    -0.231 NA
HETATM   16  C   UNL     1      28.970  45.188  55.268  1.00  0.00     0.085 A 
HETATM   17  C   UNL     1      29.492  44.016  54.734  1.00  0.00     0.062 A 
HETATM   18  C   UNL     1      29.542  45.728  56.430  1.00  0.00     0.034 A 
HETATM   19  N   UNL     1      28.717  43.772  53.630  1.00  0.00    -0.341 N 
HETATM   20  C   UNL     1      30.573  43.333  55.295  1.00  0.00     0.032 A 
HETATM   21  H   UNL     1      28.817  42.989  53.000  1.00  0.00     0.167 HD
HETATM   22  C   UNL     1      31.134  43.887  56.453  1.00  0.00     0.002 A 
HETATM   23  C   UNL     1      30.629  45.064  57.012  1.00  0.00     0.002 A 
ENDBRANCH   2  14
TORSDOF 4
ENDMDL
MODEL 7
REMARK VINA RESULT:      -7.3      3.086      7.921
REMARK  4 active torsions:
REMARK  status: ('A' for Active; 'I' for Inactive)
REMARK    1  A    between atoms: C_2  and  N_3 
REMARK    2  A    between atoms: C_2  and  C_13 
REMARK       I    between atoms: N_3  and  C_4 
REMARK    3  A    between atoms: C_4  and  C_5 
REMARK    4  A    between atoms: C_6  and  C_7 
ROOT
HETATM    1  C   UNL     1      23.815  44.185  50.764  1.00  0.00     0.040 C 
HETATM    2  C   UNL     1      25.042  45.011  50.381  1.00  0.00     0.150 C 
ENDROOT
BRANCH   2   3
HETATM    3  N   UNL     1      25.889  45.260  51.530  1.00  0.00    -0.346 N 
HETATM    4  C   UNL     1      26.748  44.316  52.019  1.00  0.00     0.241 C 
HETATM    5  O   UNL     1      26.910  43.212  51.514  1.00  0.00    -0.269 OA
HETATM    6  H   UNL     1      25.753  46.152  51.994  1.00  0.00     0.163 HD
BRANCH   4   7
HETATM    7  C   UNL     1      27.467  44.760  53.237  1.00  0.00     0.075 C 
HETATM    8  C   UNL     1      28.548  44.082  53.654  1.00  0.00     0.017 C 
BRANCH   8   9
HETATM    9  C   UNL     1      29.338  44.386  54.811  1.00  0.00    -0.029 A 
HETATM   10  C   UNL     1      29.068  45.486  55.602  1.00  0.00     0.061 A 
HETATM   11  S   UNL     1      30.153  45.631  56.918  1.00  0.00    -0.113 SA
HETATM   12  C   UNL     1      30.993  44.219  56.447  1.00  0.00     0.050 A 
HETATM   13  C   UNL     1      30.458  43.651  55.310  1.00  0.00     0.019 A 
ENDBRANCH   8   9
ENDBRANCH   4   7
ENDBRANCH   2   3
BRANCH   2  14
HETATM   14  C   UNL     1      24.630  46.349  49.844  1.00  0.00     0.127 A 
HETATM   15  N   UNL     1      25.423  47.373  49.580  1.00  0.00    -0.231 NA
HETATM   16  C   UNL     1      24.594  48.371  49.126  1.00  0.00     0.085 A 
HETATM   17  C   UNL     1      23.271  47.947  49.103  1.00  0.00     0.062 A 
HETATM   18  C   UNL     1      24.903  49.676  48.715  1.00  0.00     0.034 A 
HETATM   19  N   UNL     1      23.322  46.653  49.555  1.00  0.00    -0.341 N 
HETATM   20  C   UNL     1      22.213  48.758  48.689  1.00  0.00     0.032 A 
HETATM   21  H   UNL     1      22.532  46.034  49.663  1.00  0.00     0.167 HD
HETATM   22  C   UNL     1      22.539  50.059  48.285  1.00  0.00     0.002 A 
HETATM   23  C   UNL     1      23.861  50.512  48.297  1.00  0.00     0.002 A 
ENDBRANCH   2  14
TORSDOF 4
ENDMDL
MODEL 8
REMARK VINA RESULT:      -7.2      3.657      6.938
REMARK  4 active torsions:
REMARK  status: ('A' for Active; 'I' for Inactive)
REMARK    1  A    between atoms: C_2  and  N_3 
REMARK    2  A    between atoms: C_2  and  C_13 
REMARK       I    between atoms: N_3  and  C_4 
REMARK    3  A    between atoms: C_4  and  C_5 
REMARK    4  A    between atoms: C_6  and  C_7 
ROOT
HETATM    1  C   UNL     1      26.618  43.893  49.727  1.00  0.00     0.040 C 
HETATM    2  C   UNL     1      26.540  42.805  50.797  1.00  0.00     0.150 C 
ENDROOT
BRANCH   2   3
HETATM    3  N   UNL     1      27.102  43.260  52.052  1.00  0.00    -0.346 N 
HETATM    4  C   UNL     1      26.343  43.870  53.010  1.00  0.00     0.241 C 
HETATM    5  O   UNL     1      25.134  44.045  52.917  1.00  0.00    -0.269 OA
HETATM    6  H   UNL     1      28.108  43.163  52.146  1.00  0.00     0.163 HD
BRANCH   4   7
HETATM    7  C   UNL     1      27.133  44.312  54.184  1.00  0.00     0.075 C 
HETATM    8  C   UNL     1      28.456  44.084  54.217  1.00  0.00     0.017 C 
BRANCH   8   9
HETATM    9  C   UNL     1      29.347  44.444  55.280  1.00  0.00    -0.029 A 
HETATM   10  C   UNL     1      29.090  45.523  56.103  1.00  0.00     0.061 A 
HETATM   11  S   UNL     1      30.302  45.747  57.291  1.00  0.00    -0.113 SA
HETATM   12  C   UNL     1      31.181  44.396  56.721  1.00  0.00     0.050 A 
HETATM   13  C   UNL     1      30.565  43.791  55.647  1.00  0.00     0.019 A 
ENDBRANCH   8   9
ENDBRANCH   4   7
ENDBRANCH   2   3
BRANCH   2  14
HETATM   14  C   UNL     1      27.324  41.598  50.378  1.00  0.00     0.127 A 
HETATM   15  N   UNL     1      27.525  41.175  49.141  1.00  0.00    -0.231 NA
HETATM   16  C   UNL     1      28.282  40.035  49.262  1.00  0.00     0.085 A 
HETATM   17  C   UNL     1      28.558  39.760  50.596  1.00  0.00     0.062 A 
HETATM   18  C   UNL     1      28.773  39.175  48.268  1.00  0.00     0.034 A 
HETATM   19  N   UNL     1      27.946  40.775  51.285  1.00  0.00    -0.341 N 
HETATM   20  C   UNL     1      29.308  38.657  51.012  1.00  0.00     0.032 A 
HETATM   21  H   UNL     1      27.947  40.892  52.288  1.00  0.00     0.167 HD
HETATM   22  C   UNL     1      29.787  37.808  50.007  1.00  0.00     0.002 A 
HETATM   23  C   UNL     1      29.526  38.060  48.658  1.00  0.00     0.002 A 
ENDBRANCH   2  14
TORSDOF 4
ENDMDL
MODEL 9
REMARK VINA RESULT:      -7.1      7.090     10.031
REMARK  4 active torsions:
REMARK  status: ('A' for Active; 'I' for Inactive)
REMARK    1  A    between atoms: C_2  and  N_3 
REMARK    2  A    between atoms: C_2  and  C_13 
REMARK       I    between atoms: N_3  and  C_4 
REMARK    3  A    between atoms: C_4  and  C_5 
REMARK    4  A    between atoms: C_6  and  C_7 
ROOT
HETATM    1  C   UNL     1      19.873  47.365  48.007  1.00  0.00     0.040 C 
HETATM    2  C   UNL     1      20.327  48.330  49.101  1.00  0.00     0.150 C 
ENDROOT
BRANCH   2   3
HETATM    3  N   UNL     1      19.608  49.585  49.028  1.00  0.00    -0.346 N 
HETATM    4  C   UNL     1      18.907  50.085  50.090  1.00  0.00     0.241 C 
HETATM    5  O   UNL     1      18.860  49.550  51.190  1.00  0.00    -0.269 OA
HETATM    6  H   UNL     1      19.597  50.035  48.119  1.00  0.00     0.163 HD
BRANCH   4   7
HETATM    7  C   UNL     1      18.195  51.346  49.774  1.00  0.00     0.075 C 
HETATM    8  C   UNL     1      16.853  51.363  49.749  1.00  0.00     0.017 C 
BRANCH   8   9
HETATM    9  C   UNL     1      16.030  52.498  49.454  1.00  0.00    -0.029 A 
HETATM   10  C   UNL     1      15.858  53.522  50.366  1.00  0.00     0.061 A 
HETATM   11  S   UNL     1      14.830  54.758  49.780  1.00  0.00    -0.113 SA
HETATM   12  C   UNL     1      14.608  53.941  48.296  1.00  0.00     0.050 A 
HETATM   13  C   UNL     1      15.301  52.750  48.251  1.00  0.00     0.019 A 
ENDBRANCH   8   9
ENDBRANCH   4   7
ENDBRANCH   2   3
BRANCH   2  14
HETATM   14  C   UNL     1      21.784  48.650  48.949  1.00  0.00     0.127 A 
HETATM   15  N   UNL     1      22.309  49.601  48.195  1.00  0.00    -0.231 NA
HETATM   16  C   UNL     1      23.668  49.498  48.369  1.00  0.00     0.085 A 
HETATM   17  C   UNL     1      23.980  48.472  49.253  1.00  0.00     0.062 A 
HETATM   18  C   UNL     1      24.705  50.251  47.799  1.00  0.00     0.034 A 
HETATM   19  N   UNL     1      22.763  47.955  49.615  1.00  0.00    -0.341 N 
HETATM   20  C   UNL     1      25.288  48.140  49.612  1.00  0.00     0.032 A 
HETATM   21  H   UNL     1      22.614  47.189  50.256  1.00  0.00     0.167 HD
HETATM   22  C   UNL     1      26.311  48.900  49.031  1.00  0.00     0.002 A 
HETATM   23  C   UNL     1      26.028  49.938  48.140  1.00  0.00     0.002 A 
ENDBRANCH   2  14
TORSDOF 4
ENDMDL
MODEL 10
REMARK VINA RESULT:      -7.0      4.927      9.337
REMARK  4 active torsions:
REMARK  status: ('A' for Active; 'I' for Inactive)
REMARK    1  A    between atoms: C_2  and  N_3 
REMARK    2  A    between atoms: C_2  and  C_13 
REMARK       I    between atoms: N_3  and  C_4 
REMARK    3  A    between atoms: C_4  and  C_5 
REMARK    4  A    between atoms: C_6  and  C_7 
ROOT
HETATM    1  C   UNL     1      22.032  45.999  47.679  1.00  0.00     0.040 C 
HETATM    2  C   UNL     1      22.667  47.224  48.335  1.00  0.00     0.150 C 
ENDROOT
BRANCH   2   3
HETATM    3  N   UNL     1      23.375  46.864  49.547  1.00  0.00    -0.346 N 
HETATM    4  C   UNL     1      24.406  47.615  50.037  1.00  0.00     0.241 C 
HETATM    5  O   UNL     1      24.789  48.663  49.533  1.00  0.00    -0.269 OA
HETATM    6  H   UNL     1      23.106  45.982  49.970  1.00  0.00     0.163 HD
BRANCH   4   7
HETATM    7  C   UNL     1      25.027  47.028  51.248  1.00  0.00     0.075 C 
HETATM    8  C   UNL     1      25.194  45.699  51.330  1.00  0.00     0.017 C 
BRANCH   8   9
HETATM    9  C   UNL     1      25.770  44.989  52.434  1.00  0.00    -0.029 A 
HETATM   10  C   UNL     1      27.035  44.438  52.359  1.00  0.00     0.061 A 
HETATM   11  S   UNL     1      27.493  43.642  53.802  1.00  0.00    -0.113 SA
HETATM   12  C   UNL     1      26.005  44.030  54.549  1.00  0.00     0.050 A 
HETATM   13  C   UNL     1      25.177  44.749  53.713  1.00  0.00     0.019 A 
ENDBRANCH   8   9
ENDBRANCH   4   7
ENDBRANCH   2   3
BRANCH   2  14
HETATM   14  C   UNL     1      21.614  48.218  48.723  1.00  0.00     0.127 A 
HETATM   15  N   UNL     1      20.427  47.951  49.241  1.00  0.00    -0.231 NA
HETATM   16  C   UNL     1      19.818  49.172  49.410  1.00  0.00     0.085 A 
HETATM   17  C   UNL     1      20.651  50.205  48.998  1.00  0.00     0.062 A 
HETATM   18  C   UNL     1      18.544  49.477  49.913  1.00  0.00     0.034 A 
HETATM   19  N   UNL     1      21.791  49.572  48.574  1.00  0.00    -0.341 N 
HETATM   20  C   UNL     1      20.287  51.552  49.054  1.00  0.00     0.032 A 
HETATM   21  H   UNL     1      22.616  50.025  48.209  1.00  0.00     0.167 HD
HETATM   22  C   UNL     1      19.011  51.838  49.555  1.00  0.00     0.002 A 
HETATM   23  C   UNL     1      18.152  50.820  49.978  1.00  0.00     0.002 A 
ENDBRANCH   2  14
TORSDOF 4
ENDMDL
