MODEL 1
REMARK VINA RESULT:      -9.1      0.000      0.000
REMARK  8 active torsions:
REMARK  status: ('A' for Active; 'I' for Inactive)
REMARK    1  A    between atoms: N_2  and  C_5 
REMARK    2  A    between atoms: C_5  and  C_6 
REMARK    3  A    between atoms: C_6  and  S_7 
REMARK    4  A    between atoms: S_7  and  C_8 
REMARK    5  A    between atoms: C_10  and  C_24 
REMARK    6  A    between atoms: C_15  and  C_18 
REMARK    7  A    between atoms: C_30  and  C_34 
REMARK       I    between atoms: C_34  and  N_36 
REMARK    8  A    between atoms: N_36  and  C_37 
ROOT
HETATM    1  C   UNL     1      27.008  44.246  52.832  1.00  0.00     0.108 A 
HETATM    2  N   UNL     1      26.652  43.649  51.679  1.00  0.00    -0.225 NA
HETATM    3  C   UNL     1      27.466  42.695  51.209  1.00  0.00     0.134 A 
HETATM    4  N   UNL     1      28.560  42.267  51.857  1.00  0.00    -0.232 NA
HETATM    5  C   UNL     1      28.910  42.879  52.993  1.00  0.00     0.072 A 
HETATM    6  C   UNL     1      30.074  42.475  53.630  1.00  0.00     0.033 A 
HETATM    7  C   UNL     1      30.529  43.087  54.803  1.00  0.00     0.014 A 
HETATM    8  C   UNL     1      29.807  44.133  55.374  1.00  0.00    -0.022 A 
HETATM    9  C   UNL     1      28.622  44.538  54.751  1.00  0.00     0.029 A 
HETATM   10  C   UNL     1      28.164  43.918  53.553  1.00  0.00     0.029 A 
ENDROOT
BRANCH   3  11
HETATM   11  C   UNL     1      27.166  42.055  49.869  1.00  0.00     0.086 C 
HETATM   12  C   UNL     1      26.201  40.868  49.942  1.00  0.00     0.188 C 
HETATM   13  O   UNL     1      24.856  41.190  50.336  1.00  0.00    -0.350 OA
HETATM   14  C   UNL     1      24.359  42.370  49.853  1.00  0.00     0.075 A 
HETATM   15  C   UNL     1      23.009  42.616  50.112  1.00  0.00     0.038 A 
HETATM   16  C   UNL     1      25.131  43.326  49.187  1.00  0.00    -0.023 A 
HETATM   17  C   UNL     1      22.418  43.817  49.709  1.00  0.00     0.020 A 
HETATM   18  C   UNL     1      23.183  44.776  49.036  1.00  0.00     0.032 A 
HETATM   19  C   UNL     1      24.536  44.526  48.776  1.00  0.00     0.027 A 
HETATM   20  C   UNL     1      26.581  43.071  48.887  1.00  0.00     0.056 C 
BRANCH  18  21
HETATM   21  C   UNL     1      22.618  46.090  48.628  1.00  0.00     0.252 C 
HETATM   22  O   UNL     1      21.851  46.148  47.674  1.00  0.00    -0.268 OA
HETATM   23  N   UNL     1      22.996  47.179  49.390  1.00  0.00    -0.352 N 
HETATM   24  H   UNL     1      23.473  47.028  50.269  1.00  0.00     0.163 HD
BRANCH  23  25
HETATM   25  C   UNL     1      22.498  48.492  49.120  1.00  0.00     0.084 A 
HETATM   26  C   UNL     1      23.306  49.707  49.484  1.00  0.00     0.027 A 
HETATM   27  C   UNL     1      23.123  49.333  48.043  1.00  0.00     0.027 A 
ENDBRANCH  23  25
ENDBRANCH  18  21
ENDBRANCH   3  11
BRANCH   1  28
HETATM   28  S   UNL     1      25.917  45.584  53.335  1.00  0.00    -0.108 SA
BRANCH  28  29
HETATM   29  C   UNL     1      25.355  46.184  51.698  1.00  0.00     0.108 C 
BRANCH  29  30
HETATM   30  C   UNL     1      26.153  47.425  51.289  1.00  0.00     0.244 C 
BRANCH  30  31
HETATM   31  N   UNL     1      26.516  47.402  49.810  1.00  0.00    -0.078 N 
HETATM   32  C   UNL     1      26.851  48.758  49.252  1.00  0.00     0.269 C 
HETATM   33  H   UNL     1      25.665  47.082  49.320  1.00  0.00     0.279 HD
HETATM   34  C   UNL     1      27.592  46.399  49.514  1.00  0.00     0.269 C 
ENDBRANCH  30  31
ENDBRANCH  29  30
ENDBRANCH  28  29
ENDBRANCH   1  28
BRANCH   8  35
HETATM   35  C   UNL     1      30.264  44.799  56.581  1.00  0.00     0.010 A 
HETATM   36  C   UNL     1      29.985  46.089  57.089  1.00  0.00     0.152 A 
HETATM   37  N   UNL     1      30.636  46.351  58.224  1.00  0.00    -0.187 NA
HETATM   38  N   UNL     1      31.328  45.225  58.458  1.00  0.00    -0.289 N 
HETATM   39  H   UNL     1      31.911  45.179  59.288  1.00  0.00     0.188 HD
HETATM   40  C   UNL     1      31.145  44.268  57.499  1.00  0.00     0.123 A 
ENDBRANCH   8  35
TORSDOF 8
ENDMDL
MODEL 2
REMARK VINA RESULT:      -8.8     12.005     13.107
REMARK  8 active torsions:
REMARK  status: ('A' for Active; 'I' for Inactive)
REMARK    1  A    between atoms: N_2  and  C_5 
REMARK    2  A    between atoms: C_5  and  C_6 
REMARK    3  A    between atoms: C_6  and  S_7 
REMARK    4  A    between atoms: S_7  and  C_8 
REMARK    5  A    between atoms: C_10  and  C_24 
REMARK    6  A    between atoms: C_15  and  C_18 
REMARK    7  A    between atoms: C_30  and  C_34 
REMARK       I    between atoms: C_34  and  N_36 
REMARK    8  A    between atoms: N_36  and  C_37 
ROOT
HETATM    1  C   UNL     1      30.461  49.671  38.849  1.00  0.00     0.108 A 
HETATM    2  N   UNL     1      29.666  48.703  38.356  1.00  0.00    -0.225 NA
HETATM    3  C   UNL     1      29.871  47.458  38.801  1.00  0.00     0.134 A 
HETATM    4  N   UNL     1      30.769  47.147  39.749  1.00  0.00    -0.232 NA
HETATM    5  C   UNL     1      31.562  48.114  40.220  1.00  0.00     0.072 A 
HETATM    6  C   UNL     1      32.529  47.779  41.156  1.00  0.00     0.033 A 
HETATM    7  C   UNL     1      33.422  48.724  41.672  1.00  0.00     0.014 A 
HETATM    8  C   UNL     1      33.357  50.053  41.254  1.00  0.00    -0.022 A 
HETATM    9  C   UNL     1      32.374  50.407  40.323  1.00  0.00     0.029 A 
HETATM   10  C   UNL     1      31.470  49.441  39.794  1.00  0.00     0.029 A 
ENDROOT
BRANCH   3  11
HETATM   11  C   UNL     1      29.070  46.315  38.211  1.00  0.00     0.086 C 
HETATM   12  C   UNL     1      28.720  45.210  39.213  1.00  0.00     0.188 C 
HETATM   13  O   UNL     1      27.814  45.594  40.261  1.00  0.00    -0.350 OA
HETATM   14  C   UNL     1      26.809  46.449  39.898  1.00  0.00     0.075 A 
HETATM   15  C   UNL     1      25.845  46.708  40.874  1.00  0.00     0.038 A 
HETATM   16  C   UNL     1      26.743  47.092  38.659  1.00  0.00    -0.023 A 
HETATM   17  C   UNL     1      24.807  47.610  40.623  1.00  0.00     0.020 A 
HETATM   18  C   UNL     1      24.730  48.253  39.382  1.00  0.00     0.032 A 
HETATM   19  C   UNL     1      25.698  47.990  38.405  1.00  0.00     0.027 A 
HETATM   20  C   UNL     1      27.764  46.814  37.592  1.00  0.00     0.056 C 
BRANCH  18  21
HETATM   21  C   UNL     1      23.677  49.257  39.079  1.00  0.00     0.252 C 
HETATM   22  O   UNL     1      23.667  49.811  37.985  1.00  0.00    -0.268 OA
HETATM   23  N   UNL     1      22.746  49.485  40.074  1.00  0.00    -0.352 N 
HETATM   24  H   UNL     1      22.704  48.858  40.867  1.00  0.00     0.163 HD
BRANCH  23  25
HETATM   25  C   UNL     1      21.666  50.405  39.895  1.00  0.00     0.084 A 
HETATM   26  C   UNL     1      20.781  50.780  41.051  1.00  0.00     0.027 A 
HETATM   27  C   UNL     1      21.739  51.785  40.484  1.00  0.00     0.027 A 
ENDBRANCH  23  25
ENDBRANCH  18  21
ENDBRANCH   3  11
BRANCH   1  28
HETATM   28  S   UNL     1      30.187  51.292  38.121  1.00  0.00    -0.108 SA
BRANCH  28  29
HETATM   29  C   UNL     1      28.569  51.719  38.867  1.00  0.00     0.108 C 
BRANCH  29  30
HETATM   30  C   UNL     1      28.741  52.843  39.892  1.00  0.00     0.244 C 
BRANCH  30  31
HETATM   31  N   UNL     1      28.553  52.342  41.318  1.00  0.00    -0.078 N 
HETATM   32  C   UNL     1      27.887  50.996  41.399  1.00  0.00     0.269 C 
HETATM   33  H   UNL     1      27.912  53.016  41.767  1.00  0.00     0.279 HD
HETATM   34  C   UNL     1      29.836  52.376  42.097  1.00  0.00     0.269 C 
ENDBRANCH  30  31
ENDBRANCH  29  30
ENDBRANCH  28  29
ENDBRANCH   1  28
BRANCH   8  35
HETATM   35  C   UNL     1      34.281  51.052  41.758  1.00  0.00     0.010 A 
HETATM   36  C   UNL     1      35.353  51.724  41.126  1.00  0.00     0.152 A 
HETATM   37  N   UNL     1      36.000  52.554  41.947  1.00  0.00    -0.187 NA
HETATM   38  N   UNL     1      35.338  52.429  43.108  1.00  0.00    -0.289 N 
HETATM   39  H   UNL     1      35.650  52.978  43.904  1.00  0.00     0.188 HD
HETATM   40  C   UNL     1      34.306  51.535  43.049  1.00  0.00     0.123 A 
ENDBRANCH   8  35
TORSDOF 8
ENDMDL
MODEL 3
REMARK VINA RESULT:      -8.6      3.474      8.501
REMARK  8 active torsions:
REMARK  status: ('A' for Active; 'I' for Inactive)
REMARK    1  A    between atoms: N_2  and  C_5 
REMARK    2  A    between atoms: C_5  and  C_6 
REMARK    3  A    between atoms: C_6  and  S_7 
REMARK    4  A    between atoms: S_7  and  C_8 
REMARK    5  A    between atoms: C_10  and  C_24 
REMARK    6  A    between atoms: C_15  and  C_18 
REMARK    7  A    between atoms: C_30  and  C_34 
REMARK       I    between atoms: C_34  and  N_36 
REMARK    8  A    between atoms: N_36  and  C_37 
ROOT
HETATM    1  C   UNL     1      24.530  41.861  48.319  1.00  0.00     0.108 A 
HETATM    2  N   UNL     1      24.487  43.141  48.737  1.00  0.00    -0.225 NA
HETATM    3  C   UNL     1      25.621  43.666  49.216  1.00  0.00     0.134 A 
HETATM    4  N   UNL     1      26.793  43.011  49.233  1.00  0.00    -0.232 NA
HETATM    5  C   UNL     1      26.819  41.738  48.828  1.00  0.00     0.072 A 
HETATM    6  C   UNL     1      28.018  41.045  48.902  1.00  0.00     0.033 A 
HETATM    7  C   UNL     1      28.123  39.700  48.533  1.00  0.00     0.014 A 
HETATM    8  C   UNL     1      27.004  39.011  48.067  1.00  0.00    -0.022 A 
HETATM    9  C   UNL     1      25.793  39.703  47.971  1.00  0.00     0.029 A 
HETATM   10  C   UNL     1      25.687  41.071  48.354  1.00  0.00     0.029 A 
ENDROOT
BRANCH   3  11
HETATM   11  C   UNL     1      25.608  45.069  49.788  1.00  0.00     0.086 C 
HETATM   12  C   UNL     1      24.452  45.341  50.755  1.00  0.00     0.188 C 
HETATM   13  O   UNL     1      24.492  44.603  51.988  1.00  0.00    -0.350 OA
HETATM   14  C   UNL     1      25.734  44.421  52.534  1.00  0.00     0.075 A 
HETATM   15  C   UNL     1      25.765  43.834  53.801  1.00  0.00     0.038 A 
HETATM   16  C   UNL     1      26.927  44.736  51.878  1.00  0.00    -0.023 A 
HETATM   17  C   UNL     1      26.985  43.555  54.423  1.00  0.00     0.020 A 
HETATM   18  C   UNL     1      28.184  43.873  53.775  1.00  0.00     0.032 A 
HETATM   19  C   UNL     1      28.150  44.463  52.506  1.00  0.00     0.027 A 
HETATM   20  C   UNL     1      26.913  45.382  50.521  1.00  0.00     0.056 C 
BRANCH  18  21
HETATM   21  C   UNL     1      29.510  43.554  54.369  1.00  0.00     0.252 C 
HETATM   22  O   UNL     1      30.226  42.716  53.833  1.00  0.00    -0.268 OA
HETATM   23  N   UNL     1      29.856  44.262  55.504  1.00  0.00    -0.352 N 
HETATM   24  H   UNL     1      29.305  45.065  55.774  1.00  0.00     0.163 HD
BRANCH  23  25
HETATM   25  C   UNL     1      31.115  44.070  56.152  1.00  0.00     0.084 A 
HETATM   26  C   UNL     1      31.257  44.296  57.632  1.00  0.00     0.027 A 
HETATM   27  C   UNL     1      31.323  42.904  57.077  1.00  0.00     0.027 A 
ENDBRANCH  23  25
ENDBRANCH  18  21
ENDBRANCH   3  11
BRANCH   1  28
HETATM   28  S   UNL     1      22.942  41.206  47.791  1.00  0.00    -0.108 SA
BRANCH  28  29
HETATM   29  C   UNL     1      22.564  42.336  46.400  1.00  0.00     0.108 C 
BRANCH  29  30
HETATM   30  C   UNL     1      21.458  43.316  46.803  1.00  0.00     0.244 C 
BRANCH  30  31
HETATM   31  N   UNL     1      21.996  44.457  47.654  1.00  0.00    -0.078 N 
HETATM   32  C   UNL     1      22.221  45.729  46.883  1.00  0.00     0.269 C 
HETATM   33  H   UNL     1      22.924  44.144  47.985  1.00  0.00     0.279 HD
HETATM   34  C   UNL     1      21.154  44.690  48.875  1.00  0.00     0.269 C 
ENDBRANCH  30  31
ENDBRANCH  29  30
ENDBRANCH  28  29
ENDBRANCH   1  28
BRANCH   8  35
HETATM   35  C   UNL     1      27.078  37.610  47.694  1.00  0.00     0.010 A 
HETATM   36  C   UNL     1      27.554  36.990  46.515  1.00  0.00     0.152 A 
HETATM   37  N   UNL     1      27.416  35.663  46.535  1.00  0.00    -0.187 NA
HETATM   38  N   UNL     1      26.862  35.422  47.735  1.00  0.00    -0.289 N 
HETATM   39  H   UNL     1      26.661  34.460  47.989  1.00  0.00     0.188 HD
HETATM   40  C   UNL     1      26.633  36.555  48.463  1.00  0.00     0.123 A 
ENDBRANCH   8  35
TORSDOF 8
ENDMDL
MODEL 4
REMARK VINA RESULT:      -8.5      8.998     11.789
REMARK  8 active torsions:
REMARK  status: ('A' for Active; 'I' for Inactive)
REMARK    1  A    between atoms: N_2  and  C_5 
REMARK    2  A    between atoms: C_5  and  C_6 
REMARK    3  A    between atoms: C_6  and  S_7 
REMARK    4  A    between atoms: S_7  and  C_8 
REMARK    5  A    between atoms: C_10  and  C_24 
REMARK    6  A    between atoms: C_15  and  C_18 
REMARK    7  A    between atoms: C_30  and  C_34 
REMARK       I    between atoms: C_34  and  N_36 
REMARK    8  A    between atoms: N_36  and  C_37 
ROOT
HETATM    1  C   UNL     1      28.698  48.997  40.951  1.00  0.00     0.108 A 
HETATM    2  N   UNL     1      27.966  48.095  40.269  1.00  0.00    -0.225 NA
HETATM    3  C   UNL     1      28.619  47.056  39.736  1.00  0.00     0.134 A 
HETATM    4  N   UNL     1      29.933  46.839  39.904  1.00  0.00    -0.232 NA
HETATM    5  C   UNL     1      30.651  47.749  40.569  1.00  0.00     0.072 A 
HETATM    6  C   UNL     1      32.018  47.553  40.691  1.00  0.00     0.033 A 
HETATM    7  C   UNL     1      32.846  48.475  41.340  1.00  0.00     0.014 A 
HETATM    8  C   UNL     1      32.305  49.633  41.897  1.00  0.00    -0.022 A 
HETATM    9  C   UNL     1      30.924  49.834  41.797  1.00  0.00     0.029 A 
HETATM   10  C   UNL     1      30.085  48.897  41.129  1.00  0.00     0.029 A 
ENDROOT
BRANCH   3  11
HETATM   11  C   UNL     1      27.862  46.062  38.879  1.00  0.00     0.086 C 
HETATM   12  C   UNL     1      28.501  44.671  38.818  1.00  0.00     0.188 C 
HETATM   13  O   UNL     1      28.501  43.938  40.056  1.00  0.00    -0.350 OA
HETATM   14  C   UNL     1      27.383  44.079  40.833  1.00  0.00     0.075 A 
HETATM   15  C   UNL     1      27.315  43.258  41.960  1.00  0.00     0.038 A 
HETATM   16  C   UNL     1      26.373  45.012  40.583  1.00  0.00    -0.023 A 
HETATM   17  C   UNL     1      26.241  43.363  42.849  1.00  0.00     0.020 A 
HETATM   18  C   UNL     1      25.223  44.290  42.602  1.00  0.00     0.032 A 
HETATM   19  C   UNL     1      25.293  45.111  41.469  1.00  0.00     0.027 A 
HETATM   20  C   UNL     1      26.422  45.892  39.365  1.00  0.00     0.056 C 
BRANCH  18  21
HETATM   21  C   UNL     1      24.083  44.478  43.538  1.00  0.00     0.252 C 
HETATM   22  O   UNL     1      23.283  45.387  43.343  1.00  0.00    -0.268 OA
HETATM   23  N   UNL     1      23.994  43.574  44.580  1.00  0.00    -0.352 N 
HETATM   24  H   UNL     1      24.572  42.745  44.567  1.00  0.00     0.163 HD
BRANCH  23  25
HETATM   25  C   UNL     1      22.928  43.628  45.531  1.00  0.00     0.084 A 
HETATM   26  C   UNL     1      22.894  42.681  46.698  1.00  0.00     0.027 A 
HETATM   27  C   UNL     1      23.177  44.137  46.923  1.00  0.00     0.027 A 
ENDBRANCH  23  25
ENDBRANCH  18  21
ENDBRANCH   3  11
BRANCH   1  28
HETATM   28  S   UNL     1      27.759  50.411  41.543  1.00  0.00    -0.108 SA
BRANCH  28  29
HETATM   29  C   UNL     1      27.997  51.573  40.147  1.00  0.00     0.108 C 
BRANCH  29  30
HETATM   30  C   UNL     1      28.668  52.858  40.640  1.00  0.00     0.244 C 
BRANCH  30  31
HETATM   31  N   UNL     1      29.982  53.123  39.917  1.00  0.00    -0.078 N 
HETATM   32  C   UNL     1      31.131  53.414  40.845  1.00  0.00     0.269 C 
HETATM   33  H   UNL     1      29.827  53.979  39.362  1.00  0.00     0.279 HD
HETATM   34  C   UNL     1      30.317  52.028  38.946  1.00  0.00     0.269 C 
ENDBRANCH  30  31
ENDBRANCH  29  30
ENDBRANCH  28  29
ENDBRANCH   1  28
BRANCH   8  35
HETATM   35  C   UNL     1      33.141  50.616  42.562  1.00  0.00     0.010 A 
HETATM   36  C   UNL     1      34.460  51.046  42.288  1.00  0.00     0.152 A 
HETATM   37  N   UNL     1      34.903  51.952  43.162  1.00  0.00    -0.187 NA
HETATM   38  N   UNL     1      33.863  52.119  43.996  1.00  0.00    -0.289 N 
HETATM   39  H   UNL     1      33.959  52.779  44.762  1.00  0.00     0.188 HD
HETATM   40  C   UNL     1      32.788  51.336  43.683  1.00  0.00     0.123 A 
ENDBRANCH   8  35
TORSDOF 8
ENDMDL
MODEL 5
REMARK VINA RESULT:      -8.4      4.133      7.084
REMARK  8 active torsions:
REMARK  status: ('A' for Active; 'I' for Inactive)
REMARK    1  A    between atoms: N_2  and  C_5 
REMARK    2  A    between atoms: C_5  and  C_6 
REMARK    3  A    between atoms: C_6  and  S_7 
REMARK    4  A    between atoms: S_7  and  C_8 
REMARK    5  A    between atoms: C_10  and  C_24 
REMARK    6  A    between atoms: C_15  and  C_18 
REMARK    7  A    between atoms: C_30  and  C_34 
REMARK       I    between atoms: C_34  and  N_36 
REMARK    8  A    between atoms: N_36  and  C_37 
ROOT
HETATM    1  C   UNL     1      22.811  46.313  48.672  1.00  0.00     0.108 A 
HETATM    2  N   UNL     1      21.912  46.201  47.677  1.00  0.00    -0.225 NA
HETATM    3  C   UNL     1      21.467  44.972  47.391  1.00  0.00     0.134 A 
HETATM    4  N   UNL     1      21.816  43.876  48.083  1.00  0.00    -0.232 NA
HETATM    5  C   UNL     1      22.721  43.999  49.059  1.00  0.00     0.072 A 
HETATM    6  C   UNL     1      23.125  42.856  49.734  1.00  0.00     0.033 A 
HETATM    7  C   UNL     1      24.093  42.893  50.743  1.00  0.00     0.014 A 
HETATM    8  C   UNL     1      24.682  44.103  51.107  1.00  0.00    -0.022 A 
HETATM    9  C   UNL     1      24.270  45.265  50.446  1.00  0.00     0.029 A 
HETATM   10  C   UNL     1      23.289  45.224  49.414  1.00  0.00     0.029 A 
ENDROOT
BRANCH   3  11
HETATM   11  C   UNL     1      20.526  44.774  46.219  1.00  0.00     0.086 C 
HETATM   12  C   UNL     1      19.332  43.864  46.520  1.00  0.00     0.188 C 
HETATM   13  O   UNL     1      18.387  44.380  47.473  1.00  0.00    -0.350 OA
HETATM   14  C   UNL     1      18.146  45.726  47.405  1.00  0.00     0.075 A 
HETATM   15  C   UNL     1      17.125  46.206  48.227  1.00  0.00     0.038 A 
HETATM   16  C   UNL     1      18.887  46.611  46.618  1.00  0.00    -0.023 A 
HETATM   17  C   UNL     1      16.836  47.573  48.273  1.00  0.00     0.020 A 
HETATM   18  C   UNL     1      17.570  48.465  47.483  1.00  0.00     0.032 A 
HETATM   19  C   UNL     1      18.592  47.981  46.658  1.00  0.00     0.027 A 
HETATM   20  C   UNL     1      19.979  46.110  45.715  1.00  0.00     0.056 C 
BRANCH  18  21
HETATM   21  C   UNL     1      17.337  49.933  47.529  1.00  0.00     0.252 C 
HETATM   22  O   UNL     1      17.904  50.660  46.720  1.00  0.00    -0.268 OA
HETATM   23  N   UNL     1      16.459  50.382  48.495  1.00  0.00    -0.352 N 
HETATM   24  H   UNL     1      15.888  49.713  48.995  1.00  0.00     0.163 HD
BRANCH  23  25
HETATM   25  C   UNL     1      16.128  51.767  48.623  1.00  0.00     0.084 A 
HETATM   26  C   UNL     1      15.235  52.241  49.736  1.00  0.00     0.027 A 
HETATM   27  C   UNL     1      16.696  52.582  49.751  1.00  0.00     0.027 A 
ENDBRANCH  23  25
ENDBRANCH  18  21
ENDBRANCH   3  11
BRANCH   1  28
HETATM   28  S   UNL     1      23.432  47.982  48.919  1.00  0.00    -0.108 SA
BRANCH  28  29
HETATM   29  C   UNL     1      21.966  48.958  48.415  1.00  0.00     0.108 C 
BRANCH  29  30
HETATM   30  C   UNL     1      20.779  48.633  49.325  1.00  0.00     0.244 C 
BRANCH  30  31
HETATM   31  N   UNL     1      20.355  49.839  50.153  1.00  0.00    -0.078 N 
HETATM   32  C   UNL     1      20.373  51.132  49.385  1.00  0.00     0.269 C 
HETATM   33  H   UNL     1      21.063  49.928  50.899  1.00  0.00     0.279 HD
HETATM   34  C   UNL     1      19.034  49.616  50.831  1.00  0.00     0.269 C 
ENDBRANCH  30  31
ENDBRANCH  29  30
ENDBRANCH  28  29
ENDBRANCH   1  28
BRANCH   8  35
HETATM   35  C   UNL     1      25.702  44.169  52.138  1.00  0.00     0.010 A 
HETATM   36  C   UNL     1      25.592  44.302  53.541  1.00  0.00     0.152 A 
HETATM   37  N   UNL     1      26.778  44.366  54.150  1.00  0.00    -0.187 NA
HETATM   38  N   UNL     1      27.657  44.260  53.141  1.00  0.00    -0.289 N 
HETATM   39  H   UNL     1      28.648  44.279  53.359  1.00  0.00     0.188 HD
HETATM   40  C   UNL     1      27.063  44.149  51.915  1.00  0.00     0.123 A 
ENDBRANCH   8  35
TORSDOF 8
ENDMDL
MODEL 6
REMARK VINA RESULT:      -7.9      2.944      5.369
REMARK  8 active torsions:
REMARK  status: ('A' for Active; 'I' for Inactive)
REMARK    1  A    between atoms: N_2  and  C_5 
REMARK    2  A    between atoms: C_5  and  C_6 
REMARK    3  A    between atoms: C_6  and  S_7 
REMARK    4  A    between atoms: S_7  and  C_8 
REMARK    5  A    between atoms: C_10  and  C_24 
REMARK    6  A    between atoms: C_15  and  C_18 
REMARK    7  A    between atoms: C_30  and  C_34 
REMARK       I    between atoms: C_34  and  N_36 
REMARK    8  A    between atoms: N_36  and  C_37 
ROOT
HETATM    1  C   UNL     1      25.135  43.358  49.908  1.00  0.00     0.108 A 
HETATM    2  N   UNL     1      24.485  43.170  48.744  1.00  0.00    -0.225 NA
HETATM    3  C   UNL     1      23.944  44.248  48.166  1.00  0.00     0.134 A 
HETATM    4  N   UNL     1      24.075  45.494  48.647  1.00  0.00    -0.232 NA
HETATM    5  C   UNL     1      24.709  45.665  49.811  1.00  0.00     0.072 A 
HETATM    6  C   UNL     1      24.792  46.946  50.337  1.00  0.00     0.033 A 
HETATM    7  C   UNL     1      25.407  47.206  51.566  1.00  0.00     0.014 A 
HETATM    8  C   UNL     1      25.968  46.165  52.305  1.00  0.00    -0.022 A 
HETATM    9  C   UNL     1      25.907  44.871  51.776  1.00  0.00     0.029 A 
HETATM   10  C   UNL     1      25.273  44.608  50.528  1.00  0.00     0.029 A 
ENDROOT
BRANCH   3  11
HETATM   11  C   UNL     1      23.120  44.082  46.904  1.00  0.00     0.086 C 
HETATM   12  C   UNL     1      21.887  43.189  47.074  1.00  0.00     0.188 C 
HETATM   13  O   UNL     1      20.862  43.713  47.936  1.00  0.00    -0.350 OA
HETATM   14  C   UNL     1      20.651  45.063  47.862  1.00  0.00     0.075 A 
HETATM   15  C   UNL     1      19.563  45.553  48.586  1.00  0.00     0.038 A 
HETATM   16  C   UNL     1      21.482  45.944  47.163  1.00  0.00    -0.023 A 
HETATM   17  C   UNL     1      19.294  46.924  48.621  1.00  0.00     0.020 A 
HETATM   18  C   UNL     1      20.117  47.811  47.918  1.00  0.00     0.032 A 
HETATM   19  C   UNL     1      21.207  47.317  47.192  1.00  0.00     0.027 A 
HETATM   20  C   UNL     1      22.649  45.432  46.366  1.00  0.00     0.056 C 
BRANCH  18  21
HETATM   21  C   UNL     1      19.906  49.283  47.960  1.00  0.00     0.252 C 
HETATM   22  O   UNL     1      20.761  50.029  47.494  1.00  0.00    -0.268 OA
HETATM   23  N   UNL     1      18.719  49.714  48.519  1.00  0.00    -0.352 N 
HETATM   24  H   UNL     1      17.986  49.042  48.705  1.00  0.00     0.163 HD
BRANCH  23  25
HETATM   25  C   UNL     1      18.384  51.101  48.591  1.00  0.00     0.084 A 
HETATM   26  C   UNL     1      17.357  51.591  49.574  1.00  0.00     0.027 A 
HETATM   27  C   UNL     1      18.805  51.923  49.776  1.00  0.00     0.027 A 
ENDBRANCH  23  25
ENDBRANCH  18  21
ENDBRANCH   3  11
BRANCH   1  28
HETATM   28  S   UNL     1      25.740  41.845  50.667  1.00  0.00    -0.108 SA
BRANCH  28  29
HETATM   29  C   UNL     1      27.502  41.906  50.166  1.00  0.00     0.108 C 
BRANCH  29  30
HETATM   30  C   UNL     1      28.302  40.844  50.924  1.00  0.00     0.244 C 
BRANCH  30  31
HETATM   31  N   UNL     1      28.982  41.420  52.158  1.00  0.00    -0.078 N 
HETATM   32  C   UNL     1      29.073  42.922  52.148  1.00  0.00     0.269 C 
HETATM   33  H   UNL     1      29.951  41.065  52.134  1.00  0.00     0.279 HD
HETATM   34  C   UNL     1      28.363  40.911  53.428  1.00  0.00     0.269 C 
ENDBRANCH  30  31
ENDBRANCH  29  30
ENDBRANCH  28  29
ENDBRANCH   1  28
BRANCH   8  35
HETATM   35  C   UNL     1      26.596  46.401  53.591  1.00  0.00     0.010 A 
HETATM   36  C   UNL     1      27.465  45.592  54.360  1.00  0.00     0.152 A 
HETATM   37  N   UNL     1      27.802  46.153  55.524  1.00  0.00    -0.187 NA
HETATM   38  N   UNL     1      27.162  47.333  55.502  1.00  0.00    -0.289 N 
HETATM   39  H   UNL     1      27.269  47.956  56.297  1.00  0.00     0.188 HD
HETATM   40  C   UNL     1      26.420  47.525  54.370  1.00  0.00     0.123 A 
ENDBRANCH   8  35
TORSDOF 8
ENDMDL
MODEL 7
REMARK VINA RESULT:      -7.9     11.989     15.064
REMARK  8 active torsions:
REMARK  status: ('A' for Active; 'I' for Inactive)
REMARK    1  A    between atoms: N_2  and  C_5 
REMARK    2  A    between atoms: C_5  and  C_6 
REMARK    3  A    between atoms: C_6  and  S_7 
REMARK    4  A    between atoms: S_7  and  C_8 
REMARK    5  A    between atoms: C_10  and  C_24 
REMARK    6  A    between atoms: C_15  and  C_18 
REMARK    7  A    between atoms: C_30  and  C_34 
REMARK       I    between atoms: C_34  and  N_36 
REMARK    8  A    between atoms: N_36  and  C_37 
ROOT
HETATM    1  C   UNL     1      27.244  49.003  38.139  1.00  0.00     0.108 A 
HETATM    2  N   UNL     1      27.646  50.268  37.914  1.00  0.00    -0.225 NA
HETATM    3  C   UNL     1      28.934  50.549  38.142  1.00  0.00     0.134 A 
HETATM    4  N   UNL     1      29.841  49.631  38.511  1.00  0.00    -0.232 NA
HETATM    5  C   UNL     1      29.426  48.382  38.745  1.00  0.00     0.072 A 
HETATM    6  C   UNL     1      30.353  47.449  39.184  1.00  0.00     0.033 A 
HETATM    7  C   UNL     1      29.994  46.131  39.486  1.00  0.00     0.014 A 
HETATM    8  C   UNL     1      28.671  45.714  39.345  1.00  0.00    -0.022 A 
HETATM    9  C   UNL     1      27.730  46.641  38.886  1.00  0.00     0.029 A 
HETATM   10  C   UNL     1      28.096  47.985  38.586  1.00  0.00     0.029 A 
ENDROOT
BRANCH   3  11
HETATM   11  C   UNL     1      29.421  51.977  37.997  1.00  0.00     0.086 C 
HETATM   12  C   UNL     1      28.650  52.992  38.847  1.00  0.00     0.188 C 
HETATM   13  O   UNL     1      28.808  52.851  40.269  1.00  0.00    -0.350 OA
HETATM   14  C   UNL     1      30.059  52.497  40.699  1.00  0.00     0.075 A 
HETATM   15  C   UNL     1      30.254  52.502  42.081  1.00  0.00     0.038 A 
HETATM   16  C   UNL     1      31.090  52.095  39.846  1.00  0.00    -0.023 A 
HETATM   17  C   UNL     1      31.478  52.104  42.625  1.00  0.00     0.020 A 
HETATM   18  C   UNL     1      32.518  51.705  41.778  1.00  0.00     0.032 A 
HETATM   19  C   UNL     1      32.320  51.703  40.392  1.00  0.00     0.027 A 
HETATM   20  C   UNL     1      30.902  52.098  38.355  1.00  0.00     0.056 C 
BRANCH  18  21
HETATM   21  C   UNL     1      33.824  51.226  42.304  1.00  0.00     0.252 C 
HETATM   22  O   UNL     1      34.142  50.052  42.152  1.00  0.00    -0.268 OA
HETATM   23  N   UNL     1      34.616  52.172  42.926  1.00  0.00    -0.352 N 
HETATM   24  H   UNL     1      34.375  53.151  42.844  1.00  0.00     0.163 HD
BRANCH  23  25
HETATM   25  C   UNL     1      35.906  51.845  43.447  1.00  0.00     0.084 A 
HETATM   26  C   UNL     1      37.134  52.563  42.959  1.00  0.00     0.027 A 
HETATM   27  C   UNL     1      36.626  52.807  44.349  1.00  0.00     0.027 A 
ENDBRANCH  23  25
ENDBRANCH  18  21
ENDBRANCH   3  11
BRANCH   1  28
HETATM   28  S   UNL     1      25.481  48.739  37.907  1.00  0.00    -0.108 SA
BRANCH  28  29
HETATM   29  C   UNL     1      24.905  48.814  39.645  1.00  0.00     0.108 C 
BRANCH  29  30
HETATM   30  C   UNL     1      23.456  48.329  39.741  1.00  0.00     0.244 C 
BRANCH  30  31
HETATM   31  N   UNL     1      22.518  49.437  40.202  1.00  0.00    -0.078 N 
HETATM   32  C   UNL     1      22.399  50.571  39.220  1.00  0.00     0.269 C 
HETATM   33  H   UNL     1      22.949  49.828  41.055  1.00  0.00     0.279 HD
HETATM   34  C   UNL     1      21.172  48.902  40.598  1.00  0.00     0.269 C 
ENDBRANCH  30  31
ENDBRANCH  29  30
ENDBRANCH  28  29
ENDBRANCH   1  28
BRANCH   8  35
HETATM   35  C   UNL     1      28.266  44.358  39.667  1.00  0.00     0.010 A 
HETATM   36  C   UNL     1      27.477  43.855  40.727  1.00  0.00     0.152 A 
HETATM   37  N   UNL     1      27.361  42.525  40.702  1.00  0.00    -0.187 NA
HETATM   38  N   UNL     1      28.065  42.168  39.616  1.00  0.00    -0.289 N 
HETATM   39  H   UNL     1      28.123  41.182  39.380  1.00  0.00     0.188 HD
HETATM   40  C   UNL     1      28.633  43.228  38.967  1.00  0.00     0.123 A 
ENDBRANCH   8  35
TORSDOF 8
ENDMDL
MODEL 8
REMARK VINA RESULT:      -7.9      3.695      5.035
REMARK  8 active torsions:
REMARK  status: ('A' for Active; 'I' for Inactive)
REMARK    1  A    between atoms: N_2  and  C_5 
REMARK    2  A    between atoms: C_5  and  C_6 
REMARK    3  A    between atoms: C_6  and  S_7 
REMARK    4  A    between atoms: S_7  and  C_8 
REMARK    5  A    between atoms: C_10  and  C_24 
REMARK    6  A    between atoms: C_15  and  C_18 
REMARK    7  A    between atoms: C_30  and  C_34 
REMARK       I    between atoms: C_34  and  N_36 
REMARK    8  A    between atoms: N_36  and  C_37 
ROOT
HETATM    1  C   UNL     1      27.294  42.294  50.422  1.00  0.00     0.108 A 
HETATM    2  N   UNL     1      27.493  41.141  49.755  1.00  0.00    -0.225 NA
HETATM    3  C   UNL     1      28.217  40.197  50.368  1.00  0.00     0.134 A 
HETATM    4  N   UNL     1      28.686  40.318  51.620  1.00  0.00    -0.232 NA
HETATM    5  C   UNL     1      28.494  41.472  52.265  1.00  0.00     0.072 A 
HETATM    6  C   UNL     1      29.031  41.616  53.536  1.00  0.00     0.033 A 
HETATM    7  C   UNL     1      28.907  42.804  54.265  1.00  0.00     0.014 A 
HETATM    8  C   UNL     1      28.223  43.891  53.723  1.00  0.00    -0.022 A 
HETATM    9  C   UNL     1      27.662  43.752  52.449  1.00  0.00     0.029 A 
HETATM   10  C   UNL     1      27.795  42.544  51.706  1.00  0.00     0.029 A 
ENDROOT
BRANCH   3  11
HETATM   11  C   UNL     1      28.552  38.918  49.628  1.00  0.00     0.086 C 
HETATM   12  C   UNL     1      27.387  37.928  49.528  1.00  0.00     0.188 C 
HETATM   13  O   UNL     1      26.277  38.362  48.723  1.00  0.00    -0.350 OA
HETATM   14  C   UNL     1      26.598  39.067  47.594  1.00  0.00     0.075 A 
HETATM   15  C   UNL     1      25.537  39.362  46.736  1.00  0.00     0.038 A 
HETATM   16  C   UNL     1      27.884  39.531  47.305  1.00  0.00    -0.023 A 
HETATM   17  C   UNL     1      25.749  40.125  45.584  1.00  0.00     0.020 A 
HETATM   18  C   UNL     1      27.035  40.588  45.284  1.00  0.00     0.032 A 
HETATM   19  C   UNL     1      28.097  40.288  46.145  1.00  0.00     0.027 A 
HETATM   20  C   UNL     1      29.040  39.209  48.209  1.00  0.00     0.056 C 
BRANCH  18  21
HETATM   21  C   UNL     1      27.308  41.443  44.099  1.00  0.00     0.252 C 
HETATM   22  O   UNL     1      28.319  41.247  43.433  1.00  0.00    -0.268 OA
HETATM   23  N   UNL     1      26.365  42.411  43.814  1.00  0.00    -0.352 N 
HETATM   24  H   UNL     1      25.472  42.388  44.289  1.00  0.00     0.163 HD
BRANCH  23  25
HETATM   25  C   UNL     1      26.496  43.277  42.685  1.00  0.00     0.084 A 
HETATM   26  C   UNL     1      25.326  43.533  41.776  1.00  0.00     0.027 A 
HETATM   27  C   UNL     1      25.826  44.622  42.678  1.00  0.00     0.027 A 
ENDBRANCH  23  25
ENDBRANCH  18  21
ENDBRANCH   3  11
BRANCH   1  28
HETATM   28  S   UNL     1      26.403  43.542  49.485  1.00  0.00    -0.108 SA
BRANCH  28  29
HETATM   29  C   UNL     1      24.709  43.298  50.137  1.00  0.00     0.108 C 
BRANCH  29  30
HETATM   30  C   UNL     1      24.268  44.528  50.934  1.00  0.00     0.244 C 
BRANCH  30  31
HETATM   31  N   UNL     1      23.433  45.480  50.089  1.00  0.00    -0.078 N 
HETATM   32  C   UNL     1      24.173  46.722  49.672  1.00  0.00     0.269 C 
HETATM   33  H   UNL     1      22.659  45.789  50.700  1.00  0.00     0.279 HD
HETATM   34  C   UNL     1      22.809  44.785  48.914  1.00  0.00     0.269 C 
ENDBRANCH  30  31
ENDBRANCH  29  30
ENDBRANCH  28  29
ENDBRANCH   1  28
BRANCH   8  35
HETATM   35  C   UNL     1      28.093  45.142  54.448  1.00  0.00     0.010 A 
HETATM   36  C   UNL     1      27.199  46.224  54.274  1.00  0.00     0.152 A 
HETATM   37  N   UNL     1      27.426  47.226  55.127  1.00  0.00    -0.187 NA
HETATM   38  N   UNL     1      28.459  46.785  55.863  1.00  0.00    -0.289 N 
HETATM   39  H   UNL     1      28.819  47.386  56.599  1.00  0.00     0.188 HD
HETATM   40  C   UNL     1      28.900  45.547  55.490  1.00  0.00     0.123 A 
ENDBRANCH   8  35
TORSDOF 8
ENDMDL
MODEL 9
REMARK VINA RESULT:      -7.7      4.433      9.577
REMARK  8 active torsions:
REMARK  status: ('A' for Active; 'I' for Inactive)
REMARK    1  A    between atoms: N_2  and  C_5 
REMARK    2  A    between atoms: C_5  and  C_6 
REMARK    3  A    between atoms: C_6  and  S_7 
REMARK    4  A    between atoms: S_7  and  C_8 
REMARK    5  A    between atoms: C_10  and  C_24 
REMARK    6  A    between atoms: C_15  and  C_18 
REMARK    7  A    between atoms: C_30  and  C_34 
REMARK       I    between atoms: C_34  and  N_36 
REMARK    8  A    between atoms: N_36  and  C_37 
ROOT
HETATM    1  C   UNL     1      22.927  48.821  48.849  1.00  0.00     0.108 A 
HETATM    2  N   UNL     1      24.119  48.808  49.476  1.00  0.00    -0.225 NA
HETATM    3  C   UNL     1      24.631  47.612  49.788  1.00  0.00     0.134 A 
HETATM    4  N   UNL     1      24.057  46.447  49.452  1.00  0.00    -0.232 NA
HETATM    5  C   UNL     1      22.867  46.474  48.843  1.00  0.00     0.072 A 
HETATM    6  C   UNL     1      22.247  45.268  48.549  1.00  0.00     0.033 A 
HETATM    7  C   UNL     1      20.987  45.209  47.946  1.00  0.00     0.014 A 
HETATM    8  C   UNL     1      20.312  46.383  47.613  1.00  0.00    -0.022 A 
HETATM    9  C   UNL     1      20.934  47.605  47.889  1.00  0.00     0.029 A 
HETATM   10  C   UNL     1      22.215  47.663  48.510  1.00  0.00     0.029 A 
ENDROOT
BRANCH   3  11
HETATM   11  C   UNL     1      25.922  47.539  50.578  1.00  0.00     0.086 C 
HETATM   12  C   UNL     1      25.732  47.222  52.065  1.00  0.00     0.188 C 
HETATM   13  O   UNL     1      25.225  45.908  52.354  1.00  0.00    -0.350 OA
HETATM   14  C   UNL     1      25.690  44.899  51.554  1.00  0.00     0.075 A 
HETATM   15  C   UNL     1      25.315  43.606  51.922  1.00  0.00     0.038 A 
HETATM   16  C   UNL     1      26.447  45.108  50.398  1.00  0.00    -0.023 A 
HETATM   17  C   UNL     1      25.692  42.510  51.140  1.00  0.00     0.020 A 
HETATM   18  C   UNL     1      26.456  42.710  49.986  1.00  0.00     0.032 A 
HETATM   19  C   UNL     1      26.832  44.008  49.620  1.00  0.00     0.027 A 
HETATM   20  C   UNL     1      26.872  46.492  49.996  1.00  0.00     0.056 C 
BRANCH  18  21
HETATM   21  C   UNL     1      26.843  41.586  49.092  1.00  0.00     0.252 C 
HETATM   22  O   UNL     1      27.375  41.828  48.014  1.00  0.00    -0.268 OA
HETATM   23  N   UNL     1      26.585  40.314  49.564  1.00  0.00    -0.352 N 
HETATM   24  H   UNL     1      26.324  40.189  50.533  1.00  0.00     0.163 HD
BRANCH  23  25
HETATM   25  C   UNL     1      26.937  39.150  48.814  1.00  0.00     0.084 A 
HETATM   26  C   UNL     1      28.172  38.363  49.155  1.00  0.00     0.027 A 
HETATM   27  C   UNL     1      26.816  37.784  49.429  1.00  0.00     0.027 A 
ENDBRANCH  23  25
ENDBRANCH  18  21
ENDBRANCH   3  11
BRANCH   1  28
HETATM   28  S   UNL     1      22.265  50.467  48.560  1.00  0.00    -0.108 SA
BRANCH  28  29
HETATM   29  C   UNL     1      21.172  50.644  50.019  1.00  0.00     0.108 C 
BRANCH  29  30
HETATM   30  C   UNL     1      19.875  51.355  49.623  1.00  0.00     0.244 C 
BRANCH  30  31
HETATM   31  N   UNL     1      18.661  50.452  49.792  1.00  0.00    -0.078 N 
HETATM   32  C   UNL     1      18.090  49.961  48.490  1.00  0.00     0.269 C 
HETATM   33  H   UNL     1      17.935  51.041  50.230  1.00  0.00     0.279 HD
HETATM   34  C   UNL     1      18.933  49.320  50.740  1.00  0.00     0.269 C 
ENDBRANCH  30  31
ENDBRANCH  29  30
ENDBRANCH  28  29
ENDBRANCH   1  28
BRANCH   8  35
HETATM   35  C   UNL     1      18.995  46.353  47.003  1.00  0.00     0.010 A 
HETATM   36  C   UNL     1      18.469  47.067  45.902  1.00  0.00     0.152 A 
HETATM   37  N   UNL     1      17.185  46.788  45.669  1.00  0.00    -0.187 NA
HETATM   38  N   UNL     1      16.883  45.880  46.611  1.00  0.00    -0.289 N 
HETATM   39  H   UNL     1      15.940  45.504  46.636  1.00  0.00     0.188 HD
HETATM   40  C   UNL     1      17.931  45.592  47.440  1.00  0.00     0.123 A 
ENDBRANCH   8  35
TORSDOF 8
ENDMDL
MODEL 10
REMARK VINA RESULT:      -7.6      4.066      7.177
REMARK  8 active torsions:
REMARK  status: ('A' for Active; 'I' for Inactive)
REMARK    1  A    between atoms: N_2  and  C_5 
REMARK    2  A    between atoms: C_5  and  C_6 
REMARK    3  A    between atoms: C_6  and  S_7 
REMARK    4  A    between atoms: S_7  and  C_8 
REMARK    5  A    between atoms: C_10  and  C_24 
REMARK    6  A    between atoms: C_15  and  C_18 
REMARK    7  A    between atoms: C_30  and  C_34 
REMARK       I    between atoms: C_34  and  N_36 
REMARK    8  A    between atoms: N_36  and  C_37 
ROOT
HETATM    1  C   UNL     1      22.815  43.985  48.520  1.00  0.00     0.108 A 
HETATM    2  N   UNL     1      21.972  44.079  47.473  1.00  0.00    -0.225 NA
HETATM    3  C   UNL     1      21.652  45.310  47.056  1.00  0.00     0.134 A 
HETATM    4  N   UNL     1      22.175  46.430  47.578  1.00  0.00    -0.232 NA
HETATM    5  C   UNL     1      22.998  46.323  48.625  1.00  0.00     0.072 A 
HETATM    6  C   UNL     1      23.491  47.485  49.201  1.00  0.00     0.033 A 
HETATM    7  C   UNL     1      24.328  47.462  50.321  1.00  0.00     0.014 A 
HETATM    8  C   UNL     1      24.699  46.247  50.895  1.00  0.00    -0.022 A 
HETATM    9  C   UNL     1      24.224  45.067  50.313  1.00  0.00     0.029 A 
HETATM   10  C   UNL     1      23.365  45.094  49.176  1.00  0.00     0.029 A 
ENDROOT
BRANCH   3  11
HETATM   11  C   UNL     1      20.636  45.478  45.944  1.00  0.00     0.086 C 
HETATM   12  C   UNL     1      19.462  44.497  46.014  1.00  0.00     0.188 C 
HETATM   13  O   UNL     1      18.584  44.666  47.140  1.00  0.00    -0.350 OA
HETATM   14  C   UNL     1      18.342  45.958  47.519  1.00  0.00     0.075 A 
HETATM   15  C   UNL     1      17.379  46.133  48.515  1.00  0.00     0.038 A 
HETATM   16  C   UNL     1      19.032  47.062  47.010  1.00  0.00    -0.023 A 
HETATM   17  C   UNL     1      17.097  47.409  49.012  1.00  0.00     0.020 A 
HETATM   18  C   UNL     1      17.778  48.520  48.502  1.00  0.00     0.032 A 
HETATM   19  C   UNL     1      18.743  48.342  47.502  1.00  0.00     0.027 A 
HETATM   20  C   UNL     1      20.060  46.894  45.927  1.00  0.00     0.056 C 
BRANCH  18  21
HETATM   21  C   UNL     1      17.553  49.892  49.027  1.00  0.00     0.252 C 
HETATM   22  O   UNL     1      18.112  50.243  50.061  1.00  0.00    -0.268 OA
HETATM   23  N   UNL     1      16.721  50.703  48.280  1.00  0.00    -0.352 N 
HETATM   24  H   UNL     1      16.453  50.414  47.348  1.00  0.00     0.163 HD
BRANCH  23  25
HETATM   25  C   UNL     1      16.449  52.053  48.661  1.00  0.00     0.084 A 
HETATM   26  C   UNL     1      15.221  52.759  48.157  1.00  0.00     0.027 A 
HETATM   27  C   UNL     1      15.317  52.363  49.600  1.00  0.00     0.027 A 
ENDBRANCH  23  25
ENDBRANCH  18  21
ENDBRANCH   3  11
BRANCH   1  28
HETATM   28  S   UNL     1      23.108  42.302  49.079  1.00  0.00    -0.108 SA
BRANCH  28  29
HETATM   29  C   UNL     1      24.605  41.888  48.108  1.00  0.00     0.108 C 
BRANCH  29  30
HETATM   30  C   UNL     1      25.334  40.700  48.743  1.00  0.00     0.244 C 
BRANCH  30  31
HETATM   31  N   UNL     1      26.582  41.140  49.496  1.00  0.00    -0.078 N 
HETATM   32  C   UNL     1      26.876  42.610  49.367  1.00  0.00     0.269 C 
HETATM   33  H   UNL     1      27.367  40.641  49.048  1.00  0.00     0.279 HD
HETATM   34  C   UNL     1      26.552  40.704  50.933  1.00  0.00     0.269 C 
ENDBRANCH  30  31
ENDBRANCH  29  30
ENDBRANCH  28  29
ENDBRANCH   1  28
BRANCH   8  35
HETATM   35  C   UNL     1      25.552  46.192  52.068  1.00  0.00     0.010 A 
HETATM   36  C   UNL     1      25.764  47.132  53.103  1.00  0.00     0.152 A 
HETATM   37  N   UNL     1      26.669  46.725  53.996  1.00  0.00    -0.187 NA
HETATM   38  N   UNL     1      27.032  45.513  53.546  1.00  0.00    -0.289 N 
HETATM   39  H   UNL     1      27.724  44.989  54.074  1.00  0.00     0.188 HD
HETATM   40  C   UNL     1      26.398  45.152  52.391  1.00  0.00     0.123 A 
ENDBRANCH   8  35
TORSDOF 8
ENDMDL
