MODEL 1
REMARK VINA RESULT:      -8.8      0.000      0.000
REMARK  6 active torsions:
REMARK  status: ('A' for Active; 'I' for Inactive)
REMARK    1  A    between atoms: C_2  and  N_3 
REMARK    2  A    between atoms: C_2  and  C_25 
REMARK    3  A    between atoms: C_7  and  N_8 
REMARK       I    between atoms: N_8  and  C_9 
REMARK       I    between atoms: C_9  and  N_10 
REMARK    4  A    between atoms: N_10  and  C_11 
REMARK    5  A    between atoms: C_11  and  C_12 
REMARK    6  A    between atoms: C_20  and  O_21 
ROOT
HETATM    1  N   UNL     1      24.153  46.190  50.596  1.00  0.00    -0.293 N 
HETATM    2  C   UNL     1      24.557  44.901  50.991  1.00  0.00     0.322 C 
HETATM    3  N   UNL     1      25.881  44.599  50.963  1.00  0.00    -0.337 N 
HETATM    4  O   UNL     1      23.650  44.199  51.402  1.00  0.00    -0.247 OA
HETATM    5  H   UNL     1      23.166  46.312  50.784  1.00  0.00     0.172 HD
HETATM    6  H   UNL     1      26.505  45.373  50.823  1.00  0.00     0.164 HD
ENDROOT
BRANCH   3   7
HETATM    7  C   UNL     1      26.427  43.567  51.824  1.00  0.00     0.181 C 
BRANCH   7   8
HETATM    8  C   UNL     1      27.526  43.996  52.736  1.00  0.00     0.028 A 
HETATM    9  N   UNL     1      28.624  43.222  53.036  1.00  0.00    -0.357 N 
HETATM   10  H   UNL     1      28.821  42.315  52.632  1.00  0.00     0.166 HD
HETATM   11  C   UNL     1      29.327  43.745  54.093  1.00  0.00     0.043 A 
HETATM   12  C   UNL     1      28.691  44.924  54.462  1.00  0.00    -0.005 A 
HETATM   13  C   UNL     1      30.446  43.240  54.762  1.00  0.00     0.033 A 
HETATM   14  C   UNL     1      27.596  45.103  53.568  1.00  0.00     0.040 A 
HETATM   15  C   UNL     1      29.177  45.625  55.584  1.00  0.00     0.050 A 
HETATM   16  C   UNL     1      30.261  45.107  56.310  1.00  0.00     0.069 A 
HETATM   17  C   UNL     1      30.900  43.944  55.883  1.00  0.00     0.039 A 
BRANCH  16  18
HETATM   18  O   UNL     1      30.606  45.832  57.421  1.00  0.00    -0.356 OA
HETATM   19  C   UNL     1      30.312  45.226  58.677  1.00  0.00     0.210 C 
ENDBRANCH  16  18
ENDBRANCH   7   8
ENDBRANCH   3   7
BRANCH   1  20
HETATM   20  C   UNL     1      24.841  47.265  50.080  1.00  0.00     0.129 A 
HETATM   21  N   UNL     1      24.275  48.311  49.375  1.00  0.00    -0.249 N 
HETATM   22  N   UNL     1      25.188  49.216  48.966  1.00  0.00    -0.183 NA
HETATM   23  C   UNL     1      26.353  48.718  49.382  1.00  0.00     0.142 A 
HETATM   24  C   UNL     1      26.197  47.503  50.076  1.00  0.00     0.071 A 
BRANCH  21  25
HETATM   25  C   UNL     1      22.859  48.593  49.107  1.00  0.00     0.111 C 
HETATM   26  C   UNL     1      22.236  47.653  48.066  1.00  0.00     0.035 C 
BRANCH  25  27
HETATM   27  C   UNL     1      22.585  50.107  48.872  1.00  0.00     0.002 C 
HETATM   28  C   UNL     1      21.717  50.418  47.649  1.00  0.00     0.011 C 
HETATM   29  C   UNL     1      21.959  50.764  50.108  1.00  0.00     0.011 C 
ENDBRANCH  25  27
ENDBRANCH  21  25
ENDBRANCH   1  20
TORSDOF 6
ENDMDL
MODEL 2
REMARK VINA RESULT:      -8.7      1.691      2.221
REMARK  6 active torsions:
REMARK  status: ('A' for Active; 'I' for Inactive)
REMARK    1  A    between atoms: C_2  and  N_3 
REMARK    2  A    between atoms: C_2  and  C_25 
REMARK    3  A    between atoms: C_7  and  N_8 
REMARK       I    between atoms: N_8  and  C_9 
REMARK       I    between atoms: C_9  and  N_10 
REMARK    4  A    between atoms: N_10  and  C_11 
REMARK    5  A    between atoms: C_11  and  C_12 
REMARK    6  A    between atoms: C_20  and  O_21 
ROOT
HETATM    1  N   UNL     1      25.498  46.905  49.973  1.00  0.00    -0.293 N 
HETATM    2  C   UNL     1      25.652  46.434  51.290  1.00  0.00     0.322 C 
HETATM    3  N   UNL     1      26.087  47.300  52.243  1.00  0.00    -0.337 N 
HETATM    4  O   UNL     1      25.293  45.281  51.452  1.00  0.00    -0.247 OA
HETATM    5  H   UNL     1      25.055  46.194  49.404  1.00  0.00     0.172 HD
HETATM    6  H   UNL     1      26.109  48.268  51.978  1.00  0.00     0.164 HD
ENDROOT
BRANCH   3   7
HETATM    7  C   UNL     1      25.762  47.091  53.641  1.00  0.00     0.181 C 
BRANCH   7   8
HETATM    8  C   UNL     1      26.786  46.363  54.444  1.00  0.00     0.028 A 
HETATM    9  N   UNL     1      27.238  46.779  55.676  1.00  0.00    -0.357 N 
HETATM   10  H   UNL     1      26.885  47.583  56.180  1.00  0.00     0.166 HD
HETATM   11  C   UNL     1      28.355  46.080  56.058  1.00  0.00     0.043 A 
HETATM   12  C   UNL     1      28.612  45.146  55.062  1.00  0.00    -0.005 A 
HETATM   13  C   UNL     1      29.167  46.236  57.185  1.00  0.00     0.033 A 
HETATM   14  C   UNL     1      27.589  45.293  54.081  1.00  0.00     0.040 A 
HETATM   15  C   UNL     1      29.763  44.342  55.178  1.00  0.00     0.050 A 
HETATM   16  C   UNL     1      30.629  44.520  56.268  1.00  0.00     0.069 A 
HETATM   17  C   UNL     1      30.314  45.438  57.270  1.00  0.00     0.039 A 
BRANCH  16  18
HETATM   18  O   UNL     1      31.752  43.736  56.245  1.00  0.00    -0.356 OA
HETATM   19  C   UNL     1      31.934  42.873  57.364  1.00  0.00     0.210 C 
ENDBRANCH  16  18
ENDBRANCH   7   8
ENDBRANCH   3   7
BRANCH   1  20
HETATM   20  C   UNL     1      25.782  48.113  49.376  1.00  0.00     0.129 A 
HETATM   21  N   UNL     1      24.841  49.025  48.933  1.00  0.00    -0.249 N 
HETATM   22  N   UNL     1      25.400  50.114  48.367  1.00  0.00    -0.183 NA
HETATM   23  C   UNL     1      26.710  49.873  48.414  1.00  0.00     0.142 A 
HETATM   24  C   UNL     1      27.005  48.641  49.028  1.00  0.00     0.071 A 
BRANCH  21  25
HETATM   25  C   UNL     1      23.380  48.997  49.078  1.00  0.00     0.111 C 
HETATM   26  C   UNL     1      22.712  47.852  48.304  1.00  0.00     0.035 C 
BRANCH  25  27
HETATM   27  C   UNL     1      22.732  50.396  48.870  1.00  0.00     0.002 C 
HETATM   28  C   UNL     1      21.853  50.515  47.622  1.00  0.00     0.011 C 
HETATM   29  C   UNL     1      21.918  50.828  50.096  1.00  0.00     0.011 C 
ENDBRANCH  25  27
ENDBRANCH  21  25
ENDBRANCH   1  20
TORSDOF 6
ENDMDL
MODEL 3
REMARK VINA RESULT:      -8.3      2.309      3.796
REMARK  6 active torsions:
REMARK  status: ('A' for Active; 'I' for Inactive)
REMARK    1  A    between atoms: C_2  and  N_3 
REMARK    2  A    between atoms: C_2  and  C_25 
REMARK    3  A    between atoms: C_7  and  N_8 
REMARK       I    between atoms: N_8  and  C_9 
REMARK       I    between atoms: C_9  and  N_10 
REMARK    4  A    between atoms: N_10  and  C_11 
REMARK    5  A    between atoms: C_11  and  C_12 
REMARK    6  A    between atoms: C_20  and  O_21 
ROOT
HETATM    1  N   UNL     1      22.847  47.944  48.752  1.00  0.00    -0.293 N 
HETATM    2  C   UNL     1      23.908  47.397  49.496  1.00  0.00     0.322 C 
HETATM    3  N   UNL     1      23.702  46.230  50.161  1.00  0.00    -0.337 N 
HETATM    4  O   UNL     1      24.955  48.013  49.398  1.00  0.00    -0.247 OA
HETATM    5  H   UNL     1      23.177  48.736  48.216  1.00  0.00     0.172 HD
HETATM    6  H   UNL     1      22.852  45.743  49.940  1.00  0.00     0.164 HD
ENDROOT
BRANCH   3   7
HETATM    7  C   UNL     1      24.808  45.346  50.473  1.00  0.00     0.181 C 
BRANCH   7   8
HETATM    8  C   UNL     1      25.452  45.553  51.802  1.00  0.00     0.028 A 
HETATM    9  N   UNL     1      25.386  46.729  52.515  1.00  0.00    -0.357 N 
HETATM   10  H   UNL     1      24.855  47.545  52.237  1.00  0.00     0.166 HD
HETATM   11  C   UNL     1      26.278  46.729  53.557  1.00  0.00     0.043 A 
HETATM   12  C   UNL     1      26.914  45.493  53.550  1.00  0.00    -0.005 A 
HETATM   13  C   UNL     1      26.589  47.741  54.470  1.00  0.00     0.033 A 
HETATM   14  C   UNL     1      26.347  44.741  52.480  1.00  0.00     0.040 A 
HETATM   15  C   UNL     1      27.941  45.263  54.486  1.00  0.00     0.050 A 
HETATM   16  C   UNL     1      28.314  46.284  55.373  1.00  0.00     0.069 A 
HETATM   17  C   UNL     1      27.624  47.496  55.379  1.00  0.00     0.039 A 
BRANCH  16  18
HETATM   18  O   UNL     1      29.371  45.976  56.192  1.00  0.00    -0.356 OA
HETATM   19  C   UNL     1      29.114  46.041  57.591  1.00  0.00     0.210 C 
ENDBRANCH  16  18
ENDBRANCH   7   8
ENDBRANCH   3   7
BRANCH   1  20
HETATM   20  C   UNL     1      21.529  47.573  48.596  1.00  0.00     0.129 A 
HETATM   21  N   UNL     1      20.437  48.311  49.014  1.00  0.00    -0.249 N 
HETATM   22  N   UNL     1      19.265  47.696  48.754  1.00  0.00    -0.183 NA
HETATM   23  C   UNL     1      19.618  46.536  48.201  1.00  0.00     0.142 A 
HETATM   24  C   UNL     1      21.015  46.403  48.083  1.00  0.00     0.071 A 
BRANCH  21  25
HETATM   25  C   UNL     1      20.394  49.659  49.595  1.00  0.00     0.111 C 
HETATM   26  C   UNL     1      19.182  49.891  50.507  1.00  0.00     0.035 C 
BRANCH  25  27
HETATM   27  C   UNL     1      20.643  50.774  48.538  1.00  0.00     0.002 C 
HETATM   28  C   UNL     1      19.710  51.983  48.652  1.00  0.00     0.011 C 
HETATM   29  C   UNL     1      22.097  51.262  48.566  1.00  0.00     0.011 C 
ENDBRANCH  25  27
ENDBRANCH  21  25
ENDBRANCH   1  20
TORSDOF 6
ENDMDL
MODEL 4
REMARK VINA RESULT:      -8.2     12.171     14.017
REMARK  6 active torsions:
REMARK  status: ('A' for Active; 'I' for Inactive)
REMARK    1  A    between atoms: C_2  and  N_3 
REMARK    2  A    between atoms: C_2  and  C_25 
REMARK    3  A    between atoms: C_7  and  N_8 
REMARK       I    between atoms: N_8  and  C_9 
REMARK       I    between atoms: C_9  and  N_10 
REMARK    4  A    between atoms: N_10  and  C_11 
REMARK    5  A    between atoms: C_11  and  C_12 
REMARK    6  A    between atoms: C_20  and  O_21 
ROOT
HETATM    1  N   UNL     1      27.598  50.098  38.512  1.00  0.00    -0.293 N 
HETATM    2  C   UNL     1      27.820  51.427  38.916  1.00  0.00     0.322 C 
HETATM    3  N   UNL     1      27.675  51.739  40.230  1.00  0.00    -0.337 N 
HETATM    4  O   UNL     1      28.206  52.161  38.023  1.00  0.00    -0.247 OA
HETATM    5  H   UNL     1      27.860  49.986  37.541  1.00  0.00     0.172 HD
HETATM    6  H   UNL     1      27.583  50.961  40.858  1.00  0.00     0.164 HD
ENDROOT
BRANCH   3   7
HETATM    7  C   UNL     1      28.380  52.867  40.809  1.00  0.00     0.181 C 
BRANCH   7   8
HETATM    8  C   UNL     1      29.847  52.687  41.003  1.00  0.00     0.028 A 
HETATM    9  N   UNL     1      30.766  52.691  39.978  1.00  0.00    -0.357 N 
HETATM   10  H   UNL     1      30.547  52.868  39.005  1.00  0.00     0.166 HD
HETATM   11  C   UNL     1      31.989  52.240  40.404  1.00  0.00     0.043 A 
HETATM   12  C   UNL     1      31.876  51.978  41.765  1.00  0.00    -0.005 A 
HETATM   13  C   UNL     1      33.163  52.013  39.681  1.00  0.00     0.033 A 
HETATM   14  C   UNL     1      30.544  52.316  42.142  1.00  0.00     0.040 A 
HETATM   15  C   UNL     1      32.985  51.428  42.437  1.00  0.00     0.050 A 
HETATM   16  C   UNL     1      34.155  51.133  41.720  1.00  0.00     0.069 A 
HETATM   17  C   UNL     1      34.246  51.450  40.365  1.00  0.00     0.039 A 
BRANCH  16  18
HETATM   18  O   UNL     1      35.145  50.536  42.456  1.00  0.00    -0.356 OA
HETATM   19  C   UNL     1      36.459  50.614  41.913  1.00  0.00     0.210 C 
ENDBRANCH  16  18
ENDBRANCH   7   8
ENDBRANCH   3   7
BRANCH   1  20
HETATM   20  C   UNL     1      27.162  48.979  39.187  1.00  0.00     0.129 A 
HETATM   21  N   UNL     1      27.966  47.929  39.594  1.00  0.00    -0.249 N 
HETATM   22  N   UNL     1      27.270  46.954  40.214  1.00  0.00    -0.183 NA
HETATM   23  C   UNL     1      26.005  47.370  40.164  1.00  0.00     0.142 A 
HETATM   24  C   UNL     1      25.878  48.621  39.532  1.00  0.00     0.071 A 
BRANCH  21  25
HETATM   25  C   UNL     1      29.425  47.793  39.520  1.00  0.00     0.111 C 
HETATM   26  C   UNL     1      29.904  46.335  39.544  1.00  0.00     0.035 C 
BRANCH  25  27
HETATM   27  C   UNL     1      30.166  48.743  40.506  1.00  0.00     0.002 C 
HETATM   28  C   UNL     1      29.626  48.723  41.940  1.00  0.00     0.011 C 
HETATM   29  C   UNL     1      31.672  48.461  40.536  1.00  0.00     0.011 C 
ENDBRANCH  25  27
ENDBRANCH  21  25
ENDBRANCH   1  20
TORSDOF 6
ENDMDL
MODEL 5
REMARK VINA RESULT:      -8.1      3.419      5.928
REMARK  6 active torsions:
REMARK  status: ('A' for Active; 'I' for Inactive)
REMARK    1  A    between atoms: C_2  and  N_3 
REMARK    2  A    between atoms: C_2  and  C_25 
REMARK    3  A    between atoms: C_7  and  N_8 
REMARK       I    between atoms: N_8  and  C_9 
REMARK       I    between atoms: C_9  and  N_10 
REMARK    4  A    between atoms: N_10  and  C_11 
REMARK    5  A    between atoms: C_11  and  C_12 
REMARK    6  A    between atoms: C_20  and  O_21 
ROOT
HETATM    1  N   UNL     1      26.216  43.934  49.117  1.00  0.00    -0.293 N 
HETATM    2  C   UNL     1      26.099  44.953  50.080  1.00  0.00     0.322 C 
HETATM    3  N   UNL     1      25.218  44.784  51.101  1.00  0.00    -0.337 N 
HETATM    4  O   UNL     1      26.884  45.872  49.930  1.00  0.00    -0.247 OA
HETATM    5  H   UNL     1      26.988  44.137  48.495  1.00  0.00     0.172 HD
HETATM    6  H   UNL     1      24.827  43.864  51.195  1.00  0.00     0.164 HD
ENDROOT
BRANCH   3   7
HETATM    7  C   UNL     1      25.410  45.461  52.369  1.00  0.00     0.181 C 
BRANCH   7   8
HETATM    8  C   UNL     1      26.736  45.260  53.019  1.00  0.00     0.028 A 
HETATM    9  N   UNL     1      27.563  44.188  52.769  1.00  0.00    -0.357 N 
HETATM   10  H   UNL     1      27.380  43.464  52.085  1.00  0.00     0.166 HD
HETATM   11  C   UNL     1      28.577  44.116  53.689  1.00  0.00     0.043 A 
HETATM   12  C   UNL     1      28.433  45.205  54.541  1.00  0.00    -0.005 A 
HETATM   13  C   UNL     1      29.577  43.153  53.847  1.00  0.00     0.033 A 
HETATM   14  C   UNL     1      27.309  45.948  54.077  1.00  0.00     0.040 A 
HETATM   15  C   UNL     1      29.316  45.324  55.632  1.00  0.00     0.050 A 
HETATM   16  C   UNL     1      30.290  44.337  55.849  1.00  0.00     0.069 A 
HETATM   17  C   UNL     1      30.431  43.281  54.948  1.00  0.00     0.039 A 
BRANCH  16  18
HETATM   18  O   UNL     1      31.047  44.515  56.978  1.00  0.00    -0.356 OA
HETATM   19  C   UNL     1      31.923  43.444  57.316  1.00  0.00     0.210 C 
ENDBRANCH  16  18
ENDBRANCH   7   8
ENDBRANCH   3   7
BRANCH   1  20
HETATM   20  C   UNL     1      25.533  42.753  48.922  1.00  0.00     0.129 A 
HETATM   21  N   UNL     1      26.115  41.502  48.830  1.00  0.00    -0.249 N 
HETATM   22  N   UNL     1      25.210  40.525  48.614  1.00  0.00    -0.183 NA
HETATM   23  C   UNL     1      24.046  41.168  48.527  1.00  0.00     0.142 A 
HETATM   24  C   UNL     1      24.188  42.557  48.706  1.00  0.00     0.071 A 
BRANCH  21  25
HETATM   25  C   UNL     1      27.517  41.112  49.021  1.00  0.00     0.111 C 
HETATM   26  C   UNL     1      28.224  40.719  47.716  1.00  0.00     0.035 C 
BRANCH  25  27
HETATM   27  C   UNL     1      27.704  40.109  50.196  1.00  0.00     0.002 C 
HETATM   28  C   UNL     1      28.502  38.851  49.843  1.00  0.00     0.011 C 
HETATM   29  C   UNL     1      28.348  40.782  51.414  1.00  0.00     0.011 C 
ENDBRANCH  25  27
ENDBRANCH  21  25
ENDBRANCH   1  20
TORSDOF 6
ENDMDL
MODEL 6
REMARK VINA RESULT:      -8.1      2.299      8.992
REMARK  6 active torsions:
REMARK  status: ('A' for Active; 'I' for Inactive)
REMARK    1  A    between atoms: C_2  and  N_3 
REMARK    2  A    between atoms: C_2  and  C_25 
REMARK    3  A    between atoms: C_7  and  N_8 
REMARK       I    between atoms: N_8  and  C_9 
REMARK       I    between atoms: C_9  and  N_10 
REMARK    4  A    between atoms: N_10  and  C_11 
REMARK    5  A    between atoms: C_11  and  C_12 
REMARK    6  A    between atoms: C_20  and  O_21 
ROOT
HETATM    1  N   UNL     1      26.115  44.819  53.787  1.00  0.00    -0.293 N 
HETATM    2  C   UNL     1      25.464  44.943  52.546  1.00  0.00     0.322 C 
HETATM    3  N   UNL     1      25.884  45.908  51.686  1.00  0.00    -0.337 N 
HETATM    4  O   UNL     1      24.617  44.092  52.340  1.00  0.00    -0.247 OA
HETATM    5  H   UNL     1      25.785  43.990  54.265  1.00  0.00     0.172 HD
HETATM    6  H   UNL     1      26.746  46.363  51.925  1.00  0.00     0.164 HD
ENDROOT
BRANCH   3   7
HETATM    7  C   UNL     1      25.680  45.771  50.257  1.00  0.00     0.181 C 
BRANCH   7   8
HETATM    8  C   UNL     1      24.846  46.827  49.615  1.00  0.00     0.028 A 
HETATM    9  N   UNL     1      25.317  48.071  49.259  1.00  0.00    -0.357 N 
HETATM   10  H   UNL     1      26.280  48.373  49.347  1.00  0.00     0.166 HD
HETATM   11  C   UNL     1      24.287  48.921  48.943  1.00  0.00     0.043 A 
HETATM   12  C   UNL     1      23.109  48.192  49.051  1.00  0.00    -0.005 A 
HETATM   13  C   UNL     1      24.316  50.278  48.609  1.00  0.00     0.033 A 
HETATM   14  C   UNL     1      23.474  46.864  49.418  1.00  0.00     0.040 A 
HETATM   15  C   UNL     1      21.886  48.861  48.848  1.00  0.00     0.050 A 
HETATM   16  C   UNL     1      21.884  50.237  48.573  1.00  0.00     0.069 A 
HETATM   17  C   UNL     1      23.088  50.925  48.429  1.00  0.00     0.039 A 
BRANCH  16  18
HETATM   18  O   UNL     1      20.639  50.799  48.464  1.00  0.00    -0.356 OA
HETATM   19  C   UNL     1      19.946  51.024  49.688  1.00  0.00     0.210 C 
ENDBRANCH  16  18
ENDBRANCH   7   8
ENDBRANCH   3   7
BRANCH   1  20
HETATM   20  C   UNL     1      27.102  45.558  54.400  1.00  0.00     0.129 A 
HETATM   21  N   UNL     1      28.286  45.048  54.901  1.00  0.00    -0.249 N 
HETATM   22  N   UNL     1      29.059  45.996  55.470  1.00  0.00    -0.183 NA
HETATM   23  C   UNL     1      28.341  47.113  55.365  1.00  0.00     0.142 A 
HETATM   24  C   UNL     1      27.112  46.899  54.712  1.00  0.00     0.071 A 
BRANCH  21  25
HETATM   25  C   UNL     1      28.821  43.684  54.814  1.00  0.00     0.111 C 
HETATM   26  C   UNL     1      30.222  43.538  55.425  1.00  0.00     0.035 C 
BRANCH  25  27
HETATM   27  C   UNL     1      28.657  43.066  53.395  1.00  0.00     0.002 C 
HETATM   28  C   UNL     1      29.959  42.931  52.601  1.00  0.00     0.011 C 
HETATM   29  C   UNL     1      27.963  41.700  53.452  1.00  0.00     0.011 C 
ENDBRANCH  25  27
ENDBRANCH  21  25
ENDBRANCH   1  20
TORSDOF 6
ENDMDL
MODEL 7
REMARK VINA RESULT:      -7.9     12.566     15.144
REMARK  6 active torsions:
REMARK  status: ('A' for Active; 'I' for Inactive)
REMARK    1  A    between atoms: C_2  and  N_3 
REMARK    2  A    between atoms: C_2  and  C_25 
REMARK    3  A    between atoms: C_7  and  N_8 
REMARK       I    between atoms: N_8  and  C_9 
REMARK       I    between atoms: C_9  and  N_10 
REMARK    4  A    between atoms: N_10  and  C_11 
REMARK    5  A    between atoms: C_11  and  C_12 
REMARK    6  A    between atoms: C_20  and  O_21 
ROOT
HETATM    1  N   UNL     1      32.111  51.581  43.017  1.00  0.00    -0.293 N 
HETATM    2  C   UNL     1      31.284  52.631  42.577  1.00  0.00     0.322 C 
HETATM    3  N   UNL     1      31.494  53.148  41.338  1.00  0.00    -0.337 N 
HETATM    4  O   UNL     1      30.391  52.920  43.354  1.00  0.00    -0.247 OA
HETATM    5  H   UNL     1      31.764  51.216  43.895  1.00  0.00     0.172 HD
HETATM    6  H   UNL     1      32.119  52.631  40.747  1.00  0.00     0.164 HD
ENDROOT
BRANCH   3   7
HETATM    7  C   UNL     1      30.420  53.797  40.612  1.00  0.00     0.181 C 
BRANCH   7   8
HETATM    8  C   UNL     1      29.305  52.911  40.169  1.00  0.00     0.028 A 
HETATM    9  N   UNL     1      28.661  52.015  40.991  1.00  0.00    -0.357 N 
HETATM   10  H   UNL     1      28.840  51.905  41.982  1.00  0.00     0.166 HD
HETATM   11  C   UNL     1      27.875  51.153  40.269  1.00  0.00     0.043 A 
HETATM   12  C   UNL     1      27.974  51.532  38.935  1.00  0.00    -0.005 A 
HETATM   13  C   UNL     1      27.122  50.055  40.695  1.00  0.00     0.033 A 
HETATM   14  C   UNL     1      28.829  52.671  38.890  1.00  0.00     0.040 A 
HETATM   15  C   UNL     1      27.312  50.753  37.966  1.00  0.00     0.050 A 
HETATM   16  C   UNL     1      26.600  49.610  38.361  1.00  0.00     0.069 A 
HETATM   17  C   UNL     1      26.487  49.286  39.713  1.00  0.00     0.039 A 
BRANCH  16  18
HETATM   18  O   UNL     1      26.055  48.887  37.331  1.00  0.00    -0.356 OA
HETATM   19  C   UNL     1      24.658  48.628  37.423  1.00  0.00     0.210 C 
ENDBRANCH  16  18
ENDBRANCH   7   8
ENDBRANCH   3   7
BRANCH   1  20
HETATM   20  C   UNL     1      33.212  50.966  42.461  1.00  0.00     0.129 A 
HETATM   21  N   UNL     1      33.177  49.838  41.662  1.00  0.00    -0.249 N 
HETATM   22  N   UNL     1      34.406  49.439  41.276  1.00  0.00    -0.183 NA
HETATM   23  C   UNL     1      35.233  50.299  41.870  1.00  0.00     0.142 A 
HETATM   24  C   UNL     1      34.545  51.268  42.624  1.00  0.00     0.071 A 
BRANCH  21  25
HETATM   25  C   UNL     1      32.018  49.110  41.131  1.00  0.00     0.111 C 
HETATM   26  C   UNL     1      32.289  47.617  40.902  1.00  0.00     0.035 C 
BRANCH  25  27
HETATM   27  C   UNL     1      31.345  49.846  39.937  1.00  0.00     0.002 C 
HETATM   28  C   UNL     1      32.300  50.681  39.079  1.00  0.00     0.011 C 
HETATM   29  C   UNL     1      30.584  48.871  39.031  1.00  0.00     0.011 C 
ENDBRANCH  25  27
ENDBRANCH  21  25
ENDBRANCH   1  20
TORSDOF 6
ENDMDL
MODEL 8
REMARK VINA RESULT:      -7.9     11.983     14.779
REMARK  6 active torsions:
REMARK  status: ('A' for Active; 'I' for Inactive)
REMARK    1  A    between atoms: C_2  and  N_3 
REMARK    2  A    between atoms: C_2  and  C_25 
REMARK    3  A    between atoms: C_7  and  N_8 
REMARK       I    between atoms: N_8  and  C_9 
REMARK       I    between atoms: C_9  and  N_10 
REMARK    4  A    between atoms: N_10  and  C_11 
REMARK    5  A    between atoms: C_11  and  C_12 
REMARK    6  A    between atoms: C_20  and  O_21 
ROOT
HETATM    1  N   UNL     1      34.252  49.768  40.495  1.00  0.00    -0.293 N 
HETATM    2  C   UNL     1      33.494  49.054  41.441  1.00  0.00     0.322 C 
HETATM    3  N   UNL     1      32.660  49.746  42.261  1.00  0.00    -0.337 N 
HETATM    4  O   UNL     1      33.616  47.845  41.366  1.00  0.00    -0.247 OA
HETATM    5  H   UNL     1      34.727  49.122  39.878  1.00  0.00     0.172 HD
HETATM    6  H   UNL     1      32.512  50.710  42.023  1.00  0.00     0.164 HD
ENDROOT
BRANCH   3   7
HETATM    7  C   UNL     1      31.494  49.111  42.844  1.00  0.00     0.181 C 
BRANCH   7   8
HETATM    8  C   UNL     1      30.311  48.975  41.947  1.00  0.00     0.028 A 
HETATM    9  N   UNL     1      30.292  48.204  40.807  1.00  0.00    -0.357 N 
HETATM   10  H   UNL     1      31.054  47.614  40.494  1.00  0.00     0.166 HD
HETATM   11  C   UNL     1      29.185  48.473  40.042  1.00  0.00     0.043 A 
HETATM   12  C   UNL     1      28.434  49.418  40.731  1.00  0.00    -0.005 A 
HETATM   13  C   UNL     1      28.821  47.979  38.787  1.00  0.00     0.033 A 
HETATM   14  C   UNL     1      29.119  49.684  41.951  1.00  0.00     0.040 A 
HETATM   15  C   UNL     1      27.270  49.925  40.119  1.00  0.00     0.050 A 
HETATM   16  C   UNL     1      26.917  49.491  38.832  1.00  0.00     0.069 A 
HETATM   17  C   UNL     1      27.672  48.509  38.191  1.00  0.00     0.039 A 
BRANCH  16  18
HETATM   18  O   UNL     1      25.808  50.100  38.305  1.00  0.00    -0.356 OA
HETATM   19  C   UNL     1      24.551  49.625  38.777  1.00  0.00     0.210 C 
ENDBRANCH  16  18
ENDBRANCH   7   8
ENDBRANCH   3   7
BRANCH   1  20
HETATM   20  C   UNL     1      34.405  51.115  40.247  1.00  0.00     0.129 A 
HETATM   21  N   UNL     1      33.405  51.964  39.810  1.00  0.00    -0.249 N 
HETATM   22  N   UNL     1      33.841  53.228  39.627  1.00  0.00    -0.183 NA
HETATM   23  C   UNL     1      35.141  53.171  39.912  1.00  0.00     0.142 A 
HETATM   24  C   UNL     1      35.548  51.880  40.299  1.00  0.00     0.071 A 
BRANCH  21  25
HETATM   25  C   UNL     1      31.974  51.695  39.618  1.00  0.00     0.111 C 
HETATM   26  C   UNL     1      31.631  51.204  38.204  1.00  0.00     0.035 C 
BRANCH  25  27
HETATM   27  C   UNL     1      31.072  52.845  40.150  1.00  0.00     0.002 C 
HETATM   28  C   UNL     1      29.645  52.849  39.593  1.00  0.00     0.011 C 
HETATM   29  C   UNL     1      31.009  52.848  41.682  1.00  0.00     0.011 C 
ENDBRANCH  25  27
ENDBRANCH  21  25
ENDBRANCH   1  20
TORSDOF 6
ENDMDL
MODEL 9
REMARK VINA RESULT:      -7.9      3.536      7.568
REMARK  6 active torsions:
REMARK  status: ('A' for Active; 'I' for Inactive)
REMARK    1  A    between atoms: C_2  and  N_3 
REMARK    2  A    between atoms: C_2  and  C_25 
REMARK    3  A    between atoms: C_7  and  N_8 
REMARK       I    between atoms: N_8  and  C_9 
REMARK       I    between atoms: C_9  and  N_10 
REMARK    4  A    between atoms: N_10  and  C_11 
REMARK    5  A    between atoms: C_11  and  C_12 
REMARK    6  A    between atoms: C_20  and  O_21 
ROOT
HETATM    1  N   UNL     1      25.932  44.991  53.627  1.00  0.00    -0.293 N 
HETATM    2  C   UNL     1      25.307  44.898  52.370  1.00  0.00     0.322 C 
HETATM    3  N   UNL     1      25.740  45.708  51.369  1.00  0.00    -0.337 N 
HETATM    4  O   UNL     1      24.468  44.018  52.295  1.00  0.00    -0.247 OA
HETATM    5  H   UNL     1      25.596  44.252  54.232  1.00  0.00     0.172 HD
HETATM    6  H   UNL     1      26.595  46.204  51.544  1.00  0.00     0.164 HD
ENDROOT
BRANCH   3   7
HETATM    7  C   UNL     1      25.567  45.329  49.979  1.00  0.00     0.181 C 
BRANCH   7   8
HETATM    8  C   UNL     1      26.073  43.977  49.606  1.00  0.00     0.028 A 
HETATM    9  N   UNL     1      25.431  43.128  48.734  1.00  0.00    -0.357 N 
HETATM   10  H   UNL     1      24.587  43.354  48.221  1.00  0.00     0.166 HD
HETATM   11  C   UNL     1      25.967  41.866  48.783  1.00  0.00     0.043 A 
HETATM   12  C   UNL     1      27.025  41.907  49.683  1.00  0.00    -0.005 A 
HETATM   13  C   UNL     1      25.569  40.697  48.128  1.00  0.00     0.033 A 
HETATM   14  C   UNL     1      27.119  43.250  50.151  1.00  0.00     0.040 A 
HETATM   15  C   UNL     1      27.705  40.708  49.974  1.00  0.00     0.050 A 
HETATM   16  C   UNL     1      27.285  39.509  49.376  1.00  0.00     0.069 A 
HETATM   17  C   UNL     1      26.247  39.515  48.445  1.00  0.00     0.039 A 
BRANCH  16  18
HETATM   18  O   UNL     1      27.971  38.394  49.783  1.00  0.00    -0.356 OA
HETATM   19  C   UNL     1      29.289  38.616  50.274  1.00  0.00     0.210 C 
ENDBRANCH  16  18
ENDBRANCH   7   8
ENDBRANCH   3   7
BRANCH   1  20
HETATM   20  C   UNL     1      26.903  45.831  54.126  1.00  0.00     0.129 A 
HETATM   21  N   UNL     1      28.103  45.423  54.681  1.00  0.00    -0.249 N 
HETATM   22  N   UNL     1      28.854  46.459  55.110  1.00  0.00    -0.183 NA
HETATM   23  C   UNL     1      28.105  47.533  54.861  1.00  0.00     0.142 A 
HETATM   24  C   UNL     1      26.879  47.202  54.254  1.00  0.00     0.071 A 
BRANCH  21  25
HETATM   25  C   UNL     1      28.673  44.074  54.774  1.00  0.00     0.111 C 
HETATM   26  C   UNL     1      30.042  44.037  55.468  1.00  0.00     0.035 C 
BRANCH  25  27
HETATM   27  C   UNL     1      28.598  43.299  53.427  1.00  0.00     0.002 C 
HETATM   28  C   UNL     1      29.950  43.072  52.744  1.00  0.00     0.011 C 
HETATM   29  C   UNL     1      27.889  41.949  53.591  1.00  0.00     0.011 C 
ENDBRANCH  25  27
ENDBRANCH  21  25
ENDBRANCH   1  20
TORSDOF 6
ENDMDL
MODEL 10
REMARK VINA RESULT:      -7.9      3.112      4.870
REMARK  6 active torsions:
REMARK  status: ('A' for Active; 'I' for Inactive)
REMARK    1  A    between atoms: C_2  and  N_3 
REMARK    2  A    between atoms: C_2  and  C_25 
REMARK    3  A    between atoms: C_7  and  N_8 
REMARK       I    between atoms: N_8  and  C_9 
REMARK       I    between atoms: C_9  and  N_10 
REMARK    4  A    between atoms: N_10  and  C_11 
REMARK    5  A    between atoms: C_11  and  C_12 
REMARK    6  A    between atoms: C_20  and  O_21 
ROOT
HETATM    1  N   UNL     1      25.233  44.564  48.838  1.00  0.00    -0.293 N 
HETATM    2  C   UNL     1      26.187  44.102  49.762  1.00  0.00     0.322 C 
HETATM    3  N   UNL     1      25.785  43.250  50.741  1.00  0.00    -0.337 N 
HETATM    4  O   UNL     1      27.325  44.471  49.529  1.00  0.00    -0.247 OA
HETATM    5  H   UNL     1      25.692  45.084  48.101  1.00  0.00     0.172 HD
HETATM    6  H   UNL     1      24.861  42.870  50.639  1.00  0.00     0.164 HD
ENDROOT
BRANCH   3   7
HETATM    7  C   UNL     1      26.721  42.331  51.359  1.00  0.00     0.181 C 
BRANCH   7   8
HETATM    8  C   UNL     1      27.394  42.822  52.596  1.00  0.00     0.028 A 
HETATM    9  N   UNL     1      27.181  44.066  53.146  1.00  0.00    -0.357 N 
HETATM   10  H   UNL     1      26.513  44.745  52.802  1.00  0.00     0.166 HD
HETATM   11  C   UNL     1      28.116  44.350  54.109  1.00  0.00     0.043 A 
HETATM   12  C   UNL     1      28.938  43.235  54.222  1.00  0.00    -0.005 A 
HETATM   13  C   UNL     1      28.312  45.518  54.852  1.00  0.00     0.033 A 
HETATM   14  C   UNL     1      28.441  42.260  53.308  1.00  0.00     0.040 A 
HETATM   15  C   UNL     1      30.037  43.298  55.100  1.00  0.00     0.050 A 
HETATM   16  C   UNL     1      30.292  44.481  55.811  1.00  0.00     0.069 A 
HETATM   17  C   UNL     1      29.420  45.564  55.704  1.00  0.00     0.039 A 
BRANCH  16  18
HETATM   18  O   UNL     1      31.425  44.456  56.581  1.00  0.00    -0.356 OA
HETATM   19  C   UNL     1      31.777  43.190  57.132  1.00  0.00     0.210 C 
ENDBRANCH  16  18
ENDBRANCH   7   8
ENDBRANCH   3   7
BRANCH   1  20
HETATM   20  C   UNL     1      23.869  44.392  48.741  1.00  0.00     0.129 A 
HETATM   21  N   UNL     1      23.237  43.461  47.936  1.00  0.00    -0.249 N 
HETATM   22  N   UNL     1      21.893  43.530  48.021  1.00  0.00    -0.183 NA
HETATM   23  C   UNL     1      21.668  44.542  48.859  1.00  0.00     0.142 A 
HETATM   24  C   UNL     1      22.861  45.118  49.334  1.00  0.00     0.071 A 
BRANCH  21  25
HETATM   25  C   UNL     1      23.822  42.398  47.109  1.00  0.00     0.111 C 
HETATM   26  C   UNL     1      23.320  42.409  45.659  1.00  0.00     0.035 C 
BRANCH  25  27
HETATM   27  C   UNL     1      23.782  41.008  47.807  1.00  0.00     0.002 C 
HETATM   28  C   UNL     1      23.212  39.876  46.947  1.00  0.00     0.011 C 
HETATM   29  C   UNL     1      25.167  40.596  48.320  1.00  0.00     0.011 C 
ENDBRANCH  25  27
ENDBRANCH  21  25
ENDBRANCH   1  20
TORSDOF 6
ENDMDL
