MODEL 1
REMARK VINA RESULT:     -10.3      0.000      0.000
REMARK  7 active torsions:
REMARK  status: ('A' for Active; 'I' for Inactive)
REMARK    1  A    between atoms: C_9  and  C_10 
REMARK       I    between atoms: C_10  and  N_11 
REMARK    2  A    between atoms: N_11  and  C_12 
REMARK    3  A    between atoms: C_12  and  C_13 
REMARK    4  A    between atoms: C_12  and  C_22 
REMARK       I    between atoms: C_13  and  N_14 
REMARK    5  A    between atoms: N_14  and  C_15 
REMARK    6  A    between atoms: C_15  and  C_16 
REMARK    7  A    between atoms: C_22  and  C_23 
ROOT
HETATM    1  C   UNL     1      26.467  44.329  53.462  1.00  0.00     0.180 C 
ENDROOT
BRANCH   1   2
HETATM    2  N   UNL     1      26.680  42.921  53.062  1.00  0.00    -0.346 N 
HETATM    3  C   UNL     1      27.332  42.561  51.919  1.00  0.00     0.249 C 
HETATM    4  O   UNL     1      27.710  43.378  51.078  1.00  0.00    -0.271 OA
HETATM    5  H   UNL     1      26.475  42.258  53.809  1.00  0.00     0.163 HD
BRANCH   3   6
HETATM    6  C   UNL     1      27.480  41.051  51.628  1.00  0.00     0.281 C 
HETATM    7  N   UNL     1      26.118  40.416  51.398  1.00  0.00    -0.058 N 
HETATM    8  C   UNL     1      25.473  40.833  50.119  1.00  0.00     0.272 C 
HETATM    9  H   UNL     1      26.186  39.394  51.432  1.00  0.00     0.278 HD
HETATM   10  H   UNL     1      25.502  40.727  52.164  1.00  0.00     0.278 HD
HETATM   11  C   UNL     1      26.400  40.773  48.941  1.00  0.00    -0.026 A 
HETATM   12  C   UNL     1      27.796  40.745  49.110  1.00  0.00    -0.048 A 
HETATM   13  C   UNL     1      25.865  40.801  47.644  1.00  0.00     0.009 A 
HETATM   14  C   UNL     1      28.629  40.714  47.982  1.00  0.00     0.008 A 
HETATM   15  C   UNL     1      28.419  40.666  50.481  1.00  0.00     0.082 C 
HETATM   16  C   UNL     1      28.084  40.732  46.699  1.00  0.00     0.001 A 
HETATM   17  C   UNL     1      26.704  40.776  46.530  1.00  0.00     0.001 A 
ENDBRANCH   3   6
ENDBRANCH   1   2
BRANCH   1  18
HETATM   18  C   UNL     1      25.411  44.859  52.468  1.00  0.00     0.241 C 
HETATM   19  N   UNL     1      25.783  45.910  51.679  1.00  0.00    -0.353 N 
HETATM   20  H   UNL     1      26.762  46.157  51.579  1.00  0.00     0.162 HD
HETATM   21  O   UNL     1      24.276  44.368  52.453  1.00  0.00    -0.271 OA
BRANCH  19  22
HETATM   22  C   UNL     1      24.880  46.550  50.745  1.00  0.00     0.187 C 
BRANCH  22  23
HETATM   23  C   UNL     1      25.603  47.603  49.991  1.00  0.00     0.070 A 
HETATM   24  O   UNL     1      24.857  48.635  49.500  1.00  0.00    -0.325 OA
HETATM   25  C   UNL     1      25.708  49.458  48.835  1.00  0.00     0.142 A 
HETATM   26  C   UNL     1      26.989  48.962  48.876  1.00  0.00     0.027 A 
HETATM   27  C   UNL     1      26.924  47.761  49.624  1.00  0.00     0.036 A 
ENDBRANCH  22  23
ENDBRANCH  19  22
ENDBRANCH   1  18
BRANCH   1  28
HETATM   28  C   UNL     1      27.789  45.104  53.409  1.00  0.00     0.075 C 
BRANCH  28  29
HETATM   29  C   UNL     1      28.359  45.482  54.743  1.00  0.00    -0.028 A 
HETATM   30  C   UNL     1      29.419  44.807  55.435  1.00  0.00    -0.002 A 
HETATM   31  C   UNL     1      29.607  45.461  56.652  1.00  0.00     0.042 A 
HETATM   32  C   UNL     1      30.227  43.688  55.145  1.00  0.00     0.014 A 
HETATM   33  C   UNL     1      30.561  45.054  57.594  1.00  0.00     0.030 A 
HETATM   34  N   UNL     1      28.703  46.494  56.703  1.00  0.00    -0.365 N 
HETATM   35  C   UNL     1      31.344  43.940  57.284  1.00  0.00     0.002 A 
HETATM   36  C   UNL     1      31.182  43.264  56.078  1.00  0.00     0.001 A 
HETATM   37  H   UNL     1      28.606  47.130  57.484  1.00  0.00     0.165 HD
HETATM   38  C   UNL     1      27.937  46.508  55.566  1.00  0.00     0.096 A 
ENDBRANCH  28  29
ENDBRANCH   1  28
TORSDOF 7
ENDMDL
MODEL 2
REMARK VINA RESULT:      -9.8      2.333      7.088
REMARK  7 active torsions:
REMARK  status: ('A' for Active; 'I' for Inactive)
REMARK    1  A    between atoms: C_9  and  C_10 
REMARK       I    between atoms: C_10  and  N_11 
REMARK    2  A    between atoms: N_11  and  C_12 
REMARK    3  A    between atoms: C_12  and  C_13 
REMARK    4  A    between atoms: C_12  and  C_22 
REMARK       I    between atoms: C_13  and  N_14 
REMARK    5  A    between atoms: N_14  and  C_15 
REMARK    6  A    between atoms: C_15  and  C_16 
REMARK    7  A    between atoms: C_22  and  C_23 
ROOT
HETATM    1  C   UNL     1      26.308  46.148  54.002  1.00  0.00     0.180 C 
ENDROOT
BRANCH   1   2
HETATM    2  N   UNL     1      26.583  46.254  52.552  1.00  0.00    -0.346 N 
HETATM    3  C   UNL     1      25.913  47.109  51.727  1.00  0.00     0.249 C 
HETATM    4  O   UNL     1      24.957  47.790  52.101  1.00  0.00    -0.271 OA
HETATM    5  H   UNL     1      27.443  45.783  52.273  1.00  0.00     0.163 HD
BRANCH   3   6
HETATM    6  C   UNL     1      26.306  47.112  50.232  1.00  0.00     0.281 C 
HETATM    7  N   UNL     1      25.558  46.022  49.482  1.00  0.00    -0.058 N 
HETATM    8  C   UNL     1      24.098  46.292  49.334  1.00  0.00     0.272 C 
HETATM    9  H   UNL     1      25.974  45.869  48.558  1.00  0.00     0.278 HD
HETATM   10  H   UNL     1      25.652  45.153  50.029  1.00  0.00     0.278 HD
HETATM   11  C   UNL     1      23.797  47.688  48.876  1.00  0.00    -0.026 A 
HETATM   12  C   UNL     1      24.748  48.718  48.995  1.00  0.00    -0.048 A 
HETATM   13  C   UNL     1      22.522  47.985  48.370  1.00  0.00     0.009 A 
HETATM   14  C   UNL     1      24.418  50.015  48.577  1.00  0.00     0.008 A 
HETATM   15  C   UNL     1      26.146  48.440  49.488  1.00  0.00     0.082 C 
HETATM   16  C   UNL     1      23.152  50.294  48.067  1.00  0.00     0.001 A 
HETATM   17  C   UNL     1      22.204  49.281  47.964  1.00  0.00     0.001 A 
ENDBRANCH   3   6
ENDBRANCH   1   2
BRANCH   1  18
HETATM   18  C   UNL     1      27.564  46.743  54.677  1.00  0.00     0.241 C 
HETATM   19  N   UNL     1      28.451  45.854  55.213  1.00  0.00    -0.353 N 
HETATM   20  H   UNL     1      28.412  44.871  54.961  1.00  0.00     0.162 HD
HETATM   21  O   UNL     1      27.698  47.969  54.761  1.00  0.00    -0.271 OA
BRANCH  19  22
HETATM   22  C   UNL     1      29.641  46.266  55.929  1.00  0.00     0.187 C 
BRANCH  22  23
HETATM   23  C   UNL     1      30.403  45.070  56.363  1.00  0.00     0.070 A 
HETATM   24  O   UNL     1      30.917  45.088  57.628  1.00  0.00    -0.325 OA
HETATM   25  C   UNL     1      31.586  43.919  57.801  1.00  0.00     0.142 A 
HETATM   26  C   UNL     1      31.526  43.156  56.660  1.00  0.00     0.027 A 
HETATM   27  C   UNL     1      30.761  43.899  55.727  1.00  0.00     0.036 A 
ENDBRANCH  22  23
ENDBRANCH  19  22
ENDBRANCH   1  18
BRANCH   1  28
HETATM   28  C   UNL     1      26.048  44.689  54.391  1.00  0.00     0.075 C 
BRANCH  28  29
HETATM   29  C   UNL     1      26.103  43.709  53.257  1.00  0.00    -0.028 A 
HETATM   30  C   UNL     1      27.146  42.758  53.007  1.00  0.00    -0.002 A 
HETATM   31  C   UNL     1      26.820  42.077  51.834  1.00  0.00     0.042 A 
HETATM   32  C   UNL     1      28.348  42.421  53.662  1.00  0.00     0.014 A 
HETATM   33  C   UNL     1      27.633  41.079  51.283  1.00  0.00     0.030 A 
HETATM   34  N   UNL     1      25.627  42.589  51.385  1.00  0.00    -0.365 N 
HETATM   35  C   UNL     1      28.821  40.769  51.950  1.00  0.00     0.002 A 
HETATM   36  C   UNL     1      29.177  41.429  53.122  1.00  0.00     0.001 A 
HETATM   37  H   UNL     1      25.158  42.288  50.540  1.00  0.00     0.165 HD
HETATM   38  C   UNL     1      25.192  43.581  52.226  1.00  0.00     0.096 A 
ENDBRANCH  28  29
ENDBRANCH   1  28
TORSDOF 7
ENDMDL
MODEL 3
REMARK VINA RESULT:      -9.7      3.392      7.384
REMARK  7 active torsions:
REMARK  status: ('A' for Active; 'I' for Inactive)
REMARK    1  A    between atoms: C_9  and  C_10 
REMARK       I    between atoms: C_10  and  N_11 
REMARK    2  A    between atoms: N_11  and  C_12 
REMARK    3  A    between atoms: C_12  and  C_13 
REMARK    4  A    between atoms: C_12  and  C_22 
REMARK       I    between atoms: C_13  and  N_14 
REMARK    5  A    between atoms: N_14  and  C_15 
REMARK    6  A    between atoms: C_15  and  C_16 
REMARK    7  A    between atoms: C_22  and  C_23 
ROOT
HETATM    1  C   UNL     1      24.644  45.530  50.487  1.00  0.00     0.180 C 
ENDROOT
BRANCH   1   2
HETATM    2  N   UNL     1      23.898  46.240  49.425  1.00  0.00    -0.346 N 
HETATM    3  C   UNL     1      22.769  45.739  48.845  1.00  0.00     0.249 C 
HETATM    4  O   UNL     1      22.336  44.611  49.086  1.00  0.00    -0.271 OA
HETATM    5  H   UNL     1      24.187  47.211  49.314  1.00  0.00     0.163 HD
BRANCH   3   6
HETATM    6  C   UNL     1      22.094  46.590  47.746  1.00  0.00     0.281 C 
HETATM    7  N   UNL     1      20.633  46.199  47.591  1.00  0.00    -0.058 N 
HETATM    8  C   UNL     1      19.781  46.602  48.748  1.00  0.00     0.272 C 
HETATM    9  H   UNL     1      20.245  46.588  46.726  1.00  0.00     0.278 HD
HETATM   10  H   UNL     1      20.595  45.171  47.530  1.00  0.00     0.278 HD
HETATM   11  C   UNL     1      20.008  48.019  49.186  1.00  0.00    -0.026 A 
HETATM   12  C   UNL     1      21.175  48.716  48.828  1.00  0.00    -0.048 A 
HETATM   13  C   UNL     1      19.063  48.641  50.017  1.00  0.00     0.009 A 
HETATM   14  C   UNL     1      21.361  50.031  49.278  1.00  0.00     0.008 A 
HETATM   15  C   UNL     1      22.198  48.110  47.900  1.00  0.00     0.082 C 
HETATM   16  C   UNL     1      20.409  50.641  50.093  1.00  0.00     0.001 A 
HETATM   17  C   UNL     1      19.262  49.947  50.463  1.00  0.00     0.001 A 
ENDBRANCH   3   6
ENDBRANCH   1   2
BRANCH   1  18
HETATM   18  C   UNL     1      25.091  46.646  51.457  1.00  0.00     0.241 C 
HETATM   19  N   UNL     1      25.459  46.257  52.713  1.00  0.00    -0.353 N 
HETATM   20  H   UNL     1      25.664  45.282  52.911  1.00  0.00     0.162 HD
HETATM   21  O   UNL     1      25.052  47.829  51.098  1.00  0.00    -0.271 OA
BRANCH  19  22
HETATM   22  C   UNL     1      25.842  47.196  53.747  1.00  0.00     0.187 C 
BRANCH  22  23
HETATM   23  C   UNL     1      27.046  46.697  54.455  1.00  0.00     0.070 A 
HETATM   24  O   UNL     1      27.071  45.371  54.777  1.00  0.00    -0.325 OA
HETATM   25  C   UNL     1      28.238  45.143  55.431  1.00  0.00     0.142 A 
HETATM   26  C   UNL     1      28.959  46.307  55.551  1.00  0.00     0.027 A 
HETATM   27  C   UNL     1      28.189  47.315  54.920  1.00  0.00     0.036 A 
ENDBRANCH  22  23
ENDBRANCH  19  22
ENDBRANCH   1  18
BRANCH   1  28
HETATM   28  C   UNL     1      25.817  44.749  49.885  1.00  0.00     0.075 C 
BRANCH  28  29
HETATM   29  C   UNL     1      26.120  43.441  50.554  1.00  0.00    -0.028 A 
HETATM   30  C   UNL     1      27.261  43.151  51.373  1.00  0.00    -0.002 A 
HETATM   31  C   UNL     1      27.171  41.813  51.757  1.00  0.00     0.042 A 
HETATM   32  C   UNL     1      28.372  43.899  51.813  1.00  0.00     0.014 A 
HETATM   33  C   UNL     1      28.134  41.186  52.557  1.00  0.00     0.030 A 
HETATM   34  N   UNL     1      26.023  41.306  51.197  1.00  0.00    -0.365 N 
HETATM   35  C   UNL     1      29.227  41.949  52.974  1.00  0.00     0.002 A 
HETATM   36  C   UNL     1      29.348  43.287  52.609  1.00  0.00     0.001 A 
HETATM   37  H   UNL     1      25.714  40.348  51.300  1.00  0.00     0.165 HD
HETATM   38  C   UNL     1      25.389  42.272  50.460  1.00  0.00     0.096 A 
ENDBRANCH  28  29
ENDBRANCH   1  28
TORSDOF 7
ENDMDL
MODEL 4
REMARK VINA RESULT:      -9.6      1.828      2.724
REMARK  7 active torsions:
REMARK  status: ('A' for Active; 'I' for Inactive)
REMARK    1  A    between atoms: C_9  and  C_10 
REMARK       I    between atoms: C_10  and  N_11 
REMARK    2  A    between atoms: N_11  and  C_12 
REMARK    3  A    between atoms: C_12  and  C_13 
REMARK    4  A    between atoms: C_12  and  C_22 
REMARK       I    between atoms: C_13  and  N_14 
REMARK    5  A    between atoms: N_14  and  C_15 
REMARK    6  A    between atoms: C_15  and  C_16 
REMARK    7  A    between atoms: C_22  and  C_23 
ROOT
HETATM    1  C   UNL     1      26.742  43.151  52.251  1.00  0.00     0.180 C 
ENDROOT
BRANCH   1   2
HETATM    2  N   UNL     1      26.258  42.332  51.118  1.00  0.00    -0.346 N 
HETATM    3  C   UNL     1      26.430  42.689  49.813  1.00  0.00     0.249 C 
HETATM    4  O   UNL     1      26.914  43.769  49.472  1.00  0.00    -0.271 OA
HETATM    5  H   UNL     1      25.969  41.395  51.397  1.00  0.00     0.163 HD
BRANCH   3   6
HETATM    6  C   UNL     1      25.872  41.735  48.733  1.00  0.00     0.281 C 
HETATM    7  N   UNL     1      26.756  41.753  47.496  1.00  0.00    -0.058 N 
HETATM    8  C   UNL     1      28.085  41.109  47.703  1.00  0.00     0.272 C 
HETATM    9  H   UNL     1      26.278  41.310  46.705  1.00  0.00     0.278 HD
HETATM   10  H   UNL     1      26.931  42.740  47.259  1.00  0.00     0.278 HD
HETATM   11  C   UNL     1      27.998  39.779  48.393  1.00  0.00    -0.026 A 
HETATM   12  C   UNL     1      26.857  39.409  49.126  1.00  0.00    -0.048 A 
HETATM   13  C   UNL     1      29.100  38.911  48.353  1.00  0.00     0.009 A 
HETATM   14  C   UNL     1      26.825  38.167  49.777  1.00  0.00     0.008 A 
HETATM   15  C   UNL     1      25.629  40.285  49.162  1.00  0.00     0.082 C 
HETATM   16  C   UNL     1      27.922  37.310  49.719  1.00  0.00     0.001 A 
HETATM   17  C   UNL     1      29.059  37.681  49.009  1.00  0.00     0.001 A 
ENDBRANCH   3   6
ENDBRANCH   1   2
BRANCH   1  18
HETATM   18  C   UNL     1      25.724  44.309  52.353  1.00  0.00     0.241 C 
HETATM   19  N   UNL     1      26.158  45.544  51.963  1.00  0.00    -0.353 N 
HETATM   20  H   UNL     1      27.004  45.641  51.410  1.00  0.00     0.162 HD
HETATM   21  O   UNL     1      24.599  44.102  52.823  1.00  0.00    -0.271 OA
BRANCH  19  22
HETATM   22  C   UNL     1      25.337  46.732  52.060  1.00  0.00     0.187 C 
BRANCH  22  23
HETATM   23  C   UNL     1      25.510  47.561  50.842  1.00  0.00     0.070 A 
HETATM   24  O   UNL     1      24.375  48.018  50.237  1.00  0.00    -0.325 OA
HETATM   25  C   UNL     1      24.763  48.725  49.145  1.00  0.00     0.142 A 
HETATM   26  C   UNL     1      26.133  48.716  49.029  1.00  0.00     0.027 A 
HETATM   27  C   UNL     1      26.618  47.964  50.126  1.00  0.00     0.036 A 
ENDBRANCH  22  23
ENDBRANCH  19  22
ENDBRANCH   1  18
BRANCH   1  28
HETATM   28  C   UNL     1      28.175  43.629  51.990  1.00  0.00     0.075 C 
BRANCH  28  29
HETATM   29  C   UNL     1      29.095  43.553  53.171  1.00  0.00    -0.028 A 
HETATM   30  C   UNL     1      29.082  44.417  54.315  1.00  0.00    -0.002 A 
HETATM   31  C   UNL     1      30.127  44.023  55.151  1.00  0.00     0.042 A 
HETATM   32  C   UNL     1      28.285  45.511  54.712  1.00  0.00     0.014 A 
HETATM   33  C   UNL     1      30.415  44.665  56.361  1.00  0.00     0.030 A 
HETATM   34  N   UNL     1      30.753  42.961  54.545  1.00  0.00    -0.365 N 
HETATM   35  C   UNL     1      29.614  45.749  56.728  1.00  0.00     0.002 A 
HETATM   36  C   UNL     1      28.564  46.169  55.917  1.00  0.00     0.001 A 
HETATM   37  H   UNL     1      31.558  42.481  54.924  1.00  0.00     0.165 HD
HETATM   38  C   UNL     1      30.150  42.677  53.346  1.00  0.00     0.096 A 
ENDBRANCH  28  29
ENDBRANCH   1  28
TORSDOF 7
ENDMDL
MODEL 5
REMARK VINA RESULT:      -9.5      2.038      6.689
REMARK  7 active torsions:
REMARK  status: ('A' for Active; 'I' for Inactive)
REMARK    1  A    between atoms: C_9  and  C_10 
REMARK       I    between atoms: C_10  and  N_11 
REMARK    2  A    between atoms: N_11  and  C_12 
REMARK    3  A    between atoms: C_12  and  C_13 
REMARK    4  A    between atoms: C_12  and  C_22 
REMARK       I    between atoms: C_13  and  N_14 
REMARK    5  A    between atoms: N_14  and  C_15 
REMARK    6  A    between atoms: C_15  and  C_16 
REMARK    7  A    between atoms: C_22  and  C_23 
ROOT
HETATM    1  C   UNL     1      26.225  46.281  51.620  1.00  0.00     0.180 C 
ENDROOT
BRANCH   1   2
HETATM    2  N   UNL     1      26.263  44.814  51.812  1.00  0.00    -0.346 N 
HETATM    3  C   UNL     1      26.922  43.969  50.967  1.00  0.00     0.249 C 
HETATM    4  O   UNL     1      27.453  44.347  49.922  1.00  0.00    -0.271 OA
HETATM    5  H   UNL     1      25.928  44.522  52.729  1.00  0.00     0.163 HD
BRANCH   3   6
HETATM    6  C   UNL     1      26.876  42.459  51.291  1.00  0.00     0.281 C 
HETATM    7  N   UNL     1      25.465  41.919  51.118  1.00  0.00    -0.058 N 
HETATM    8  C   UNL     1      25.017  41.861  49.697  1.00  0.00     0.272 C 
HETATM    9  H   UNL     1      25.380  40.991  51.544  1.00  0.00     0.278 HD
HETATM   10  H   UNL     1      24.829  42.562  51.611  1.00  0.00     0.278 HD
HETATM   11  C   UNL     1      26.037  41.255  48.778  1.00  0.00    -0.026 A 
HETATM   12  C   UNL     1      27.391  41.162  49.149  1.00  0.00    -0.048 A 
HETATM   13  C   UNL     1      25.643  40.824  47.502  1.00  0.00     0.009 A 
HETATM   14  C   UNL     1      28.317  40.611  48.251  1.00  0.00     0.008 A 
HETATM   15  C   UNL     1      27.857  41.567  50.525  1.00  0.00     0.082 C 
HETATM   16  C   UNL     1      27.909  40.177  46.991  1.00  0.00     0.001 A 
HETATM   17  C   UNL     1      26.574  40.284  46.617  1.00  0.00     0.001 A 
ENDBRANCH   3   6
ENDBRANCH   1   2
BRANCH   1  18
HETATM   18  C   UNL     1      26.236  46.858  53.053  1.00  0.00     0.241 C 
HETATM   19  N   UNL     1      27.131  46.312  53.928  1.00  0.00    -0.353 N 
HETATM   20  H   UNL     1      27.903  45.746  53.589  1.00  0.00     0.162 HD
HETATM   21  O   UNL     1      25.421  47.732  53.373  1.00  0.00    -0.271 OA
BRANCH  19  22
HETATM   22  C   UNL     1      27.214  46.709  55.318  1.00  0.00     0.187 C 
BRANCH  22  23
HETATM   23  C   UNL     1      28.432  46.129  55.933  1.00  0.00     0.070 A 
HETATM   24  O   UNL     1      29.210  45.337  55.140  1.00  0.00    -0.325 OA
HETATM   25  C   UNL     1      30.244  44.902  55.905  1.00  0.00     0.142 A 
HETATM   26  C   UNL     1      30.134  45.388  57.185  1.00  0.00     0.027 A 
HETATM   27  C   UNL     1      28.962  46.183  57.207  1.00  0.00     0.036 A 
ENDBRANCH  22  23
ENDBRANCH  19  22
ENDBRANCH   1  18
BRANCH   1  28
HETATM   28  C   UNL     1      24.983  46.682  50.817  1.00  0.00     0.075 C 
BRANCH  28  29
HETATM   29  C   UNL     1      25.167  47.859  49.907  1.00  0.00    -0.028 A 
HETATM   30  C   UNL     1      24.125  48.603  49.261  1.00  0.00    -0.002 A 
HETATM   31  C   UNL     1      24.735  49.585  48.479  1.00  0.00     0.042 A 
HETATM   32  C   UNL     1      22.717  48.525  49.255  1.00  0.00     0.014 A 
HETATM   33  C   UNL     1      24.010  50.489  47.693  1.00  0.00     0.030 A 
HETATM   34  N   UNL     1      26.092  49.448  48.641  1.00  0.00    -0.365 N 
HETATM   35  C   UNL     1      22.617  50.386  47.702  1.00  0.00     0.002 A 
HETATM   36  C   UNL     1      21.977  49.418  48.471  1.00  0.00     0.001 A 
HETATM   37  H   UNL     1      26.783  50.023  48.177  1.00  0.00     0.165 HD
HETATM   38  C   UNL     1      26.365  48.405  49.487  1.00  0.00     0.096 A 
ENDBRANCH  28  29
ENDBRANCH   1  28
TORSDOF 7
ENDMDL
MODEL 6
REMARK VINA RESULT:      -9.5      1.981      5.565
REMARK  7 active torsions:
REMARK  status: ('A' for Active; 'I' for Inactive)
REMARK    1  A    between atoms: C_9  and  C_10 
REMARK       I    between atoms: C_10  and  N_11 
REMARK    2  A    between atoms: N_11  and  C_12 
REMARK    3  A    between atoms: C_12  and  C_13 
REMARK    4  A    between atoms: C_12  and  C_22 
REMARK       I    between atoms: C_13  and  N_14 
REMARK    5  A    between atoms: N_14  and  C_15 
REMARK    6  A    between atoms: C_15  and  C_16 
REMARK    7  A    between atoms: C_22  and  C_23 
ROOT
HETATM    1  C   UNL     1      28.929  42.364  52.165  1.00  0.00     0.180 C 
ENDROOT
BRANCH   1   2
HETATM    2  N   UNL     1      27.523  42.698  52.484  1.00  0.00    -0.346 N 
HETATM    3  C   UNL     1      26.655  43.218  51.570  1.00  0.00     0.249 C 
HETATM    4  O   UNL     1      26.997  43.547  50.433  1.00  0.00    -0.271 OA
HETATM    5  H   UNL     1      27.216  42.318  53.379  1.00  0.00     0.163 HD
BRANCH   3   6
HETATM    6  C   UNL     1      25.215  43.518  52.044  1.00  0.00     0.281 C 
HETATM    7  N   UNL     1      25.208  44.681  53.024  1.00  0.00    -0.058 N 
HETATM    8  C   UNL     1      25.518  45.997  52.392  1.00  0.00     0.272 C 
HETATM    9  H   UNL     1      24.308  44.737  53.510  1.00  0.00     0.278 HD
HETATM   10  H   UNL     1      25.944  44.499  53.722  1.00  0.00     0.278 HD
HETATM   11  C   UNL     1      24.754  46.239  51.124  1.00  0.00    -0.026 A 
HETATM   12  C   UNL     1      24.161  45.181  50.413  1.00  0.00    -0.048 A 
HETATM   13  C   UNL     1      24.677  47.542  50.607  1.00  0.00     0.009 A 
HETATM   14  C   UNL     1      23.476  45.447  49.219  1.00  0.00     0.008 A 
HETATM   15  C   UNL     1      24.175  43.771  50.950  1.00  0.00     0.082 C 
HETATM   16  C   UNL     1      23.398  46.747  48.723  1.00  0.00     0.001 A 
HETATM   17  C   UNL     1      23.999  47.793  49.415  1.00  0.00     0.001 A 
ENDBRANCH   3   6
ENDBRANCH   1   2
BRANCH   1  18
HETATM   18  C   UNL     1      28.863  40.940  51.569  1.00  0.00     0.241 C 
HETATM   19  N   UNL     1      28.510  40.841  50.254  1.00  0.00    -0.353 N 
HETATM   20  H   UNL     1      28.537  41.657  49.650  1.00  0.00     0.162 HD
HETATM   21  O   UNL     1      29.071  39.959  52.292  1.00  0.00    -0.271 OA
BRANCH  19  22
HETATM   22  C   UNL     1      28.348  39.571  49.577  1.00  0.00     0.187 C 
BRANCH  22  23
HETATM   23  C   UNL     1      28.215  39.795  48.117  1.00  0.00     0.070 A 
HETATM   24  O   UNL     1      28.337  41.080  47.673  1.00  0.00    -0.325 OA
HETATM   25  C   UNL     1      28.161  41.053  46.327  1.00  0.00     0.142 A 
HETATM   26  C   UNL     1      27.910  39.772  45.899  1.00  0.00     0.027 A 
HETATM   27  C   UNL     1      27.945  38.955  47.056  1.00  0.00     0.036 A 
ENDBRANCH  22  23
ENDBRANCH  19  22
ENDBRANCH   1  18
BRANCH   1  28
HETATM   28  C   UNL     1      29.797  42.452  53.424  1.00  0.00     0.075 C 
BRANCH  28  29
HETATM   29  C   UNL     1      29.571  43.669  54.270  1.00  0.00    -0.028 A 
HETATM   30  C   UNL     1      30.188  43.953  55.533  1.00  0.00    -0.002 A 
HETATM   31  C   UNL     1      29.669  45.163  55.991  1.00  0.00     0.042 A 
HETATM   32  C   UNL     1      31.132  43.284  56.339  1.00  0.00     0.014 A 
HETATM   33  C   UNL     1      30.044  45.738  57.212  1.00  0.00     0.030 A 
HETATM   34  N   UNL     1      28.772  45.603  55.047  1.00  0.00    -0.365 N 
HETATM   35  C   UNL     1      30.976  45.052  57.992  1.00  0.00     0.002 A 
HETATM   36  C   UNL     1      31.514  43.841  57.566  1.00  0.00     0.001 A 
HETATM   37  H   UNL     1      28.233  46.456  55.127  1.00  0.00     0.165 HD
HETATM   38  C   UNL     1      28.695  44.706  54.014  1.00  0.00     0.096 A 
ENDBRANCH  28  29
ENDBRANCH   1  28
TORSDOF 7
ENDMDL
MODEL 7
REMARK VINA RESULT:      -9.3      5.916     10.536
REMARK  7 active torsions:
REMARK  status: ('A' for Active; 'I' for Inactive)
REMARK    1  A    between atoms: C_9  and  C_10 
REMARK       I    between atoms: C_10  and  N_11 
REMARK    2  A    between atoms: N_11  and  C_12 
REMARK    3  A    between atoms: C_12  and  C_13 
REMARK    4  A    between atoms: C_12  and  C_22 
REMARK       I    between atoms: C_13  and  N_14 
REMARK    5  A    between atoms: N_14  and  C_15 
REMARK    6  A    between atoms: C_15  and  C_16 
REMARK    7  A    between atoms: C_22  and  C_23 
ROOT
HETATM    1  C   UNL     1      23.089  48.609  47.988  1.00  0.00     0.180 C 
ENDROOT
BRANCH   1   2
HETATM    2  N   UNL     1      21.999  47.722  48.447  1.00  0.00    -0.346 N 
HETATM    3  C   UNL     1      21.264  46.945  47.600  1.00  0.00     0.249 C 
HETATM    4  O   UNL     1      21.381  46.994  46.375  1.00  0.00    -0.271 OA
HETATM    5  H   UNL     1      21.985  47.596  49.459  1.00  0.00     0.163 HD
BRANCH   3   6
HETATM    6  C   UNL     1      20.155  46.066  48.220  1.00  0.00     0.281 C 
HETATM    7  N   UNL     1      19.750  46.602  49.584  1.00  0.00    -0.058 N 
HETATM    8  C   UNL     1      19.008  47.895  49.522  1.00  0.00     0.272 C 
HETATM    9  H   UNL     1      19.191  45.909  50.092  1.00  0.00     0.278 HD
HETATM   10  H   UNL     1      20.616  46.774  50.115  1.00  0.00     0.278 HD
HETATM   11  C   UNL     1      17.914  47.901  48.495  1.00  0.00    -0.026 A 
HETATM   12  C   UNL     1      17.890  46.965  47.446  1.00  0.00    -0.048 A 
HETATM   13  C   UNL     1      16.926  48.897  48.551  1.00  0.00     0.009 A 
HETATM   14  C   UNL     1      16.863  47.020  46.493  1.00  0.00     0.008 A 
HETATM   15  C   UNL     1      18.901  45.848  47.369  1.00  0.00     0.082 C 
HETATM   16  C   UNL     1      15.882  48.008  46.567  1.00  0.00     0.001 A 
HETATM   17  C   UNL     1      15.914  48.945  47.594  1.00  0.00     0.001 A 
ENDBRANCH   3   6
ENDBRANCH   1   2
BRANCH   1  18
HETATM   18  C   UNL     1      24.159  48.513  49.099  1.00  0.00     0.241 C 
HETATM   19  N   UNL     1      24.083  47.434  49.933  1.00  0.00    -0.353 N 
HETATM   20  H   UNL     1      23.519  46.628  49.681  1.00  0.00     0.162 HD
HETATM   21  O   UNL     1      24.994  49.416  49.232  1.00  0.00    -0.271 OA
BRANCH  19  22
HETATM   22  C   UNL     1      24.979  47.243  51.054  1.00  0.00     0.187 C 
BRANCH  22  23
HETATM   23  C   UNL     1      25.744  45.986  50.875  1.00  0.00     0.070 A 
HETATM   24  O   UNL     1      25.991  45.587  49.593  1.00  0.00    -0.325 OA
HETATM   25  C   UNL     1      26.676  44.417  49.665  1.00  0.00     0.142 A 
HETATM   26  C   UNL     1      26.860  44.047  50.976  1.00  0.00     0.027 A 
HETATM   27  C   UNL     1      26.258  45.061  51.761  1.00  0.00     0.036 A 
ENDBRANCH  22  23
ENDBRANCH  19  22
ENDBRANCH   1  18
BRANCH   1  28
HETATM   28  C   UNL     1      22.565  50.034  47.778  1.00  0.00     0.075 C 
BRANCH  28  29
HETATM   29  C   UNL     1      21.603  50.519  48.820  1.00  0.00    -0.028 A 
HETATM   30  C   UNL     1      20.317  51.107  48.581  1.00  0.00    -0.002 A 
HETATM   31  C   UNL     1      19.775  51.448  49.821  1.00  0.00     0.042 A 
HETATM   32  C   UNL     1      19.567  51.395  47.422  1.00  0.00     0.014 A 
HETATM   33  C   UNL     1      18.524  52.062  49.960  1.00  0.00     0.030 A 
HETATM   34  N   UNL     1      20.690  51.083  50.778  1.00  0.00    -0.365 N 
HETATM   35  C   UNL     1      17.805  52.341  48.796  1.00  0.00     0.002 A 
HETATM   36  C   UNL     1      18.316  52.014  47.543  1.00  0.00     0.001 A 
HETATM   37  H   UNL     1      20.564  51.227  51.772  1.00  0.00     0.165 HD
HETATM   38  C   UNL     1      21.800  50.535  50.188  1.00  0.00     0.096 A 
ENDBRANCH  28  29
ENDBRANCH   1  28
TORSDOF 7
ENDMDL
MODEL 8
REMARK VINA RESULT:      -9.2     16.030     17.858
REMARK  7 active torsions:
REMARK  status: ('A' for Active; 'I' for Inactive)
REMARK    1  A    between atoms: C_9  and  C_10 
REMARK       I    between atoms: C_10  and  N_11 
REMARK    2  A    between atoms: N_11  and  C_12 
REMARK    3  A    between atoms: C_12  and  C_13 
REMARK    4  A    between atoms: C_12  and  C_22 
REMARK       I    between atoms: C_13  and  N_14 
REMARK    5  A    between atoms: N_14  and  C_15 
REMARK    6  A    between atoms: C_15  and  C_16 
REMARK    7  A    between atoms: C_22  and  C_23 
ROOT
HETATM    1  C   UNL     1      36.647  44.793  65.693  1.00  0.00     0.180 C 
ENDROOT
BRANCH   1   2
HETATM    2  N   UNL     1      37.712  44.471  64.718  1.00  0.00    -0.346 N 
HETATM    3  C   UNL     1      39.018  44.826  64.896  1.00  0.00     0.249 C 
HETATM    4  O   UNL     1      39.399  45.530  65.833  1.00  0.00    -0.271 OA
HETATM    5  H   UNL     1      37.418  43.796  64.014  1.00  0.00     0.163 HD
BRANCH   3   6
HETATM    6  C   UNL     1      40.023  44.423  63.794  1.00  0.00     0.281 C 
HETATM    7  N   UNL     1      41.367  44.059  64.405  1.00  0.00    -0.058 N 
HETATM    8  C   UNL     1      41.346  42.780  65.173  1.00  0.00     0.272 C 
HETATM    9  H   UNL     1      42.091  44.014  63.681  1.00  0.00     0.278 HD
HETATM   10  H   UNL     1      41.615  44.807  65.068  1.00  0.00     0.278 HD
HETATM   11  C   UNL     1      40.665  41.661  64.442  1.00  0.00    -0.026 A 
HETATM   12  C   UNL     1      39.789  41.913  63.371  1.00  0.00    -0.048 A 
HETATM   13  C   UNL     1      40.862  40.339  64.872  1.00  0.00     0.009 A 
HETATM   14  C   UNL     1      39.154  40.840  62.730  1.00  0.00     0.008 A 
HETATM   15  C   UNL     1      39.580  43.310  62.841  1.00  0.00     0.082 C 
HETATM   16  C   UNL     1      39.366  39.532  63.161  1.00  0.00     0.001 A 
HETATM   17  C   UNL     1      40.219  39.281  64.231  1.00  0.00     0.001 A 
ENDBRANCH   3   6
ENDBRANCH   1   2
BRANCH   1  18
HETATM   18  C   UNL     1      35.747  43.537  65.711  1.00  0.00     0.241 C 
HETATM   19  N   UNL     1      34.400  43.749  65.774  1.00  0.00    -0.353 N 
HETATM   20  H   UNL     1      34.012  44.665  65.568  1.00  0.00     0.162 HD
HETATM   21  O   UNL     1      36.258  42.412  65.723  1.00  0.00    -0.271 OA
BRANCH  19  22
HETATM   22  C   UNL     1      33.437  42.671  65.858  1.00  0.00     0.187 C 
BRANCH  22  23
HETATM   23  C   UNL     1      33.025  42.475  67.269  1.00  0.00     0.070 A 
HETATM   24  O   UNL     1      33.593  41.432  67.941  1.00  0.00    -0.325 OA
HETATM   25  C   UNL     1      33.061  41.428  69.191  1.00  0.00     0.142 A 
HETATM   26  C   UNL     1      32.146  42.444  69.327  1.00  0.00     0.027 A 
HETATM   27  C   UNL     1      32.121  43.124  68.085  1.00  0.00     0.036 A 
ENDBRANCH  22  23
ENDBRANCH  19  22
ENDBRANCH   1  18
BRANCH   1  28
HETATM   28  C   UNL     1      35.902  46.063  65.270  1.00  0.00     0.075 C 
BRANCH  28  29
HETATM   29  C   UNL     1      36.161  47.267  66.125  1.00  0.00    -0.028 A 
HETATM   30  C   UNL     1      37.137  48.289  65.880  1.00  0.00    -0.002 A 
HETATM   31  C   UNL     1      37.070  49.195  66.938  1.00  0.00     0.042 A 
HETATM   32  C   UNL     1      38.085  48.521  64.862  1.00  0.00     0.014 A 
HETATM   33  C   UNL     1      37.900  50.319  67.030  1.00  0.00     0.030 A 
HETATM   34  N   UNL     1      36.093  48.748  67.794  1.00  0.00    -0.365 N 
HETATM   35  C   UNL     1      38.833  50.521  66.011  1.00  0.00     0.002 A 
HETATM   36  C   UNL     1      38.927  49.636  64.941  1.00  0.00     0.001 A 
HETATM   37  H   UNL     1      35.838  49.208  68.659  1.00  0.00     0.165 HD
HETATM   38  C   UNL     1      35.548  47.582  67.323  1.00  0.00     0.096 A 
ENDBRANCH  28  29
ENDBRANCH   1  28
TORSDOF 7
ENDMDL
MODEL 9
REMARK VINA RESULT:      -9.2      1.905      2.469
REMARK  7 active torsions:
REMARK  status: ('A' for Active; 'I' for Inactive)
REMARK    1  A    between atoms: C_9  and  C_10 
REMARK       I    between atoms: C_10  and  N_11 
REMARK    2  A    between atoms: N_11  and  C_12 
REMARK    3  A    between atoms: C_12  and  C_13 
REMARK    4  A    between atoms: C_12  and  C_22 
REMARK       I    between atoms: C_13  and  N_14 
REMARK    5  A    between atoms: N_14  and  C_15 
REMARK    6  A    between atoms: C_15  and  C_16 
REMARK    7  A    between atoms: C_22  and  C_23 
ROOT
HETATM    1  C   UNL     1      25.228  43.760  51.663  1.00  0.00     0.180 C 
ENDROOT
BRANCH   1   2
HETATM    2  N   UNL     1      25.747  42.455  51.202  1.00  0.00    -0.346 N 
HETATM    3  C   UNL     1      26.557  42.318  50.112  1.00  0.00     0.249 C 
HETATM    4  O   UNL     1      26.841  43.256  49.367  1.00  0.00    -0.271 OA
HETATM    5  H   UNL     1      25.610  41.707  51.881  1.00  0.00     0.163 HD
BRANCH   3   6
HETATM    6  C   UNL     1      27.024  40.891  49.746  1.00  0.00     0.281 C 
HETATM    7  N   UNL     1      25.829  40.001  49.441  1.00  0.00    -0.058 N 
HETATM    8  C   UNL     1      25.135  40.348  48.167  1.00  0.00     0.272 C 
HETATM    9  H   UNL     1      26.110  39.016  49.423  1.00  0.00     0.278 HD
HETATM   10  H   UNL     1      25.148  40.131  50.203  1.00  0.00     0.278 HD
HETATM   11  C   UNL     1      26.076  40.552  47.016  1.00  0.00    -0.026 A 
HETATM   12  C   UNL     1      27.443  40.805  47.225  1.00  0.00    -0.048 A 
HETATM   13  C   UNL     1      25.571  40.544  45.707  1.00  0.00     0.009 A 
HETATM   14  C   UNL     1      28.285  41.014  46.123  1.00  0.00     0.008 A 
HETATM   15  C   UNL     1      28.043  40.778  48.609  1.00  0.00     0.082 C 
HETATM   16  C   UNL     1      27.771  40.993  44.827  1.00  0.00     0.001 A 
HETATM   17  C   UNL     1      26.416  40.759  44.619  1.00  0.00     0.001 A 
ENDBRANCH   3   6
ENDBRANCH   1   2
BRANCH   1  18
HETATM   18  C   UNL     1      24.084  44.092  50.679  1.00  0.00     0.241 C 
HETATM   19  N   UNL     1      24.310  45.109  49.796  1.00  0.00    -0.353 N 
HETATM   20  H   UNL     1      25.252  45.450  49.633  1.00  0.00     0.162 HD
HETATM   21  O   UNL     1      23.010  43.483  50.753  1.00  0.00    -0.271 OA
BRANCH  19  22
HETATM   22  C   UNL     1      23.309  45.571  48.857  1.00  0.00     0.187 C 
BRANCH  22  23
HETATM   23  C   UNL     1      23.100  47.029  49.023  1.00  0.00     0.070 A 
HETATM   24  O   UNL     1      21.899  47.534  48.616  1.00  0.00    -0.325 OA
HETATM   25  C   UNL     1      21.935  48.873  48.838  1.00  0.00     0.142 A 
HETATM   26  C   UNL     1      23.149  49.241  49.367  1.00  0.00     0.027 A 
HETATM   27  C   UNL     1      23.905  48.049  49.488  1.00  0.00     0.036 A 
ENDBRANCH  22  23
ENDBRANCH  19  22
ENDBRANCH   1  18
BRANCH   1  28
HETATM   28  C   UNL     1      26.345  44.809  51.664  1.00  0.00     0.075 C 
BRANCH  28  29
HETATM   29  C   UNL     1      27.113  44.920  52.948  1.00  0.00    -0.028 A 
HETATM   30  C   UNL     1      28.312  44.208  53.284  1.00  0.00    -0.002 A 
HETATM   31  C   UNL     1      28.667  44.577  54.582  1.00  0.00     0.042 A 
HETATM   32  C   UNL     1      29.122  43.272  52.610  1.00  0.00     0.014 A 
HETATM   33  C   UNL     1      29.789  44.057  55.239  1.00  0.00     0.030 A 
HETATM   34  N   UNL     1      27.727  45.476  55.021  1.00  0.00    -0.365 N 
HETATM   35  C   UNL     1      30.571  43.127  54.550  1.00  0.00     0.002 A 
HETATM   36  C   UNL     1      30.245  42.737  53.254  1.00  0.00     0.001 A 
HETATM   37  H   UNL     1      27.728  45.901  55.939  1.00  0.00     0.165 HD
HETATM   38  C   UNL     1      26.779  45.681  54.052  1.00  0.00     0.096 A 
ENDBRANCH  28  29
ENDBRANCH   1  28
TORSDOF 7
ENDMDL
MODEL 10
REMARK VINA RESULT:      -9.2      2.187      7.138
REMARK  7 active torsions:
REMARK  status: ('A' for Active; 'I' for Inactive)
REMARK    1  A    between atoms: C_9  and  C_10 
REMARK       I    between atoms: C_10  and  N_11 
REMARK    2  A    between atoms: N_11  and  C_12 
REMARK    3  A    between atoms: C_12  and  C_13 
REMARK    4  A    between atoms: C_12  and  C_22 
REMARK       I    between atoms: C_13  and  N_14 
REMARK    5  A    between atoms: N_14  and  C_15 
REMARK    6  A    between atoms: C_15  and  C_16 
REMARK    7  A    between atoms: C_22  and  C_23 
ROOT
HETATM    1  C   UNL     1      26.425  45.391  53.895  1.00  0.00     0.180 C 
ENDROOT
BRANCH   1   2
HETATM    2  N   UNL     1      26.612  45.719  52.464  1.00  0.00    -0.346 N 
HETATM    3  C   UNL     1      25.990  46.769  51.854  1.00  0.00     0.249 C 
HETATM    4  O   UNL     1      25.146  47.468  52.417  1.00  0.00    -0.271 OA
HETATM    5  H   UNL     1      27.391  45.219  52.038  1.00  0.00     0.163 HD
BRANCH   3   6
HETATM    6  C   UNL     1      26.279  46.993  50.353  1.00  0.00     0.281 C 
HETATM    7  N   UNL     1      25.919  45.753  49.549  1.00  0.00    -0.058 N 
HETATM    8  C   UNL     1      24.451  45.502  49.464  1.00  0.00     0.272 C 
HETATM    9  H   UNL     1      26.314  45.808  48.605  1.00  0.00     0.278 HD
HETATM   10  H   UNL     1      26.338  44.944  50.031  1.00  0.00     0.278 HD
HETATM   11  C   UNL     1      23.660  46.728  49.114  1.00  0.00    -0.026 A 
HETATM   12  C   UNL     1      24.198  48.017  49.277  1.00  0.00    -0.048 A 
HETATM   13  C   UNL     1      22.336  46.587  48.668  1.00  0.00     0.009 A 
HETATM   14  C   UNL     1      23.417  49.138  48.962  1.00  0.00     0.008 A 
HETATM   15  C   UNL     1      25.629  48.220  49.708  1.00  0.00     0.082 C 
HETATM   16  C   UNL     1      22.107  48.983  48.510  1.00  0.00     0.001 A 
HETATM   17  C   UNL     1      21.567  47.709  48.363  1.00  0.00     0.001 A 
ENDBRANCH   3   6
ENDBRANCH   1   2
BRANCH   1  18
HETATM   18  C   UNL     1      27.595  46.101  54.610  1.00  0.00     0.241 C 
HETATM   19  N   UNL     1      28.101  45.484  55.719  1.00  0.00    -0.353 N 
HETATM   20  H   UNL     1      27.890  44.509  55.908  1.00  0.00     0.162 HD
HETATM   21  O   UNL     1      27.992  47.199  54.205  1.00  0.00    -0.271 OA
BRANCH  19  22
HETATM   22  C   UNL     1      29.157  46.061  56.526  1.00  0.00     0.187 C 
BRANCH  22  23
HETATM   23  C   UNL     1      30.217  45.050  56.760  1.00  0.00     0.070 A 
HETATM   24  O   UNL     1      30.506  44.205  55.729  1.00  0.00    -0.325 OA
HETATM   25  C   UNL     1      31.476  43.362  56.166  1.00  0.00     0.142 A 
HETATM   26  C   UNL     1      31.804  43.640  57.471  1.00  0.00     0.027 A 
HETATM   27  C   UNL     1      30.991  44.733  57.858  1.00  0.00     0.036 A 
ENDBRANCH  22  23
ENDBRANCH  19  22
ENDBRANCH   1  18
BRANCH   1  28
HETATM   28  C   UNL     1      26.426  43.872  54.098  1.00  0.00     0.075 C 
BRANCH  28  29
HETATM   29  C   UNL     1      27.314  43.105  53.163  1.00  0.00    -0.028 A 
HETATM   30  C   UNL     1      26.920  42.498  51.925  1.00  0.00    -0.002 A 
HETATM   31  C   UNL     1      28.041  41.857  51.398  1.00  0.00     0.042 A 
HETATM   32  C   UNL     1      25.708  42.421  51.208  1.00  0.00     0.014 A 
HETATM   33  C   UNL     1      28.012  41.143  50.194  1.00  0.00     0.030 A 
HETATM   34  N   UNL     1      29.078  42.064  52.276  1.00  0.00    -0.365 N 
HETATM   35  C   UNL     1      26.798  41.079  49.507  1.00  0.00     0.002 A 
HETATM   36  C   UNL     1      25.660  41.707  50.005  1.00  0.00     0.001 A 
HETATM   37  H   UNL     1      30.012  41.697  52.152  1.00  0.00     0.165 HD
HETATM   38  C   UNL     1      28.649  42.802  53.348  1.00  0.00     0.096 A 
ENDBRANCH  28  29
ENDBRANCH   1  28
TORSDOF 7
ENDMDL
