MODEL 1
REMARK VINA RESULT:      -8.0      0.000      0.000
REMARK  4 active torsions:
REMARK  status: ('A' for Active; 'I' for Inactive)
REMARK    1  A    between atoms: C_4  and  C_5 
REMARK       I    between atoms: C_5  and  N_6 
REMARK    2  A    between atoms: N_6  and  C_7 
REMARK    3  A    between atoms: C_7  and  N_8 
REMARK    4  A    between atoms: N_8  and  C_9 
ROOT
HETATM    1  C   UNL     1      25.957  46.214  52.956  1.00  0.00     0.257 C 
HETATM    2  N   UNL     1      25.413  45.399  51.969  1.00  0.00    -0.299 N 
HETATM    3  O   UNL     1      25.638  47.363  53.220  1.00  0.00    -0.267 OA
HETATM    4  H   UNL     1      26.030  44.648  51.688  1.00  0.00     0.171 HD
ENDROOT
BRANCH   2   5
HETATM    5  C   UNL     1      24.646  45.826  50.933  1.00  0.00     0.179 C 
HETATM    6  S   UNL     1      23.915  44.671  49.969  1.00  0.00    -0.040 SA
BRANCH   5   7
HETATM    7  N   UNL     1      24.461  47.130  50.637  1.00  0.00    -0.332 N 
HETATM    8  H   UNL     1      23.847  47.603  51.293  1.00  0.00     0.168 HD
BRANCH   7   9
HETATM    9  C   UNL     1      25.178  47.992  49.778  1.00  0.00     0.051 A 
HETATM   10  C   UNL     1      24.454  48.871  48.969  1.00  0.00     0.145 A 
HETATM   11  N   UNL     1      25.000  49.814  48.163  1.00  0.00    -0.271 NA
HETATM   12  C   UNL     1      26.346  49.883  48.153  1.00  0.00     0.116 A 
HETATM   13  C   UNL     1      27.160  49.062  48.915  1.00  0.00     0.021 A 
HETATM   14  C   UNL     1      26.565  48.110  49.745  1.00  0.00     0.032 A 
ENDBRANCH   7   9
ENDBRANCH   5   7
ENDBRANCH   2   5
BRANCH   1  15
HETATM   15  C   UNL     1      27.079  45.578  53.697  1.00  0.00     0.033 A 
HETATM   16  C   UNL     1      27.424  46.088  54.953  1.00  0.00     0.023 A 
HETATM   17  C   UNL     1      28.530  45.571  55.637  1.00  0.00    -0.061 A 
HETATM   18  C   UNL     1      28.944  46.127  56.968  1.00  0.00     0.048 C 
HETATM   19  C   UNL     1      29.255  44.513  55.065  1.00  0.00     0.013 A 
HETATM   20  C   UNL     1      28.891  43.973  53.824  1.00  0.00    -0.061 A 
HETATM   21  C   UNL     1      27.805  44.522  53.133  1.00  0.00     0.023 A 
HETATM   22  C   UNL     1      29.692  42.850  53.232  1.00  0.00     0.048 C 
ENDBRANCH   1  15
TORSDOF 4
ENDMDL
MODEL 2
REMARK VINA RESULT:      -7.8      4.955      6.848
REMARK  4 active torsions:
REMARK  status: ('A' for Active; 'I' for Inactive)
REMARK    1  A    between atoms: C_4  and  C_5 
REMARK       I    between atoms: C_5  and  N_6 
REMARK    2  A    between atoms: N_6  and  C_7 
REMARK    3  A    between atoms: C_7  and  N_8 
REMARK    4  A    between atoms: N_8  and  C_9 
ROOT
HETATM    1  C   UNL     1      28.647  42.228  53.300  1.00  0.00     0.257 C 
HETATM    2  N   UNL     1      28.427  42.709  52.014  1.00  0.00    -0.299 N 
HETATM    3  O   UNL     1      28.418  41.100  53.713  1.00  0.00    -0.267 OA
HETATM    4  H   UNL     1      28.349  43.718  51.974  1.00  0.00     0.171 HD
ENDROOT
BRANCH   2   5
HETATM    5  C   UNL     1      27.649  42.113  51.074  1.00  0.00     0.179 C 
HETATM    6  S   UNL     1      26.864  43.093  49.968  1.00  0.00    -0.040 SA
BRANCH   5   7
HETATM    7  N   UNL     1      27.469  40.777  51.001  1.00  0.00    -0.332 N 
HETATM    8  H   UNL     1      26.535  40.487  51.274  1.00  0.00     0.168 HD
BRANCH   7   9
HETATM    9  C   UNL     1      28.230  39.777  50.355  1.00  0.00     0.051 A 
HETATM   10  C   UNL     1      28.090  39.629  48.974  1.00  0.00     0.145 A 
HETATM   11  N   UNL     1      28.815  38.779  48.206  1.00  0.00    -0.271 NA
HETATM   12  C   UNL     1      29.728  38.025  48.850  1.00  0.00     0.116 A 
HETATM   13  C   UNL     1      29.950  38.092  50.216  1.00  0.00     0.021 A 
HETATM   14  C   UNL     1      29.195  38.988  50.975  1.00  0.00     0.032 A 
ENDBRANCH   7   9
ENDBRANCH   5   7
ENDBRANCH   2   5
BRANCH   1  15
HETATM   15  C   UNL     1      29.164  43.259  54.238  1.00  0.00     0.033 A 
HETATM   16  C   UNL     1      30.247  42.931  55.060  1.00  0.00     0.023 A 
HETATM   17  C   UNL     1      30.701  43.847  56.015  1.00  0.00    -0.061 A 
HETATM   18  C   UNL     1      31.836  43.504  56.936  1.00  0.00     0.048 C 
HETATM   19  C   UNL     1      30.085  45.105  56.106  1.00  0.00     0.013 A 
HETATM   20  C   UNL     1      29.024  45.453  55.259  1.00  0.00    -0.061 A 
HETATM   21  C   UNL     1      28.554  44.515  54.331  1.00  0.00     0.023 A 
HETATM   22  C   UNL     1      28.376  46.801  55.386  1.00  0.00     0.048 C 
ENDBRANCH   1  15
TORSDOF 4
ENDMDL
MODEL 3
REMARK VINA RESULT:      -7.8      4.987      6.839
REMARK  4 active torsions:
REMARK  status: ('A' for Active; 'I' for Inactive)
REMARK    1  A    between atoms: C_4  and  C_5 
REMARK       I    between atoms: C_5  and  N_6 
REMARK    2  A    between atoms: N_6  and  C_7 
REMARK    3  A    between atoms: C_7  and  N_8 
REMARK    4  A    between atoms: N_8  and  C_9 
ROOT
HETATM    1  C   UNL     1      28.807  42.056  53.332  1.00  0.00     0.257 C 
HETATM    2  N   UNL     1      28.456  42.602  52.103  1.00  0.00    -0.299 N 
HETATM    3  O   UNL     1      28.735  40.882  53.663  1.00  0.00    -0.267 OA
HETATM    4  H   UNL     1      28.259  43.594  52.148  1.00  0.00     0.171 HD
ENDROOT
BRANCH   2   5
HETATM    5  C   UNL     1      27.697  41.988  51.158  1.00  0.00     0.179 C 
HETATM    6  S   UNL     1      26.897  42.950  50.047  1.00  0.00    -0.040 SA
BRANCH   5   7
HETATM    7  N   UNL     1      27.546  40.649  51.085  1.00  0.00    -0.332 N 
HETATM    8  H   UNL     1      26.665  40.326  51.473  1.00  0.00     0.168 HD
BRANCH   7   9
HETATM    9  C   UNL     1      28.244  39.682  50.328  1.00  0.00     0.051 A 
HETATM   10  C   UNL     1      28.017  39.631  48.951  1.00  0.00     0.145 A 
HETATM   11  N   UNL     1      28.674  38.823  48.084  1.00  0.00    -0.271 NA
HETATM   12  C   UNL     1      29.607  38.010  48.617  1.00  0.00     0.116 A 
HETATM   13  C   UNL     1      29.914  37.979  49.967  1.00  0.00     0.021 A 
HETATM   14  C   UNL     1      29.227  38.834  50.831  1.00  0.00     0.032 A 
ENDBRANCH   7   9
ENDBRANCH   5   7
ENDBRANCH   2   5
BRANCH   1  15
HETATM   15  C   UNL     1      29.257  43.069  54.323  1.00  0.00     0.033 A 
HETATM   16  C   UNL     1      28.623  44.315  54.341  1.00  0.00     0.023 A 
HETATM   17  C   UNL     1      29.080  45.320  55.201  1.00  0.00    -0.061 A 
HETATM   18  C   UNL     1      28.442  46.678  55.211  1.00  0.00     0.048 C 
HETATM   19  C   UNL     1      30.150  45.045  56.067  1.00  0.00     0.013 A 
HETATM   20  C   UNL     1      30.766  43.786  56.080  1.00  0.00    -0.061 A 
HETATM   21  C   UNL     1      30.323  42.799  55.191  1.00  0.00     0.023 A 
HETATM   22  C   UNL     1      31.916  43.524  57.009  1.00  0.00     0.048 C 
ENDBRANCH   1  15
TORSDOF 4
ENDMDL
MODEL 4
REMARK VINA RESULT:      -7.7      0.663      2.229
REMARK  4 active torsions:
REMARK  status: ('A' for Active; 'I' for Inactive)
REMARK    1  A    between atoms: C_4  and  C_5 
REMARK       I    between atoms: C_5  and  N_6 
REMARK    2  A    between atoms: N_6  and  C_7 
REMARK    3  A    between atoms: C_7  and  N_8 
REMARK    4  A    between atoms: N_8  and  C_9 
ROOT
HETATM    1  C   UNL     1      25.868  46.191  52.670  1.00  0.00     0.257 C 
HETATM    2  N   UNL     1      25.436  45.396  51.614  1.00  0.00    -0.299 N 
HETATM    3  O   UNL     1      25.437  47.289  52.989  1.00  0.00    -0.267 OA
HETATM    4  H   UNL     1      26.128  44.721  51.315  1.00  0.00     0.171 HD
ENDROOT
BRANCH   2   5
HETATM    5  C   UNL     1      24.673  45.819  50.574  1.00  0.00     0.179 C 
HETATM    6  S   UNL     1      24.209  44.690  49.430  1.00  0.00    -0.040 SA
BRANCH   5   7
HETATM    7  N   UNL     1      24.287  47.103  50.413  1.00  0.00    -0.332 N 
HETATM    8  H   UNL     1      23.632  47.413  51.124  1.00  0.00     0.168 HD
BRANCH   7   9
HETATM    9  C   UNL     1      24.838  48.141  49.629  1.00  0.00     0.051 A 
HETATM   10  C   UNL     1      26.229  48.235  49.540  1.00  0.00     0.145 A 
HETATM   11  N   UNL     1      26.900  49.117  48.760  1.00  0.00    -0.271 NA
HETATM   12  C   UNL     1      26.145  49.961  48.030  1.00  0.00     0.116 A 
HETATM   13  C   UNL     1      24.760  49.954  48.041  1.00  0.00     0.021 A 
HETATM   14  C   UNL     1      24.100  49.024  48.846  1.00  0.00     0.032 A 
ENDBRANCH   7   9
ENDBRANCH   5   7
ENDBRANCH   2   5
BRANCH   1  15
HETATM   15  C   UNL     1      27.014  45.610  53.419  1.00  0.00     0.033 A 
HETATM   16  C   UNL     1      27.676  44.505  52.876  1.00  0.00     0.023 A 
HETATM   17  C   UNL     1      28.700  43.881  53.596  1.00  0.00    -0.061 A 
HETATM   18  C   UNL     1      29.399  42.669  53.052  1.00  0.00     0.048 C 
HETATM   19  C   UNL     1      29.078  44.404  54.843  1.00  0.00     0.013 A 
HETATM   20  C   UNL     1      28.444  45.535  55.376  1.00  0.00    -0.061 A 
HETATM   21  C   UNL     1      27.395  46.129  54.662  1.00  0.00     0.023 A 
HETATM   22  C   UNL     1      28.860  46.065  56.716  1.00  0.00     0.048 C 
ENDBRANCH   1  15
TORSDOF 4
ENDMDL
MODEL 5
REMARK VINA RESULT:      -7.7      3.038      4.386
REMARK  4 active torsions:
REMARK  status: ('A' for Active; 'I' for Inactive)
REMARK    1  A    between atoms: C_4  and  C_5 
REMARK       I    between atoms: C_5  and  N_6 
REMARK    2  A    between atoms: N_6  and  C_7 
REMARK    3  A    between atoms: C_7  and  N_8 
REMARK    4  A    between atoms: N_8  and  C_9 
ROOT
HETATM    1  C   UNL     1      28.355  42.180  53.387  1.00  0.00     0.257 C 
HETATM    2  N   UNL     1      28.551  42.396  52.027  1.00  0.00    -0.299 N 
HETATM    3  O   UNL     1      27.713  41.277  53.903  1.00  0.00    -0.267 OA
HETATM    4  H   UNL     1      28.797  43.353  51.807  1.00  0.00     0.171 HD
ENDROOT
BRANCH   2   5
HETATM    5  C   UNL     1      27.826  41.828  51.029  1.00  0.00     0.179 C 
HETATM    6  S   UNL     1      28.300  40.322  50.473  1.00  0.00    -0.040 SA
BRANCH   5   7
HETATM    7  N   UNL     1      26.758  42.424  50.458  1.00  0.00    -0.332 N 
HETATM    8  H   UNL     1      26.147  41.771  49.979  1.00  0.00     0.168 HD
BRANCH   7   9
HETATM    9  C   UNL     1      26.207  43.710  50.651  1.00  0.00     0.051 A 
HETATM   10  C   UNL     1      26.458  44.690  49.688  1.00  0.00     0.145 A 
HETATM   11  N   UNL     1      25.927  45.936  49.690  1.00  0.00    -0.271 NA
HETATM   12  C   UNL     1      25.104  46.232  50.715  1.00  0.00     0.116 A 
HETATM   13  C   UNL     1      24.785  45.338  51.723  1.00  0.00     0.021 A 
HETATM   14  C   UNL     1      25.340  44.057  51.684  1.00  0.00     0.032 A 
ENDBRANCH   7   9
ENDBRANCH   5   7
ENDBRANCH   2   5
BRANCH   1  15
HETATM   15  C   UNL     1      28.971  43.224  54.247  1.00  0.00     0.033 A 
HETATM   16  C   UNL     1      30.077  42.878  55.030  1.00  0.00     0.023 A 
HETATM   17  C   UNL     1      30.626  43.811  55.916  1.00  0.00    -0.061 A 
HETATM   18  C   UNL     1      31.788  43.451  56.795  1.00  0.00     0.048 C 
HETATM   19  C   UNL     1      30.079  45.102  55.976  1.00  0.00     0.013 A 
HETATM   20  C   UNL     1      28.994  45.467  55.167  1.00  0.00    -0.061 A 
HETATM   21  C   UNL     1      28.430  44.514  54.310  1.00  0.00     0.023 A 
HETATM   22  C   UNL     1      28.422  46.852  55.260  1.00  0.00     0.048 C 
ENDBRANCH   1  15
TORSDOF 4
ENDMDL
MODEL 6
REMARK VINA RESULT:      -7.6      2.893      4.022
REMARK  4 active torsions:
REMARK  status: ('A' for Active; 'I' for Inactive)
REMARK    1  A    between atoms: C_4  and  C_5 
REMARK       I    between atoms: C_5  and  N_6 
REMARK    2  A    between atoms: N_6  and  C_7 
REMARK    3  A    between atoms: C_7  and  N_8 
REMARK    4  A    between atoms: N_8  and  C_9 
ROOT
HETATM    1  C   UNL     1      28.499  42.251  53.340  1.00  0.00     0.257 C 
HETATM    2  N   UNL     1      28.358  42.778  52.062  1.00  0.00    -0.299 N 
HETATM    3  O   UNL     1      28.173  41.134  53.716  1.00  0.00    -0.267 OA
HETATM    4  H   UNL     1      28.356  43.790  52.046  1.00  0.00     0.171 HD
ENDROOT
BRANCH   2   5
HETATM    5  C   UNL     1      27.569  42.266  51.083  1.00  0.00     0.179 C 
HETATM    6  S   UNL     1      28.042  40.832  50.362  1.00  0.00    -0.040 SA
BRANCH   5   7
HETATM    7  N   UNL     1      26.436  42.863  50.657  1.00  0.00    -0.332 N 
HETATM    8  H   UNL     1      25.712  42.202  50.395  1.00  0.00     0.168 HD
BRANCH   7   9
HETATM    9  C   UNL     1      25.993  44.199  50.784  1.00  0.00     0.051 A 
HETATM   10  C   UNL     1      25.732  44.923  49.618  1.00  0.00     0.145 A 
HETATM   11  N   UNL     1      25.220  46.177  49.581  1.00  0.00    -0.271 NA
HETATM   12  C   UNL     1      24.959  46.751  50.772  1.00  0.00     0.116 A 
HETATM   13  C   UNL     1      25.178  46.124  51.988  1.00  0.00     0.021 A 
HETATM   14  C   UNL     1      25.695  44.827  51.990  1.00  0.00     0.032 A 
ENDBRANCH   7   9
ENDBRANCH   5   7
ENDBRANCH   2   5
BRANCH   1  15
HETATM   15  C   UNL     1      29.061  43.216  54.322  1.00  0.00     0.033 A 
HETATM   16  C   UNL     1      28.513  44.501  54.384  1.00  0.00     0.023 A 
HETATM   17  C   UNL     1      29.075  45.460  55.233  1.00  0.00    -0.061 A 
HETATM   18  C   UNL     1      28.530  46.857  55.290  1.00  0.00     0.048 C 
HETATM   19  C   UNL     1      30.163  45.102  56.045  1.00  0.00     0.013 A 
HETATM   20  C   UNL     1      30.694  43.805  56.014  1.00  0.00    -0.061 A 
HETATM   21  C   UNL     1      30.145  42.864  55.134  1.00  0.00     0.023 A 
HETATM   22  C   UNL     1      31.865  43.454  56.884  1.00  0.00     0.048 C 
ENDBRANCH   1  15
TORSDOF 4
ENDMDL
MODEL 7
REMARK VINA RESULT:      -7.5      4.449      6.037
REMARK  4 active torsions:
REMARK  status: ('A' for Active; 'I' for Inactive)
REMARK    1  A    between atoms: C_4  and  C_5 
REMARK       I    between atoms: C_5  and  N_6 
REMARK    2  A    between atoms: N_6  and  C_7 
REMARK    3  A    between atoms: C_7  and  N_8 
REMARK    4  A    between atoms: N_8  and  C_9 
ROOT
HETATM    1  C   UNL     1      29.085  43.681  53.370  1.00  0.00     0.257 C 
HETATM    2  N   UNL     1      27.734  43.920  53.145  1.00  0.00    -0.299 N 
HETATM    3  O   UNL     1      29.868  43.119  52.618  1.00  0.00    -0.267 OA
HETATM    4  H   UNL     1      27.209  44.069  53.998  1.00  0.00     0.171 HD
ENDROOT
BRANCH   2   5
HETATM    5  C   UNL     1      26.976  43.314  52.195  1.00  0.00     0.179 C 
HETATM    6  S   UNL     1      26.289  44.273  51.009  1.00  0.00    -0.040 SA
BRANCH   5   7
HETATM    7  N   UNL     1      26.741  41.985  52.173  1.00  0.00    -0.332 N 
HETATM    8  H   UNL     1      26.064  41.689  52.869  1.00  0.00     0.168 HD
BRANCH   7   9
HETATM    9  C   UNL     1      27.038  41.012  51.193  1.00  0.00     0.051 A 
HETATM   10  C   UNL     1      26.021  40.623  50.317  1.00  0.00     0.145 A 
HETATM   11  N   UNL     1      26.177  39.771  49.274  1.00  0.00    -0.271 NA
HETATM   12  C   UNL     1      27.414  39.268  49.096  1.00  0.00     0.116 A 
HETATM   13  C   UNL     1      28.494  39.586  49.903  1.00  0.00     0.021 A 
HETATM   14  C   UNL     1      28.302  40.477  50.960  1.00  0.00     0.032 A 
ENDBRANCH   7   9
ENDBRANCH   5   7
ENDBRANCH   2   5
BRANCH   1  15
HETATM   15  C   UNL     1      29.553  44.134  54.706  1.00  0.00     0.033 A 
HETATM   16  C   UNL     1      30.665  43.505  55.274  1.00  0.00     0.023 A 
HETATM   17  C   UNL     1      31.077  43.846  56.567  1.00  0.00    -0.061 A 
HETATM   18  C   UNL     1      32.244  43.157  57.213  1.00  0.00     0.048 C 
HETATM   19  C   UNL     1      30.387  44.851  57.262  1.00  0.00     0.013 A 
HETATM   20  C   UNL     1      29.295  45.513  56.684  1.00  0.00    -0.061 A 
HETATM   21  C   UNL     1      28.870  45.137  55.404  1.00  0.00     0.023 A 
HETATM   22  C   UNL     1      28.569  46.576  57.456  1.00  0.00     0.048 C 
ENDBRANCH   1  15
TORSDOF 4
ENDMDL
MODEL 8
REMARK VINA RESULT:      -7.3      4.357      6.660
REMARK  4 active torsions:
REMARK  status: ('A' for Active; 'I' for Inactive)
REMARK    1  A    between atoms: C_4  and  C_5 
REMARK       I    between atoms: C_5  and  N_6 
REMARK    2  A    between atoms: N_6  and  C_7 
REMARK    3  A    between atoms: C_7  and  N_8 
REMARK    4  A    between atoms: N_8  and  C_9 
ROOT
HETATM    1  C   UNL     1      22.788  48.720  48.612  1.00  0.00     0.257 C 
HETATM    2  N   UNL     1      21.703  48.040  49.153  1.00  0.00    -0.299 N 
HETATM    3  O   UNL     1      22.776  49.489  47.662  1.00  0.00    -0.267 OA
HETATM    4  H   UNL     1      21.969  47.218  49.680  1.00  0.00     0.171 HD
ENDROOT
BRANCH   2   5
HETATM    5  C   UNL     1      20.499  47.873  48.548  1.00  0.00     0.179 C 
HETATM    6  S   UNL     1      19.818  46.345  48.561  1.00  0.00    -0.040 SA
BRANCH   5   7
HETATM    7  N   UNL     1      19.838  48.873  47.925  1.00  0.00    -0.332 N 
HETATM    8  H   UNL     1      19.542  48.629  46.986  1.00  0.00     0.168 HD
BRANCH   7   9
HETATM    9  C   UNL     1      19.251  50.051  48.439  1.00  0.00     0.051 A 
HETATM   10  C   UNL     1      18.511  49.960  49.620  1.00  0.00     0.145 A 
HETATM   11  N   UNL     1      17.967  51.012  50.279  1.00  0.00    -0.271 NA
HETATM   12  C   UNL     1      18.160  52.225  49.727  1.00  0.00     0.116 A 
HETATM   13  C   UNL     1      18.877  52.430  48.560  1.00  0.00     0.021 A 
HETATM   14  C   UNL     1      19.436  51.326  47.914  1.00  0.00     0.032 A 
ENDBRANCH   7   9
ENDBRANCH   5   7
ENDBRANCH   2   5
BRANCH   1  15
HETATM   15  C   UNL     1      24.081  48.391  49.269  1.00  0.00     0.033 A 
HETATM   16  C   UNL     1      25.228  49.085  48.873  1.00  0.00     0.023 A 
HETATM   17  C   UNL     1      26.474  48.739  49.408  1.00  0.00    -0.061 A 
HETATM   18  C   UNL     1      27.725  49.443  48.970  1.00  0.00     0.048 C 
HETATM   19  C   UNL     1      26.547  47.720  50.370  1.00  0.00     0.013 A 
HETATM   20  C   UNL     1      25.395  47.046  50.799  1.00  0.00    -0.061 A 
HETATM   21  C   UNL     1      24.159  47.376  50.231  1.00  0.00     0.023 A 
HETATM   22  C   UNL     1      25.505  45.952  51.822  1.00  0.00     0.048 C 
ENDBRANCH   1  15
TORSDOF 4
ENDMDL
MODEL 9
REMARK VINA RESULT:      -7.2      2.109      6.935
REMARK  4 active torsions:
REMARK  status: ('A' for Active; 'I' for Inactive)
REMARK    1  A    between atoms: C_4  and  C_5 
REMARK       I    between atoms: C_5  and  N_6 
REMARK    2  A    between atoms: N_6  and  C_7 
REMARK    3  A    between atoms: C_7  and  N_8 
REMARK    4  A    between atoms: N_8  and  C_9 
ROOT
HETATM    1  C   UNL     1      26.230  46.232  51.845  1.00  0.00     0.257 C 
HETATM    2  N   UNL     1      26.811  45.059  51.375  1.00  0.00    -0.299 N 
HETATM    3  O   UNL     1      26.069  46.557  53.012  1.00  0.00    -0.267 OA
HETATM    4  H   UNL     1      26.536  44.831  50.428  1.00  0.00     0.171 HD
ENDROOT
BRANCH   2   5
HETATM    5  C   UNL     1      27.029  43.941  52.113  1.00  0.00     0.179 C 
HETATM    6  S   UNL     1      27.028  42.466  51.323  1.00  0.00    -0.040 SA
BRANCH   5   7
HETATM    7  N   UNL     1      27.231  43.962  53.448  1.00  0.00    -0.332 N 
HETATM    8  H   UNL     1      26.427  43.637  53.976  1.00  0.00     0.168 HD
BRANCH   7   9
HETATM    9  C   UNL     1      28.422  44.074  54.199  1.00  0.00     0.051 A 
HETATM   10  C   UNL     1      28.577  45.185  55.031  1.00  0.00     0.145 A 
HETATM   11  N   UNL     1      29.618  45.385  55.876  1.00  0.00    -0.271 NA
HETATM   12  C   UNL     1      30.567  44.428  55.888  1.00  0.00     0.116 A 
HETATM   13  C   UNL     1      30.513  43.286  55.106  1.00  0.00     0.021 A 
HETATM   14  C   UNL     1      29.420  43.105  54.257  1.00  0.00     0.032 A 
ENDBRANCH   7   9
ENDBRANCH   5   7
ENDBRANCH   2   5
BRANCH   1  15
HETATM   15  C   UNL     1      25.722  47.117  50.764  1.00  0.00     0.033 A 
HETATM   16  C   UNL     1      26.611  48.009  50.157  1.00  0.00     0.023 A 
HETATM   17  C   UNL     1      26.146  48.916  49.198  1.00  0.00    -0.061 A 
HETATM   18  C   UNL     1      27.073  49.909  48.561  1.00  0.00     0.048 C 
HETATM   19  C   UNL     1      24.793  48.887  48.829  1.00  0.00     0.013 A 
HETATM   20  C   UNL     1      23.903  47.970  49.406  1.00  0.00    -0.061 A 
HETATM   21  C   UNL     1      24.373  47.091  50.390  1.00  0.00     0.023 A 
HETATM   22  C   UNL     1      22.459  47.970  49.000  1.00  0.00     0.048 C 
ENDBRANCH   1  15
TORSDOF 4
ENDMDL
MODEL 10
REMARK VINA RESULT:      -6.8      4.800      6.853
REMARK  4 active torsions:
REMARK  status: ('A' for Active; 'I' for Inactive)
REMARK    1  A    between atoms: C_4  and  C_5 
REMARK       I    between atoms: C_5  and  N_6 
REMARK    2  A    between atoms: N_6  and  C_7 
REMARK    3  A    between atoms: C_7  and  N_8 
REMARK    4  A    between atoms: N_8  and  C_9 
ROOT
HETATM    1  C   UNL     1      28.517  41.908  52.108  1.00  0.00     0.257 C 
HETATM    2  N   UNL     1      27.899  42.436  50.979  1.00  0.00    -0.299 N 
HETATM    3  O   UNL     1      28.791  40.735  52.315  1.00  0.00    -0.267 OA
HETATM    4  H   UNL     1      27.458  43.331  51.149  1.00  0.00     0.171 HD
ENDROOT
BRANCH   2   5
HETATM    5  C   UNL     1      27.224  41.718  50.046  1.00  0.00     0.179 C 
HETATM    6  S   UNL     1      25.631  41.317  50.364  1.00  0.00    -0.040 SA
BRANCH   5   7
HETATM    7  N   UNL     1      27.778  41.303  48.887  1.00  0.00    -0.332 N 
HETATM    8  H   UNL     1      28.209  42.056  48.360  1.00  0.00     0.168 HD
BRANCH   7   9
HETATM    9  C   UNL     1      28.110  40.006  48.435  1.00  0.00     0.051 A 
HETATM   10  C   UNL     1      27.514  39.542  47.261  1.00  0.00     0.145 A 
HETATM   11  N   UNL     1      27.799  38.362  46.659  1.00  0.00    -0.271 NA
HETATM   12  C   UNL     1      28.725  37.592  47.263  1.00  0.00     0.116 A 
HETATM   13  C   UNL     1      29.379  37.955  48.429  1.00  0.00     0.021 A 
HETATM   14  C   UNL     1      29.071  39.183  49.016  1.00  0.00     0.032 A 
ENDBRANCH   7   9
ENDBRANCH   5   7
ENDBRANCH   2   5
BRANCH   1  15
HETATM   15  C   UNL     1      28.798  42.922  53.158  1.00  0.00     0.033 A 
HETATM   16  C   UNL     1      29.853  42.689  54.047  1.00  0.00     0.023 A 
HETATM   17  C   UNL     1      30.088  43.578  55.101  1.00  0.00    -0.061 A 
HETATM   18  C   UNL     1      31.189  43.330  56.090  1.00  0.00     0.048 C 
HETATM   19  C   UNL     1      29.282  44.721  55.225  1.00  0.00     0.013 A 
HETATM   20  C   UNL     1      28.247  44.979  54.316  1.00  0.00    -0.061 A 
HETATM   21  C   UNL     1      27.998  44.063  53.286  1.00  0.00     0.023 A 
HETATM   22  C   UNL     1      27.394  46.203  54.481  1.00  0.00     0.048 C 
ENDBRANCH   1  15
TORSDOF 4
ENDMDL
