MODEL 1
REMARK VINA RESULT:      -8.6      0.000      0.000
REMARK  4 active torsions:
REMARK  status: ('A' for Active; 'I' for Inactive)
REMARK    1  A    between atoms: C_8  and  C_9 
REMARK    2  A    between atoms: C_9  and  N_10 
REMARK    3  A    between atoms: N_10  and  C_13 
REMARK    4  A    between atoms: C_13  and  C_14 
ROOT
HETATM    1  N   UNL     1      26.043  43.270  52.461  1.00  0.00    -0.067 N 
HETATM    2  H   UNL     1      25.514  42.458  52.801  1.00  0.00     0.277 HD
HETATM    3  H   UNL     1      25.690  44.063  53.012  1.00  0.00     0.277 HD
ENDROOT
BRANCH   1   4
HETATM    4  C   UNL     1      27.477  43.068  52.789  1.00  0.00     0.273 C 
BRANCH   4   5
HETATM    5  C   UNL     1      27.913  44.113  53.747  1.00  0.00    -0.005 A 
HETATM    6  C   UNL     1      29.025  44.032  54.646  1.00  0.00    -0.000 A 
HETATM    7  C   UNL     1      29.989  43.043  54.938  1.00  0.00     0.014 A 
HETATM    8  C   UNL     1      29.089  45.243  55.336  1.00  0.00     0.043 A 
HETATM    9  C   UNL     1      30.973  43.303  55.898  1.00  0.00     0.001 A 
HETATM   10  C   UNL     1      31.010  44.524  56.567  1.00  0.00     0.002 A 
HETATM   11  C   UNL     1      30.066  45.518  56.299  1.00  0.00     0.030 A 
HETATM   12  N   UNL     1      28.049  46.025  54.891  1.00  0.00    -0.365 N 
HETATM   13  H   UNL     1      27.846  46.956  55.238  1.00  0.00     0.165 HD
HETATM   14  C   UNL     1      27.342  45.361  53.922  1.00  0.00     0.098 A 
ENDBRANCH   4   5
ENDBRANCH   1   4
BRANCH   1  15
HETATM   15  C   UNL     1      25.753  43.488  51.024  1.00  0.00     0.271 C 
BRANCH  15  16
HETATM   16  C   UNL     1      25.809  44.950  50.686  1.00  0.00    -0.030 A 
HETATM   17  C   UNL     1      26.870  45.455  49.915  1.00  0.00     0.048 A 
HETATM   18  C   UNL     1      26.860  46.798  49.595  1.00  0.00     0.105 A 
HETATM   19  C   UNL     1      25.851  47.635  50.003  1.00  0.00     0.105 A 
HETATM   20  O   UNL     1      27.804  47.442  48.862  1.00  0.00    -0.323 OA
HETATM   21  O   UNL     1      26.034  48.912  49.581  1.00  0.00    -0.323 OA
HETATM   22  C   UNL     1      24.791  47.176  50.754  1.00  0.00     0.040 A 
HETATM   23  C   UNL     1      27.287  48.793  48.875  1.00  0.00     0.352 A 
HETATM   24  C   UNL     1      24.769  45.819  51.095  1.00  0.00     0.012 A 
ENDBRANCH  15  16
ENDBRANCH   1  15
TORSDOF 4
ENDMDL
MODEL 2
REMARK VINA RESULT:      -8.3      1.913      2.914
REMARK  4 active torsions:
REMARK  status: ('A' for Active; 'I' for Inactive)
REMARK    1  A    between atoms: C_8  and  C_9 
REMARK    2  A    between atoms: C_9  and  N_10 
REMARK    3  A    between atoms: N_10  and  C_13 
REMARK    4  A    between atoms: C_13  and  C_14 
ROOT
HETATM    1  N   UNL     1      26.128  47.019  52.629  1.00  0.00    -0.067 N 
HETATM    2  H   UNL     1      25.371  47.709  52.706  1.00  0.00     0.277 HD
HETATM    3  H   UNL     1      26.988  47.550  52.816  1.00  0.00     0.277 HD
ENDROOT
BRANCH   1   4
HETATM    4  C   UNL     1      25.954  46.009  53.703  1.00  0.00     0.273 C 
BRANCH   4   5
HETATM    5  C   UNL     1      27.183  45.957  54.532  1.00  0.00    -0.005 A 
HETATM    6  C   UNL     1      28.159  44.908  54.543  1.00  0.00    -0.000 A 
HETATM    7  C   UNL     1      28.289  43.674  53.870  1.00  0.00     0.014 A 
HETATM    8  C   UNL     1      29.159  45.282  55.440  1.00  0.00     0.043 A 
HETATM    9  C   UNL     1      29.407  42.870  54.117  1.00  0.00     0.001 A 
HETATM   10  C   UNL     1      30.389  43.275  55.018  1.00  0.00     0.002 A 
HETATM   11  C   UNL     1      30.282  44.489  55.699  1.00  0.00     0.030 A 
HETATM   12  N   UNL     1      28.802  46.499  55.971  1.00  0.00    -0.365 N 
HETATM   13  H   UNL     1      29.343  46.999  56.667  1.00  0.00     0.165 HD
HETATM   14  C   UNL     1      27.620  46.924  55.419  1.00  0.00     0.098 A 
ENDBRANCH   4   5
ENDBRANCH   1   4
BRANCH   1  15
HETATM   15  C   UNL     1      26.167  46.470  51.253  1.00  0.00     0.271 C 
BRANCH  15  16
HETATM   16  C   UNL     1      25.816  47.529  50.248  1.00  0.00    -0.030 A 
HETATM   17  C   UNL     1      24.469  47.790  49.940  1.00  0.00     0.048 A 
HETATM   18  C   UNL     1      24.191  48.798  49.040  1.00  0.00     0.105 A 
HETATM   19  C   UNL     1      25.184  49.543  48.453  1.00  0.00     0.105 A 
HETATM   20  O   UNL     1      22.951  49.176  48.635  1.00  0.00    -0.323 OA
HETATM   21  O   UNL     1      24.695  50.480  47.602  1.00  0.00    -0.323 OA
HETATM   22  C   UNL     1      26.515  49.322  48.733  1.00  0.00     0.040 A 
HETATM   23  C   UNL     1      23.277  50.232  47.702  1.00  0.00     0.352 A 
HETATM   24  C   UNL     1      26.832  48.307  49.643  1.00  0.00     0.012 A 
ENDBRANCH  15  16
ENDBRANCH   1  15
TORSDOF 4
ENDMDL
MODEL 3
REMARK VINA RESULT:      -8.0      1.781      2.244
REMARK  4 active torsions:
REMARK  status: ('A' for Active; 'I' for Inactive)
REMARK    1  A    between atoms: C_8  and  C_9 
REMARK    2  A    between atoms: C_9  and  N_10 
REMARK    3  A    between atoms: N_10  and  C_13 
REMARK    4  A    between atoms: C_13  and  C_14 
ROOT
HETATM    1  N   UNL     1      27.325  43.279  53.530  1.00  0.00    -0.067 N 
HETATM    2  H   UNL     1      27.180  42.708  52.689  1.00  0.00     0.277 HD
HETATM    3  H   UNL     1      27.544  42.602  54.272  1.00  0.00     0.277 HD
ENDROOT
BRANCH   1   4
HETATM    4  C   UNL     1      28.513  44.142  53.312  1.00  0.00     0.273 C 
BRANCH   4   5
HETATM    5  C   UNL     1      28.844  44.849  54.574  1.00  0.00    -0.005 A 
HETATM    6  C   UNL     1      29.794  44.429  55.561  1.00  0.00    -0.000 A 
HETATM    7  C   UNL     1      30.648  43.313  55.697  1.00  0.00     0.014 A 
HETATM    8  C   UNL     1      29.809  45.400  56.561  1.00  0.00     0.043 A 
HETATM    9  C   UNL     1      31.480  43.216  56.818  1.00  0.00     0.001 A 
HETATM   10  C   UNL     1      31.471  44.205  57.798  1.00  0.00     0.002 A 
HETATM   11  C   UNL     1      30.633  45.317  57.689  1.00  0.00     0.030 A 
HETATM   12  N   UNL     1      28.893  46.365  56.212  1.00  0.00    -0.365 N 
HETATM   13  H   UNL     1      28.685  47.184  56.772  1.00  0.00     0.165 HD
HETATM   14  C   UNL     1      28.317  46.051  55.008  1.00  0.00     0.098 A 
ENDBRANCH   4   5
ENDBRANCH   1   4
BRANCH   1  15
HETATM   15  C   UNL     1      26.076  44.003  53.864  1.00  0.00     0.271 C 
BRANCH  15  16
HETATM   16  C   UNL     1      25.463  44.604  52.632  1.00  0.00    -0.030 A 
HETATM   17  C   UNL     1      25.437  46.000  52.467  1.00  0.00     0.048 A 
HETATM   18  C   UNL     1      24.899  46.506  51.301  1.00  0.00     0.105 A 
HETATM   19  C   UNL     1      24.403  45.690  50.315  1.00  0.00     0.105 A 
HETATM   20  O   UNL     1      24.797  47.823  50.985  1.00  0.00    -0.323 OA
HETATM   21  O   UNL     1      23.923  46.390  49.255  1.00  0.00    -0.323 OA
HETATM   22  C   UNL     1      24.417  44.318  50.437  1.00  0.00     0.040 A 
HETATM   23  C   UNL     1      24.153  47.746  49.692  1.00  0.00     0.352 A 
HETATM   24  C   UNL     1      24.956  43.771  51.606  1.00  0.00     0.012 A 
ENDBRANCH  15  16
ENDBRANCH   1  15
TORSDOF 4
ENDMDL
MODEL 4
REMARK VINA RESULT:      -7.9      2.014      3.361
REMARK  4 active torsions:
REMARK  status: ('A' for Active; 'I' for Inactive)
REMARK    1  A    between atoms: C_8  and  C_9 
REMARK    2  A    between atoms: C_9  and  N_10 
REMARK    3  A    between atoms: N_10  and  C_13 
REMARK    4  A    between atoms: C_13  and  C_14 
ROOT
HETATM    1  N   UNL     1      27.525  47.566  54.475  1.00  0.00    -0.067 N 
HETATM    2  H   UNL     1      27.907  48.518  54.439  1.00  0.00     0.277 HD
HETATM    3  H   UNL     1      27.995  47.064  53.711  1.00  0.00     0.277 HD
ENDROOT
BRANCH   1   4
HETATM    4  C   UNL     1      27.926  46.947  55.763  1.00  0.00     0.273 C 
BRANCH   4   5
HETATM    5  C   UNL     1      28.757  45.748  55.494  1.00  0.00    -0.005 A 
HETATM    6  C   UNL     1      29.773  45.207  56.347  1.00  0.00    -0.000 A 
HETATM    7  C   UNL     1      30.313  45.579  57.597  1.00  0.00     0.014 A 
HETATM    8  C   UNL     1      30.274  44.065  55.722  1.00  0.00     0.043 A 
HETATM    9  C   UNL     1      31.323  44.798  58.169  1.00  0.00     0.001 A 
HETATM   10  C   UNL     1      31.799  43.662  57.519  1.00  0.00     0.002 A 
HETATM   11  C   UNL     1      31.284  43.275  56.281  1.00  0.00     0.030 A 
HETATM   12  N   UNL     1      29.606  43.923  54.528  1.00  0.00    -0.365 N 
HETATM   13  H   UNL     1      29.784  43.182  53.859  1.00  0.00     0.165 HD
HETATM   14  C   UNL     1      28.678  44.922  54.387  1.00  0.00     0.098 A 
ENDBRANCH   4   5
ENDBRANCH   1   4
BRANCH   1  15
HETATM   15  C   UNL     1      26.064  47.604  54.226  1.00  0.00     0.271 C 
BRANCH  15  16
HETATM   16  C   UNL     1      25.675  46.588  53.190  1.00  0.00    -0.030 A 
HETATM   17  C   UNL     1      25.689  46.932  51.826  1.00  0.00     0.048 A 
HETATM   18  C   UNL     1      25.362  45.956  50.907  1.00  0.00     0.105 A 
HETATM   19  C   UNL     1      25.034  44.678  51.289  1.00  0.00     0.105 A 
HETATM   20  O   UNL     1      25.327  46.120  49.560  1.00  0.00    -0.323 OA
HETATM   21  O   UNL     1      24.748  43.879  50.229  1.00  0.00    -0.323 OA
HETATM   22  C   UNL     1      25.015  44.302  52.614  1.00  0.00     0.040 A 
HETATM   23  C   UNL     1      24.912  44.802  49.133  1.00  0.00     0.352 A 
HETATM   24  C   UNL     1      25.342  45.267  53.572  1.00  0.00     0.012 A 
ENDBRANCH  15  16
ENDBRANCH   1  15
TORSDOF 4
ENDMDL
MODEL 5
REMARK VINA RESULT:      -7.8      1.491      2.527
REMARK  4 active torsions:
REMARK  status: ('A' for Active; 'I' for Inactive)
REMARK    1  A    between atoms: C_8  and  C_9 
REMARK    2  A    between atoms: C_9  and  N_10 
REMARK    3  A    between atoms: N_10  and  C_13 
REMARK    4  A    between atoms: C_13  and  C_14 
ROOT
HETATM    1  N   UNL     1      28.576  42.312  51.993  1.00  0.00    -0.067 N 
HETATM    2  H   UNL     1      28.927  43.274  51.915  1.00  0.00     0.277 HD
HETATM    3  H   UNL     1      29.344  41.724  51.645  1.00  0.00     0.277 HD
ENDROOT
BRANCH   1   4
HETATM    4  C   UNL     1      28.361  42.007  53.430  1.00  0.00     0.273 C 
BRANCH   4   5
HETATM    5  C   UNL     1      28.986  43.068  54.256  1.00  0.00    -0.005 A 
HETATM    6  C   UNL     1      28.457  44.377  54.504  1.00  0.00    -0.000 A 
HETATM    7  C   UNL     1      27.300  45.068  54.088  1.00  0.00     0.014 A 
HETATM    8  C   UNL     1      29.350  45.030  55.353  1.00  0.00     0.043 A 
HETATM    9  C   UNL     1      27.080  46.375  54.537  1.00  0.00     0.001 A 
HETATM   10  C   UNL     1      27.990  46.998  55.387  1.00  0.00     0.002 A 
HETATM   11  C   UNL     1      29.145  46.337  55.811  1.00  0.00     0.030 A 
HETATM   12  N   UNL     1      30.390  44.166  55.601  1.00  0.00    -0.365 N 
HETATM   13  H   UNL     1      31.193  44.390  56.178  1.00  0.00     0.165 HD
HETATM   14  C   UNL     1      30.174  42.974  54.958  1.00  0.00     0.098 A 
ENDBRANCH   4   5
ENDBRANCH   1   4
BRANCH   1  15
HETATM   15  C   UNL     1      27.383  42.143  51.130  1.00  0.00     0.271 C 
BRANCH  15  16
HETATM   16  C   UNL     1      26.626  43.433  51.009  1.00  0.00    -0.030 A 
HETATM   17  C   UNL     1      27.163  44.497  50.262  1.00  0.00     0.048 A 
HETATM   18  C   UNL     1      26.415  45.651  50.145  1.00  0.00     0.105 A 
HETATM   19  C   UNL     1      25.178  45.778  50.726  1.00  0.00     0.105 A 
HETATM   20  O   UNL     1      26.785  46.766  49.463  1.00  0.00    -0.323 OA
HETATM   21  O   UNL     1      24.615  46.990  50.487  1.00  0.00    -0.323 OA
HETATM   22  C   UNL     1      24.616  44.757  51.460  1.00  0.00     0.040 A 
HETATM   23  C   UNL     1      25.647  47.625  49.703  1.00  0.00     0.352 A 
HETATM   24  C   UNL     1      25.347  43.572  51.598  1.00  0.00     0.012 A 
ENDBRANCH  15  16
ENDBRANCH   1  15
TORSDOF 4
ENDMDL
MODEL 6
REMARK VINA RESULT:      -7.7      2.008      3.532
REMARK  4 active torsions:
REMARK  status: ('A' for Active; 'I' for Inactive)
REMARK    1  A    between atoms: C_8  and  C_9 
REMARK    2  A    between atoms: C_9  and  N_10 
REMARK    3  A    between atoms: N_10  and  C_13 
REMARK    4  A    between atoms: C_13  and  C_14 
ROOT
HETATM    1  N   UNL     1      27.640  47.495  54.829  1.00  0.00    -0.067 N 
HETATM    2  H   UNL     1      28.180  48.367  54.789  1.00  0.00     0.277 HD
HETATM    3  H   UNL     1      28.125  46.856  54.187  1.00  0.00     0.277 HD
ENDROOT
BRANCH   1   4
HETATM    4  C   UNL     1      27.736  46.945  56.204  1.00  0.00     0.273 C 
BRANCH   4   5
HETATM    5  C   UNL     1      28.866  45.985  56.271  1.00  0.00    -0.005 A 
HETATM    6  C   UNL     1      29.173  44.964  55.314  1.00  0.00    -0.000 A 
HETATM    7  C   UNL     1      28.578  44.529  54.111  1.00  0.00     0.014 A 
HETATM    8  C   UNL     1      30.329  44.319  55.752  1.00  0.00     0.043 A 
HETATM    9  C   UNL     1      29.160  43.475  53.397  1.00  0.00     0.001 A 
HETATM   10  C   UNL     1      30.316  42.854  53.862  1.00  0.00     0.002 A 
HETATM   11  C   UNL     1      30.923  43.264  55.051  1.00  0.00     0.030 A 
HETATM   12  N   UNL     1      30.704  44.908  56.938  1.00  0.00    -0.365 N 
HETATM   13  H   UNL     1      31.506  44.622  57.488  1.00  0.00     0.165 HD
HETATM   14  C   UNL     1      29.838  45.923  57.252  1.00  0.00     0.098 A 
ENDBRANCH   4   5
ENDBRANCH   1   4
BRANCH   1  15
HETATM   15  C   UNL     1      26.260  47.739  54.347  1.00  0.00     0.271 C 
BRANCH  15  16
HETATM   16  C   UNL     1      25.869  46.722  53.314  1.00  0.00    -0.030 A 
HETATM   17  C   UNL     1      26.025  47.010  51.947  1.00  0.00     0.048 A 
HETATM   18  C   UNL     1      25.690  46.031  51.034  1.00  0.00     0.105 A 
HETATM   19  C   UNL     1      25.221  44.802  51.425  1.00  0.00     0.105 A 
HETATM   20  O   UNL     1      25.781  46.146  49.684  1.00  0.00    -0.323 OA
HETATM   21  O   UNL     1      24.953  43.989  50.371  1.00  0.00    -0.323 OA
HETATM   22  C   UNL     1      25.060  44.479  52.755  1.00  0.00     0.040 A 
HETATM   23  C   UNL     1      25.288  44.853  49.264  1.00  0.00     0.352 A 
HETATM   24  C   UNL     1      25.391  45.449  53.708  1.00  0.00     0.012 A 
ENDBRANCH  15  16
ENDBRANCH   1  15
TORSDOF 4
ENDMDL
MODEL 7
REMARK VINA RESULT:      -7.7      2.310      3.658
REMARK  4 active torsions:
REMARK  status: ('A' for Active; 'I' for Inactive)
REMARK    1  A    between atoms: C_8  and  C_9 
REMARK    2  A    between atoms: C_9  and  N_10 
REMARK    3  A    between atoms: N_10  and  C_13 
REMARK    4  A    between atoms: C_13  and  C_14 
ROOT
HETATM    1  N   UNL     1      26.262  47.220  52.248  1.00  0.00    -0.067 N 
HETATM    2  H   UNL     1      26.476  48.222  52.181  1.00  0.00     0.277 HD
HETATM    3  H   UNL     1      27.129  46.747  51.966  1.00  0.00     0.277 HD
ENDROOT
BRANCH   1   4
HETATM    4  C   UNL     1      25.985  46.893  53.669  1.00  0.00     0.273 C 
BRANCH   4   5
HETATM    5  C   UNL     1      27.225  46.384  54.305  1.00  0.00    -0.005 A 
HETATM    6  C   UNL     1      27.759  45.059  54.190  1.00  0.00    -0.000 A 
HETATM    7  C   UNL     1      27.346  43.883  53.529  1.00  0.00     0.014 A 
HETATM    8  C   UNL     1      28.947  45.027  54.920  1.00  0.00     0.043 A 
HETATM    9  C   UNL     1      28.134  42.729  53.620  1.00  0.00     0.001 A 
HETATM   10  C   UNL     1      29.315  42.732  54.356  1.00  0.00     0.002 A 
HETATM   11  C   UNL     1      29.745  43.881  55.022  1.00  0.00     0.030 A 
HETATM   12  N   UNL     1      29.124  46.272  55.475  1.00  0.00    -0.365 N 
HETATM   13  H   UNL     1      29.902  46.526  56.073  1.00  0.00     0.165 HD
HETATM   14  C   UNL     1      28.100  47.104  55.098  1.00  0.00     0.098 A 
ENDBRANCH   4   5
ENDBRANCH   1   4
BRANCH   1  15
HETATM   15  C   UNL     1      25.173  46.878  51.302  1.00  0.00     0.271 C 
BRANCH  15  16
HETATM   16  C   UNL     1      25.242  45.429  50.914  1.00  0.00    -0.030 A 
HETATM   17  C   UNL     1      26.300  44.963  50.114  1.00  0.00     0.048 A 
HETATM   18  C   UNL     1      26.345  43.617  49.814  1.00  0.00     0.105 A 
HETATM   19  C   UNL     1      25.398  42.737  50.277  1.00  0.00     0.105 A 
HETATM   20  O   UNL     1      27.294  43.007  49.058  1.00  0.00    -0.323 OA
HETATM   21  O   UNL     1      25.629  41.464  49.867  1.00  0.00    -0.323 OA
HETATM   22  C   UNL     1      24.349  43.154  51.068  1.00  0.00     0.040 A 
HETATM   23  C   UNL     1      26.821  41.640  49.074  1.00  0.00     0.352 A 
HETATM   24  C   UNL     1      24.274  44.513  51.392  1.00  0.00     0.012 A 
ENDBRANCH  15  16
ENDBRANCH   1  15
TORSDOF 4
ENDMDL
MODEL 8
REMARK VINA RESULT:      -7.6      3.495      7.739
REMARK  4 active torsions:
REMARK  status: ('A' for Active; 'I' for Inactive)
REMARK    1  A    between atoms: C_8  and  C_9 
REMARK    2  A    between atoms: C_9  and  N_10 
REMARK    3  A    between atoms: N_10  and  C_13 
REMARK    4  A    between atoms: C_13  and  C_14 
ROOT
HETATM    1  N   UNL     1      26.141  47.182  52.032  1.00  0.00    -0.067 N 
HETATM    2  H   UNL     1      27.079  47.539  52.248  1.00  0.00     0.277 HD
HETATM    3  H   UNL     1      25.522  47.998  52.122  1.00  0.00     0.277 HD
ENDROOT
BRANCH   1   4
HETATM    4  C   UNL     1      26.124  46.732  50.617  1.00  0.00     0.273 C 
BRANCH   4   5
HETATM    5  C   UNL     1      26.085  47.917  49.725  1.00  0.00    -0.005 A 
HETATM    6  C   UNL     1      24.910  48.562  49.218  1.00  0.00    -0.000 A 
HETATM    7  C   UNL     1      23.524  48.328  49.343  1.00  0.00     0.014 A 
HETATM    8  C   UNL     1      25.333  49.647  48.451  1.00  0.00     0.043 A 
HETATM    9  C   UNL     1      22.621  49.184  48.701  1.00  0.00     0.001 A 
HETATM   10  C   UNL     1      23.077  50.260  47.944  1.00  0.00     0.002 A 
HETATM   11  C   UNL     1      24.443  50.512  47.803  1.00  0.00     0.030 A 
HETATM   12  N   UNL     1      26.708  49.656  48.471  1.00  0.00    -0.365 N 
HETATM   13  H   UNL     1      27.282  50.331  47.978  1.00  0.00     0.165 HD
HETATM   14  C   UNL     1      27.172  48.627  49.249  1.00  0.00     0.098 A 
ENDBRANCH   4   5
ENDBRANCH   1   4
BRANCH   1  15
HETATM   15  C   UNL     1      25.758  46.149  53.023  1.00  0.00     0.271 C 
BRANCH  15  16
HETATM   16  C   UNL     1      26.977  45.516  53.629  1.00  0.00    -0.030 A 
HETATM   17  C   UNL     1      27.663  46.165  54.672  1.00  0.00     0.048 A 
HETATM   18  C   UNL     1      28.754  45.528  55.226  1.00  0.00     0.105 A 
HETATM   19  C   UNL     1      29.175  44.295  54.794  1.00  0.00     0.105 A 
HETATM   20  O   UNL     1      29.524  46.014  56.235  1.00  0.00    -0.323 OA
HETATM   21  O   UNL     1      30.263  43.851  55.472  1.00  0.00    -0.323 OA
HETATM   22  C   UNL     1      28.526  43.625  53.780  1.00  0.00     0.040 A 
HETATM   23  C   UNL     1      30.498  44.954  56.373  1.00  0.00     0.352 A 
HETATM   24  C   UNL     1      27.414  44.242  53.195  1.00  0.00     0.012 A 
ENDBRANCH  15  16
ENDBRANCH   1  15
TORSDOF 4
ENDMDL
MODEL 9
REMARK VINA RESULT:      -7.5      1.574      2.512
REMARK  4 active torsions:
REMARK  status: ('A' for Active; 'I' for Inactive)
REMARK    1  A    between atoms: C_8  and  C_9 
REMARK    2  A    between atoms: C_9  and  N_10 
REMARK    3  A    between atoms: N_10  and  C_13 
REMARK    4  A    between atoms: C_13  and  C_14 
ROOT
HETATM    1  N   UNL     1      26.037  43.972  51.594  1.00  0.00    -0.067 N 
HETATM    2  H   UNL     1      26.219  42.970  51.724  1.00  0.00     0.277 HD
HETATM    3  H   UNL     1      25.020  44.071  51.704  1.00  0.00     0.277 HD
ENDROOT
BRANCH   1   4
HETATM    4  C   UNL     1      26.705  44.717  52.690  1.00  0.00     0.273 C 
BRANCH   4   5
HETATM    5  C   UNL     1      27.810  43.894  53.241  1.00  0.00    -0.005 A 
HETATM    6  C   UNL     1      28.727  44.280  54.272  1.00  0.00    -0.000 A 
HETATM    7  C   UNL     1      28.915  45.450  55.038  1.00  0.00     0.014 A 
HETATM    8  C   UNL     1      29.575  43.196  54.499  1.00  0.00     0.043 A 
HETATM    9  C   UNL     1      29.934  45.489  55.996  1.00  0.00     0.001 A 
HETATM   10  C   UNL     1      30.761  44.388  56.199  1.00  0.00     0.002 A 
HETATM   11  C   UNL     1      30.599  43.220  55.452  1.00  0.00     0.030 A 
HETATM   12  N   UNL     1      29.205  42.195  53.631  1.00  0.00    -0.365 N 
HETATM   13  H   UNL     1      29.667  41.295  53.568  1.00  0.00     0.165 HD
HETATM   14  C   UNL     1      28.132  42.599  52.879  1.00  0.00     0.098 A 
ENDBRANCH   4   5
ENDBRANCH   1   4
BRANCH   1  15
HETATM   15  C   UNL     1      26.436  44.379  50.226  1.00  0.00     0.271 C 
BRANCH  15  16
HETATM   16  C   UNL     1      25.948  45.765  49.919  1.00  0.00    -0.030 A 
HETATM   17  C   UNL     1      24.568  46.025  49.841  1.00  0.00     0.048 A 
HETATM   18  C   UNL     1      24.164  47.322  49.596  1.00  0.00     0.105 A 
HETATM   19  C   UNL     1      25.064  48.346  49.435  1.00  0.00     0.105 A 
HETATM   20  O   UNL     1      22.876  47.741  49.490  1.00  0.00    -0.323 OA
HETATM   21  O   UNL     1      24.456  49.538  49.204  1.00  0.00    -0.323 OA
HETATM   22  C   UNL     1      26.423  48.133  49.511  1.00  0.00     0.040 A 
HETATM   23  C   UNL     1      23.067  49.148  49.217  1.00  0.00     0.352 A 
HETATM   24  C   UNL     1      26.867  46.829  49.759  1.00  0.00     0.012 A 
ENDBRANCH  15  16
ENDBRANCH   1  15
TORSDOF 4
ENDMDL
MODEL 10
REMARK VINA RESULT:      -7.3     12.009     13.827
REMARK  4 active torsions:
REMARK  status: ('A' for Active; 'I' for Inactive)
REMARK    1  A    between atoms: C_8  and  C_9 
REMARK    2  A    between atoms: C_9  and  N_10 
REMARK    3  A    between atoms: N_10  and  C_13 
REMARK    4  A    between atoms: C_13  and  C_14 
ROOT
HETATM    1  N   UNL     1      30.494  47.683  40.967  1.00  0.00    -0.067 N 
HETATM    2  H   UNL     1      30.251  48.135  41.856  1.00  0.00     0.277 HD
HETATM    3  H   UNL     1      30.332  46.681  41.128  1.00  0.00     0.277 HD
ENDROOT
BRANCH   1   4
HETATM    4  C   UNL     1      29.546  48.154  39.926  1.00  0.00     0.273 C 
BRANCH   4   5
HETATM    5  C   UNL     1      28.785  49.317  40.445  1.00  0.00    -0.005 A 
HETATM    6  C   UNL     1      29.157  50.696  40.332  1.00  0.00    -0.000 A 
HETATM    7  C   UNL     1      30.260  51.378  39.775  1.00  0.00     0.014 A 
HETATM    8  C   UNL     1      28.145  51.448  40.928  1.00  0.00     0.043 A 
HETATM    9  C   UNL     1      30.305  52.776  39.832  1.00  0.00     0.001 A 
HETATM   10  C   UNL     1      29.277  53.497  40.432  1.00  0.00     0.002 A 
HETATM   11  C   UNL     1      28.176  52.846  40.994  1.00  0.00     0.030 A 
HETATM   12  N   UNL     1      27.202  50.567  41.402  1.00  0.00    -0.365 N 
HETATM   13  H   UNL     1      26.362  50.842  41.898  1.00  0.00     0.165 HD
HETATM   14  C   UNL     1      27.569  49.280  41.103  1.00  0.00     0.098 A 
ENDBRANCH   4   5
ENDBRANCH   1   4
BRANCH   1  15
HETATM   15  C   UNL     1      31.926  47.917  40.662  1.00  0.00     0.271 C 
BRANCH  15  16
HETATM   16  C   UNL     1      32.489  48.993  41.545  1.00  0.00    -0.030 A 
HETATM   17  C   UNL     1      33.788  49.482  41.319  1.00  0.00     0.048 A 
HETATM   18  C   UNL     1      34.250  50.498  42.130  1.00  0.00     0.105 A 
HETATM   19  C   UNL     1      33.480  51.037  43.131  1.00  0.00     0.105 A 
HETATM   20  O   UNL     1      35.474  51.081  42.047  1.00  0.00    -0.323 OA
HETATM   21  O   UNL     1      34.124  52.023  43.806  1.00  0.00    -0.323 OA
HETATM   22  C   UNL     1      32.201  50.590  43.379  1.00  0.00     0.040 A 
HETATM   23  C   UNL     1      35.399  52.035  43.131  1.00  0.00     0.352 A 
HETATM   24  C   UNL     1      31.700  49.560  42.575  1.00  0.00     0.012 A 
ENDBRANCH  15  16
ENDBRANCH   1  15
TORSDOF 4
ENDMDL
