MODEL 1
REMARK VINA RESULT:      -7.4      0.000      0.000
REMARK  6 active torsions:
REMARK  status: ('A' for Active; 'I' for Inactive)
REMARK    1  A    between atoms: C_6  and  C_7 
REMARK    2  A    between atoms: C_7  and  N_8 
REMARK    3  A    between atoms: C_7  and  C_24 
REMARK       I    between atoms: N_8  and  C_9 
REMARK       I    between atoms: C_9  and  N_10 
REMARK    4  A    between atoms: N_10  and  C_11 
REMARK    5  A    between atoms: C_14  and  C_15 
REMARK    6  A    between atoms: C_24  and  O_25 
ROOT
HETATM    1  N   UNL     1      24.092  48.199  50.167  1.00  0.00    -0.331 N 
HETATM    2  C   UNL     1      22.945  48.413  49.434  1.00  0.00     0.321 C 
HETATM    3  N   UNL     1      22.220  49.455  49.966  1.00  0.00    -0.309 N 
HETATM    4  O   UNL     1      22.659  47.741  48.454  1.00  0.00    -0.247 OA
HETATM    5  H   UNL     1      24.451  48.989  50.680  1.00  0.00     0.165 HD
HETATM    6  H   UNL     1      22.450  49.701  50.918  1.00  0.00     0.170 HD
ENDROOT
BRANCH   1   7
HETATM    7  C   UNL     1      25.061  47.191  49.766  1.00  0.00     0.161 C 
BRANCH   7   8
HETATM    8  C   UNL     1      24.978  46.123  50.818  1.00  0.00     0.056 A 
HETATM    9  N   UNL     1      24.289  44.945  50.648  1.00  0.00    -0.277 N 
HETATM   10  C   UNL     1      23.546  44.518  49.484  1.00  0.00     0.179 C 
HETATM   11  N   UNL     1      24.323  44.145  51.732  1.00  0.00    -0.185 NA
HETATM   12  C   UNL     1      25.081  44.811  52.601  1.00  0.00     0.141 A 
HETATM   13  C   UNL     1      25.510  46.048  52.094  1.00  0.00     0.050 A 
ENDBRANCH   7   8
BRANCH   7  14
HETATM   14  C   UNL     1      26.491  47.760  49.612  1.00  0.00     0.198 C 
BRANCH  14  15
HETATM   15  O   UNL     1      26.556  48.637  48.479  1.00  0.00    -0.394 OA
HETATM   16  C   UNL     1      27.301  49.811  48.773  1.00  0.00     0.201 C 
ENDBRANCH  14  15
ENDBRANCH   7  14
ENDBRANCH   1   7
BRANCH   3  17
HETATM   17  C   UNL     1      21.092  50.088  49.410  1.00  0.00     0.036 A 
HETATM   18  C   UNL     1      21.144  51.287  48.705  1.00  0.00     0.030 A 
HETATM   19  C   UNL     1      19.970  51.873  48.217  1.00  0.00     0.010 A 
HETATM   20  C   UNL     1      18.710  51.276  48.406  1.00  0.00    -0.054 A 
HETATM   21  C   UNL     1      18.674  50.082  49.135  1.00  0.00     0.010 A 
HETATM   22  C   UNL     1      19.847  49.495  49.626  1.00  0.00     0.030 A 
BRANCH  20  23
HETATM   23  C   UNL     1      17.465  51.985  47.872  1.00  0.00     0.018 C 
HETATM   24  C   UNL     1      17.455  52.092  46.331  1.00  0.00     0.009 C 
HETATM   25  C   UNL     1      17.058  50.783  45.652  1.00  0.00     0.001 C 
HETATM   26  C   UNL     1      15.689  50.311  46.126  1.00  0.00     0.000 C 
HETATM   27  C   UNL     1      15.640  50.175  47.643  1.00  0.00     0.001 C 
HETATM   28  C   UNL     1      16.097  51.452  48.354  1.00  0.00     0.009 C 
ENDBRANCH  20  23
ENDBRANCH   3  17
TORSDOF 6
ENDMDL
MODEL 2
REMARK VINA RESULT:      -7.3      2.775      9.704
REMARK  6 active torsions:
REMARK  status: ('A' for Active; 'I' for Inactive)
REMARK    1  A    between atoms: C_6  and  C_7 
REMARK    2  A    between atoms: C_7  and  N_8 
REMARK    3  A    between atoms: C_7  and  C_24 
REMARK       I    between atoms: N_8  and  C_9 
REMARK       I    between atoms: C_9  and  N_10 
REMARK    4  A    between atoms: N_10  and  C_11 
REMARK    5  A    between atoms: C_14  and  C_15 
REMARK    6  A    between atoms: C_24  and  O_25 
ROOT
HETATM    1  N   UNL     1      22.338  47.554  49.180  1.00  0.00    -0.331 N 
HETATM    2  C   UNL     1      23.519  47.368  49.864  1.00  0.00     0.321 C 
HETATM    3  N   UNL     1      23.824  46.029  49.945  1.00  0.00    -0.309 N 
HETATM    4  O   UNL     1      24.168  48.300  50.317  1.00  0.00    -0.247 OA
HETATM    5  H   UNL     1      22.079  46.832  48.526  1.00  0.00     0.165 HD
HETATM    6  H   UNL     1      23.054  45.398  49.775  1.00  0.00     0.170 HD
ENDROOT
BRANCH   1   7
HETATM    7  C   UNL     1      21.833  48.890  48.905  1.00  0.00     0.161 C 
BRANCH   7   8
HETATM    8  C   UNL     1      20.385  48.855  49.303  1.00  0.00     0.056 A 
HETATM    9  N   UNL     1      19.718  49.938  49.825  1.00  0.00    -0.277 N 
HETATM   10  C   UNL     1      20.245  51.259  50.080  1.00  0.00     0.179 C 
HETATM   11  N   UNL     1      18.434  49.674  50.139  1.00  0.00    -0.185 NA
HETATM   12  C   UNL     1      18.268  48.404  49.776  1.00  0.00     0.141 A 
HETATM   13  C   UNL     1      19.446  47.840  49.258  1.00  0.00     0.050 A 
ENDBRANCH   7   8
BRANCH   7  14
HETATM   14  C   UNL     1      22.031  49.316  47.432  1.00  0.00     0.198 C 
BRANCH  14  15
HETATM   15  O   UNL     1      23.283  49.997  47.277  1.00  0.00    -0.394 OA
HETATM   16  C   UNL     1      23.455  51.002  48.267  1.00  0.00     0.201 C 
ENDBRANCH  14  15
ENDBRANCH   7  14
ENDBRANCH   1   7
BRANCH   3  17
HETATM   17  C   UNL     1      25.022  45.447  50.404  1.00  0.00     0.036 A 
HETATM   18  C   UNL     1      25.917  44.766  49.586  1.00  0.00     0.030 A 
HETATM   19  C   UNL     1      27.068  44.180  50.128  1.00  0.00     0.010 A 
HETATM   20  C   UNL     1      27.367  44.268  51.501  1.00  0.00    -0.054 A 
HETATM   21  C   UNL     1      26.445  44.939  52.312  1.00  0.00     0.010 A 
HETATM   22  C   UNL     1      25.292  45.523  51.772  1.00  0.00     0.030 A 
BRANCH  20  23
HETATM   23  C   UNL     1      28.625  43.580  52.030  1.00  0.00     0.018 C 
HETATM   24  C   UNL     1      28.768  43.698  53.564  1.00  0.00     0.009 C 
HETATM   25  C   UNL     1      27.863  42.725  54.317  1.00  0.00     0.001 C 
HETATM   26  C   UNL     1      28.138  41.285  53.901  1.00  0.00     0.000 C 
HETATM   27  C   UNL     1      28.001  41.103  52.395  1.00  0.00     0.001 C 
HETATM   28  C   UNL     1      28.847  42.110  51.610  1.00  0.00     0.009 C 
ENDBRANCH  20  23
ENDBRANCH   3  17
TORSDOF 6
ENDMDL
MODEL 3
REMARK VINA RESULT:      -7.3      3.120      5.434
REMARK  6 active torsions:
REMARK  status: ('A' for Active; 'I' for Inactive)
REMARK    1  A    between atoms: C_6  and  C_7 
REMARK    2  A    between atoms: C_7  and  N_8 
REMARK    3  A    between atoms: C_7  and  C_24 
REMARK       I    between atoms: N_8  and  C_9 
REMARK       I    between atoms: C_9  and  N_10 
REMARK    4  A    between atoms: N_10  and  C_11 
REMARK    5  A    between atoms: C_14  and  C_15 
REMARK    6  A    between atoms: C_24  and  O_25 
ROOT
HETATM    1  N   UNL     1      26.379  43.914  50.916  1.00  0.00    -0.331 N 
HETATM    2  C   UNL     1      25.213  44.646  50.917  1.00  0.00     0.321 C 
HETATM    3  N   UNL     1      25.270  45.647  49.974  1.00  0.00    -0.309 N 
HETATM    4  O   UNL     1      24.285  44.398  51.673  1.00  0.00    -0.247 OA
HETATM    5  H   UNL     1      26.906  43.908  50.056  1.00  0.00     0.165 HD
HETATM    6  H   UNL     1      26.196  45.883  49.649  1.00  0.00     0.170 HD
ENDROOT
BRANCH   1   7
HETATM    7  C   UNL     1      26.539  42.756  51.781  1.00  0.00     0.161 C 
BRANCH   7   8
HETATM    8  C   UNL     1      27.666  43.107  52.709  1.00  0.00     0.056 A 
HETATM    9  N   UNL     1      27.475  43.597  53.980  1.00  0.00    -0.277 N 
HETATM   10  C   UNL     1      26.219  43.856  54.645  1.00  0.00     0.179 C 
HETATM   11  N   UNL     1      28.626  43.873  54.624  1.00  0.00    -0.185 NA
HETATM   12  C   UNL     1      29.573  43.518  53.759  1.00  0.00     0.141 A 
HETATM   13  C   UNL     1      29.039  43.043  52.550  1.00  0.00     0.050 A 
ENDBRANCH   7   8
BRANCH   7  14
HETATM   14  C   UNL     1      26.806  41.450  50.995  1.00  0.00     0.198 C 
BRANCH  14  15
HETATM   15  O   UNL     1      25.571  40.890  50.531  1.00  0.00    -0.394 OA
HETATM   16  C   UNL     1      25.523  40.839  49.111  1.00  0.00     0.201 C 
ENDBRANCH  14  15
ENDBRANCH   7  14
ENDBRANCH   1   7
BRANCH   3  17
HETATM   17  C   UNL     1      24.224  46.488  49.550  1.00  0.00     0.036 A 
HETATM   18  C   UNL     1      23.108  46.045  48.846  1.00  0.00     0.030 A 
HETATM   19  C   UNL     1      22.130  46.953  48.425  1.00  0.00     0.010 A 
HETATM   20  C   UNL     1      22.227  48.329  48.704  1.00  0.00    -0.054 A 
HETATM   21  C   UNL     1      23.365  48.761  49.395  1.00  0.00     0.010 A 
HETATM   22  C   UNL     1      24.346  47.854  49.815  1.00  0.00     0.030 A 
BRANCH  20  23
HETATM   23  C   UNL     1      21.136  49.269  48.189  1.00  0.00     0.018 C 
HETATM   24  C   UNL     1      19.712  48.724  48.438  1.00  0.00     0.009 C 
HETATM   25  C   UNL     1      19.254  48.908  49.883  1.00  0.00     0.001 C 
HETATM   26  C   UNL     1      19.303  50.375  50.292  1.00  0.00     0.000 C 
HETATM   27  C   UNL     1      20.690  50.968  50.079  1.00  0.00     0.001 C 
HETATM   28  C   UNL     1      21.206  50.741  48.655  1.00  0.00     0.009 C 
ENDBRANCH  20  23
ENDBRANCH   3  17
TORSDOF 6
ENDMDL
MODEL 4
REMARK VINA RESULT:      -7.1      2.641      4.701
REMARK  6 active torsions:
REMARK  status: ('A' for Active; 'I' for Inactive)
REMARK    1  A    between atoms: C_6  and  C_7 
REMARK    2  A    between atoms: C_7  and  N_8 
REMARK    3  A    between atoms: C_7  and  C_24 
REMARK       I    between atoms: N_8  and  C_9 
REMARK       I    between atoms: C_9  and  N_10 
REMARK    4  A    between atoms: N_10  and  C_11 
REMARK    5  A    between atoms: C_14  and  C_15 
REMARK    6  A    between atoms: C_24  and  O_25 
ROOT
HETATM    1  N   UNL     1      21.477  49.440  48.441  1.00  0.00    -0.331 N 
HETATM    2  C   UNL     1      20.289  49.752  49.062  1.00  0.00     0.321 C 
HETATM    3  N   UNL     1      19.670  50.801  48.421  1.00  0.00    -0.309 N 
HETATM    4  O   UNL     1      19.886  49.149  50.046  1.00  0.00    -0.247 OA
HETATM    5  H   UNL     1      21.553  49.684  47.465  1.00  0.00     0.165 HD
HETATM    6  H   UNL     1      20.264  51.352  47.820  1.00  0.00     0.170 HD
ENDROOT
BRANCH   1   7
HETATM    7  C   UNL     1      22.289  48.321  48.892  1.00  0.00     0.161 C 
BRANCH   7   8
HETATM    8  C   UNL     1      23.709  48.799  48.802  1.00  0.00     0.056 A 
HETATM    9  N   UNL     1      24.738  48.261  49.539  1.00  0.00    -0.277 N 
HETATM   10  C   UNL     1      24.665  47.181  50.497  1.00  0.00     0.179 C 
HETATM   11  N   UNL     1      25.923  48.864  49.321  1.00  0.00    -0.185 NA
HETATM   12  C   UNL     1      25.652  49.784  48.398  1.00  0.00     0.141 A 
HETATM   13  C   UNL     1      24.294  49.798  48.042  1.00  0.00     0.050 A 
ENDBRANCH   7   8
BRANCH   7  14
HETATM   14  C   UNL     1      22.046  47.032  48.072  1.00  0.00     0.198 C 
BRANCH  14  15
HETATM   15  O   UNL     1      21.664  47.362  46.730  1.00  0.00    -0.394 OA
HETATM   16  C   UNL     1      21.012  46.273  46.091  1.00  0.00     0.201 C 
ENDBRANCH  14  15
ENDBRANCH   7  14
ENDBRANCH   1   7
BRANCH   3  17
HETATM   17  C   UNL     1      18.369  51.294  48.640  1.00  0.00     0.036 A 
HETATM   18  C   UNL     1      17.240  50.831  47.972  1.00  0.00     0.030 A 
HETATM   19  C   UNL     1      15.986  51.403  48.219  1.00  0.00     0.010 A 
HETATM   20  C   UNL     1      15.818  52.445  49.149  1.00  0.00    -0.054 A 
HETATM   21  C   UNL     1      16.967  52.913  49.797  1.00  0.00     0.010 A 
HETATM   22  C   UNL     1      18.223  52.344  49.550  1.00  0.00     0.030 A 
BRANCH  20  23
HETATM   23  C   UNL     1      14.425  53.043  49.348  1.00  0.00     0.018 C 
HETATM   24  C   UNL     1      14.024  53.139  50.837  1.00  0.00     0.009 C 
HETATM   25  C   UNL     1      14.684  54.318  51.550  1.00  0.00     0.001 C 
HETATM   26  C   UNL     1      14.350  55.634  50.860  1.00  0.00     0.000 C 
HETATM   27  C   UNL     1      14.733  55.605  49.386  1.00  0.00     0.001 C 
HETATM   28  C   UNL     1      14.141  54.396  48.656  1.00  0.00     0.009 C 
ENDBRANCH  20  23
ENDBRANCH   3  17
TORSDOF 6
ENDMDL
MODEL 5
REMARK VINA RESULT:      -7.0     11.218     16.384
REMARK  6 active torsions:
REMARK  status: ('A' for Active; 'I' for Inactive)
REMARK    1  A    between atoms: C_6  and  C_7 
REMARK    2  A    between atoms: C_7  and  N_8 
REMARK    3  A    between atoms: C_7  and  C_24 
REMARK       I    between atoms: N_8  and  C_9 
REMARK       I    between atoms: C_9  and  N_10 
REMARK    4  A    between atoms: N_10  and  C_11 
REMARK    5  A    between atoms: C_14  and  C_15 
REMARK    6  A    between atoms: C_24  and  O_25 
ROOT
HETATM    1  N   UNL     1      32.207  50.255  41.085  1.00  0.00    -0.331 N 
HETATM    2  C   UNL     1      33.090  51.219  41.519  1.00  0.00     0.321 C 
HETATM    3  N   UNL     1      34.088  50.652  42.279  1.00  0.00    -0.309 N 
HETATM    4  O   UNL     1      32.959  52.401  41.239  1.00  0.00    -0.247 OA
HETATM    5  H   UNL     1      32.566  49.316  41.012  1.00  0.00     0.165 HD
HETATM    6  H   UNL     1      33.886  49.731  42.640  1.00  0.00     0.170 HD
ENDROOT
BRANCH   1   7
HETATM    7  C   UNL     1      31.098  50.595  40.208  1.00  0.00     0.161 C 
BRANCH   7   8
HETATM    8  C   UNL     1      29.883  49.993  40.855  1.00  0.00     0.056 A 
HETATM    9  N   UNL     1      28.856  50.742  41.380  1.00  0.00    -0.277 N 
HETATM   10  C   UNL     1      28.742  52.183  41.411  1.00  0.00     0.179 C 
HETATM   11  N   UNL     1      27.882  49.996  41.938  1.00  0.00    -0.185 NA
HETATM   12  C   UNL     1      28.279  48.742  41.733  1.00  0.00     0.141 A 
HETATM   13  C   UNL     1      29.517  48.677  41.073  1.00  0.00     0.050 A 
ENDBRANCH   7   8
BRANCH   7  14
HETATM   14  C   UNL     1      31.303  50.097  38.758  1.00  0.00     0.198 C 
BRANCH  14  15
HETATM   15  O   UNL     1      30.163  50.426  37.954  1.00  0.00    -0.394 OA
HETATM   16  C   UNL     1      30.094  51.822  37.695  1.00  0.00     0.201 C 
ENDBRANCH  14  15
ENDBRANCH   7  14
ENDBRANCH   1   7
BRANCH   3  17
HETATM   17  C   UNL     1      35.262  51.268  42.751  1.00  0.00     0.036 A 
HETATM   18  C   UNL     1      36.533  51.002  42.251  1.00  0.00     0.030 A 
HETATM   19  C   UNL     1      37.657  51.628  42.804  1.00  0.00     0.010 A 
HETATM   20  C   UNL     1      37.547  52.548  43.863  1.00  0.00    -0.054 A 
HETATM   21  C   UNL     1      36.264  52.787  44.368  1.00  0.00     0.010 A 
HETATM   22  C   UNL     1      35.138  52.160  43.818  1.00  0.00     0.030 A 
BRANCH  20  23
HETATM   23  C   UNL     1      38.818  53.172  44.438  1.00  0.00     0.018 C 
HETATM   24  C   UNL     1      38.759  54.716  44.479  1.00  0.00     0.009 C 
HETATM   25  C   UNL     1      37.918  55.243  45.639  1.00  0.00     0.001 C 
HETATM   26  C   UNL     1      38.444  54.731  46.975  1.00  0.00     0.000 C 
HETATM   27  C   UNL     1      38.515  53.210  47.001  1.00  0.00     0.001 C 
HETATM   28  C   UNL     1      39.296  52.646  45.810  1.00  0.00     0.009 C 
ENDBRANCH  20  23
ENDBRANCH   3  17
TORSDOF 6
ENDMDL
MODEL 6
REMARK VINA RESULT:      -6.9      2.737      4.324
REMARK  6 active torsions:
REMARK  status: ('A' for Active; 'I' for Inactive)
REMARK    1  A    between atoms: C_6  and  C_7 
REMARK    2  A    between atoms: C_7  and  N_8 
REMARK    3  A    between atoms: C_7  and  C_24 
REMARK       I    between atoms: N_8  and  C_9 
REMARK       I    between atoms: C_9  and  N_10 
REMARK    4  A    between atoms: N_10  and  C_11 
REMARK    5  A    between atoms: C_14  and  C_15 
REMARK    6  A    between atoms: C_24  and  O_25 
ROOT
HETATM    1  N   UNL     1      25.714  45.396  51.009  1.00  0.00    -0.331 N 
HETATM    2  C   UNL     1      25.033  46.583  50.848  1.00  0.00     0.321 C 
HETATM    3  N   UNL     1      24.487  46.659  49.587  1.00  0.00    -0.309 N 
HETATM    4  O   UNL     1      24.955  47.418  51.737  1.00  0.00    -0.247 OA
HETATM    5  H   UNL     1      25.421  44.627  50.427  1.00  0.00     0.165 HD
HETATM    6  H   UNL     1      24.883  46.028  48.906  1.00  0.00     0.170 HD
ENDROOT
BRANCH   1   7
HETATM    7  C   UNL     1      26.327  45.049  52.281  1.00  0.00     0.161 C 
BRANCH   7   8
HETATM    8  C   UNL     1      27.134  43.813  52.008  1.00  0.00     0.056 A 
HETATM    9  N   UNL     1      28.268  43.478  52.711  1.00  0.00    -0.277 N 
HETATM   10  C   UNL     1      28.877  44.207  53.799  1.00  0.00     0.179 C 
HETATM   11  N   UNL     1      28.849  42.342  52.277  1.00  0.00    -0.185 NA
HETATM   12  C   UNL     1      28.050  41.924  51.298  1.00  0.00     0.141 A 
HETATM   13  C   UNL     1      26.974  42.799  51.079  1.00  0.00     0.050 A 
ENDBRANCH   7   8
BRANCH   7  14
HETATM   14  C   UNL     1      25.291  44.841  53.411  1.00  0.00     0.198 C 
BRANCH  14  15
HETATM   15  O   UNL     1      25.812  45.322  54.656  1.00  0.00    -0.394 OA
HETATM   16  C   UNL     1      26.264  46.665  54.547  1.00  0.00     0.201 C 
ENDBRANCH  14  15
ENDBRANCH   7  14
ENDBRANCH   1   7
BRANCH   3  17
HETATM   17  C   UNL     1      23.581  47.621  49.101  1.00  0.00     0.036 A 
HETATM   18  C   UNL     1      23.811  48.992  49.137  1.00  0.00     0.030 A 
HETATM   19  C   UNL     1      22.840  49.886  48.669  1.00  0.00     0.010 A 
HETATM   20  C   UNL     1      21.616  49.439  48.138  1.00  0.00    -0.054 A 
HETATM   21  C   UNL     1      21.393  48.058  48.128  1.00  0.00     0.010 A 
HETATM   22  C   UNL     1      22.362  47.161  48.598  1.00  0.00     0.030 A 
BRANCH  20  23
HETATM   23  C   UNL     1      20.589  50.471  47.672  1.00  0.00     0.018 C 
HETATM   24  C   UNL     1      19.199  49.852  47.408  1.00  0.00     0.009 C 
HETATM   25  C   UNL     1      18.418  49.586  48.693  1.00  0.00     0.001 C 
HETATM   26  C   UNL     1      18.247  50.864  49.506  1.00  0.00     0.000 C 
HETATM   27  C   UNL     1      19.589  51.518  49.808  1.00  0.00     0.001 C 
HETATM   28  C   UNL     1      20.426  51.736  48.544  1.00  0.00     0.009 C 
ENDBRANCH  20  23
ENDBRANCH   3  17
TORSDOF 6
ENDMDL
MODEL 7
REMARK VINA RESULT:      -6.9     11.372     16.403
REMARK  6 active torsions:
REMARK  status: ('A' for Active; 'I' for Inactive)
REMARK    1  A    between atoms: C_6  and  C_7 
REMARK    2  A    between atoms: C_7  and  N_8 
REMARK    3  A    between atoms: C_7  and  C_24 
REMARK       I    between atoms: N_8  and  C_9 
REMARK       I    between atoms: C_9  and  N_10 
REMARK    4  A    between atoms: N_10  and  C_11 
REMARK    5  A    between atoms: C_14  and  C_15 
REMARK    6  A    between atoms: C_24  and  O_25 
ROOT
HETATM    1  N   UNL     1      31.750  50.534  40.778  1.00  0.00    -0.331 N 
HETATM    2  C   UNL     1      32.705  51.414  41.236  1.00  0.00     0.321 C 
HETATM    3  N   UNL     1      33.476  50.825  42.212  1.00  0.00    -0.309 N 
HETATM    4  O   UNL     1      32.809  52.552  40.802  1.00  0.00    -0.247 OA
HETATM    5  H   UNL     1      31.959  49.553  40.876  1.00  0.00     0.165 HD
HETATM    6  H   UNL     1      33.078  50.002  42.640  1.00  0.00     0.170 HD
ENDROOT
BRANCH   1   7
HETATM    7  C   UNL     1      30.850  50.900  39.696  1.00  0.00     0.161 C 
BRANCH   7   8
HETATM    8  C   UNL     1      29.518  51.131  40.349  1.00  0.00     0.056 A 
HETATM    9  N   UNL     1      28.962  52.378  40.514  1.00  0.00    -0.277 N 
HETATM   10  C   UNL     1      29.516  53.651  40.109  1.00  0.00     0.179 C 
HETATM   11  N   UNL     1      27.776  52.354  41.153  1.00  0.00    -0.185 NA
HETATM   12  C   UNL     1      27.552  51.060  41.369  1.00  0.00     0.141 A 
HETATM   13  C   UNL     1      28.602  50.253  40.901  1.00  0.00     0.050 A 
ENDBRANCH   7   8
BRANCH   7  14
HETATM   14  C   UNL     1      30.783  49.830  38.581  1.00  0.00     0.198 C 
BRANCH  14  15
HETATM   15  O   UNL     1      31.187  48.553  39.094  1.00  0.00    -0.394 OA
HETATM   16  C   UNL     1      30.235  47.544  38.785  1.00  0.00     0.201 C 
ENDBRANCH  14  15
ENDBRANCH   7  14
ENDBRANCH   1   7
BRANCH   3  17
HETATM   17  C   UNL     1      34.653  51.329  42.797  1.00  0.00     0.036 A 
HETATM   18  C   UNL     1      34.675  52.120  43.941  1.00  0.00     0.030 A 
HETATM   19  C   UNL     1      35.887  52.616  44.437  1.00  0.00     0.010 A 
HETATM   20  C   UNL     1      37.115  52.327  43.814  1.00  0.00    -0.054 A 
HETATM   21  C   UNL     1      37.074  51.547  42.653  1.00  0.00     0.010 A 
HETATM   22  C   UNL     1      35.862  51.052  42.154  1.00  0.00     0.030 A 
BRANCH  20  23
HETATM   23  C   UNL     1      38.398  52.925  44.392  1.00  0.00     0.018 C 
HETATM   24  C   UNL     1      39.031  53.988  43.467  1.00  0.00     0.009 C 
HETATM   25  C   UNL     1      38.314  55.334  43.540  1.00  0.00     0.001 C 
HETATM   26  C   UNL     1      38.291  55.868  44.967  1.00  0.00     0.000 C 
HETATM   27  C   UNL     1      37.667  54.865  45.929  1.00  0.00     0.001 C 
HETATM   28  C   UNL     1      38.321  53.484  45.831  1.00  0.00     0.009 C 
ENDBRANCH  20  23
ENDBRANCH   3  17
TORSDOF 6
ENDMDL
MODEL 8
REMARK VINA RESULT:      -6.6      8.349     11.880
REMARK  6 active torsions:
REMARK  status: ('A' for Active; 'I' for Inactive)
REMARK    1  A    between atoms: C_6  and  C_7 
REMARK    2  A    between atoms: C_7  and  N_8 
REMARK    3  A    between atoms: C_7  and  C_24 
REMARK       I    between atoms: N_8  and  C_9 
REMARK       I    between atoms: C_9  and  N_10 
REMARK    4  A    between atoms: N_10  and  C_11 
REMARK    5  A    between atoms: C_14  and  C_15 
REMARK    6  A    between atoms: C_24  and  O_25 
ROOT
HETATM    1  N   UNL     1      27.469  42.239  53.245  1.00  0.00    -0.331 N 
HETATM    2  C   UNL     1      27.589  42.112  51.879  1.00  0.00     0.321 C 
HETATM    3  N   UNL     1      27.607  40.783  51.518  1.00  0.00    -0.309 N 
HETATM    4  O   UNL     1      27.667  43.078  51.135  1.00  0.00    -0.247 OA
HETATM    5  H   UNL     1      27.031  41.473  53.731  1.00  0.00     0.165 HD
HETATM    6  H   UNL     1      27.819  40.136  52.262  1.00  0.00     0.170 HD
ENDROOT
BRANCH   1   7
HETATM    7  C   UNL     1      27.362  43.548  53.870  1.00  0.00     0.161 C 
BRANCH   7   8
HETATM    8  C   UNL     1      28.669  43.757  54.579  1.00  0.00     0.056 A 
HETATM    9  N   UNL     1      29.044  44.956  55.137  1.00  0.00    -0.277 N 
HETATM   10  C   UNL     1      28.295  46.192  55.157  1.00  0.00     0.179 C 
HETATM   11  N   UNL     1      30.270  44.925  55.696  1.00  0.00    -0.185 NA
HETATM   12  C   UNL     1      30.672  43.668  55.521  1.00  0.00     0.141 A 
HETATM   13  C   UNL     1      29.725  42.898  54.827  1.00  0.00     0.050 A 
ENDBRANCH   7   8
BRANCH   7  14
HETATM   14  C   UNL     1      26.148  43.663  54.821  1.00  0.00     0.198 C 
BRANCH  14  15
HETATM   15  O   UNL     1      24.983  44.073  54.093  1.00  0.00    -0.394 OA
HETATM   16  C   UNL     1      25.292  45.084  53.143  1.00  0.00     0.201 C 
ENDBRANCH  14  15
ENDBRANCH   7  14
ENDBRANCH   1   7
BRANCH   3  17
HETATM   17  C   UNL     1      27.540  40.246  50.219  1.00  0.00     0.036 A 
HETATM   18  C   UNL     1      28.644  40.089  49.386  1.00  0.00     0.030 A 
HETATM   19  C   UNL     1      28.487  39.583  48.090  1.00  0.00     0.010 A 
HETATM   20  C   UNL     1      27.228  39.206  47.589  1.00  0.00    -0.054 A 
HETATM   21  C   UNL     1      26.126  39.391  48.432  1.00  0.00     0.010 A 
HETATM   22  C   UNL     1      26.280  39.899  49.728  1.00  0.00     0.030 A 
BRANCH  20  23
HETATM   23  C   UNL     1      27.125  38.688  46.154  1.00  0.00     0.018 C 
HETATM   24  C   UNL     1      28.445  38.064  45.649  1.00  0.00     0.009 C 
HETATM   25  C   UNL     1      28.675  36.655  46.192  1.00  0.00     0.001 C 
HETATM   26  C   UNL     1      27.518  35.731  45.830  1.00  0.00     0.000 C 
HETATM   27  C   UNL     1      26.186  36.290  46.313  1.00  0.00     0.001 C 
HETATM   28  C   UNL     1      25.955  37.728  45.841  1.00  0.00     0.009 C 
ENDBRANCH  20  23
ENDBRANCH   3  17
TORSDOF 6
ENDMDL
MODEL 9
REMARK VINA RESULT:      -6.2     23.492     27.289
REMARK  6 active torsions:
REMARK  status: ('A' for Active; 'I' for Inactive)
REMARK    1  A    between atoms: C_6  and  C_7 
REMARK    2  A    between atoms: C_7  and  N_8 
REMARK    3  A    between atoms: C_7  and  C_24 
REMARK       I    between atoms: N_8  and  C_9 
REMARK       I    between atoms: C_9  and  N_10 
REMARK    4  A    between atoms: N_10  and  C_11 
REMARK    5  A    between atoms: C_14  and  C_15 
REMARK    6  A    between atoms: C_24  and  O_25 
ROOT
HETATM    1  N   UNL     1      41.547  35.988  65.457  1.00  0.00    -0.331 N 
HETATM    2  C   UNL     1      40.931  37.219  65.522  1.00  0.00     0.321 C 
HETATM    3  N   UNL     1      41.165  37.937  64.372  1.00  0.00    -0.309 N 
HETATM    4  O   UNL     1      40.278  37.574  66.493  1.00  0.00    -0.247 OA
HETATM    5  H   UNL     1      41.716  35.618  64.535  1.00  0.00     0.165 HD
HETATM    6  H   UNL     1      41.942  37.617  63.813  1.00  0.00     0.170 HD
ENDROOT
BRANCH   1   7
HETATM    7  C   UNL     1      41.394  35.015  66.527  1.00  0.00     0.161 C 
BRANCH   7   8
HETATM    8  C   UNL     1      42.761  34.873  67.131  1.00  0.00     0.056 A 
HETATM    9  N   UNL     1      43.141  35.491  68.299  1.00  0.00    -0.277 N 
HETATM   10  C   UNL     1      42.343  36.355  69.139  1.00  0.00     0.179 C 
HETATM   11  N   UNL     1      44.422  35.249  68.639  1.00  0.00    -0.185 NA
HETATM   12  C   UNL     1      44.860  34.428  67.686  1.00  0.00     0.141 A 
HETATM   13  C   UNL     1      43.877  34.165  66.719  1.00  0.00     0.050 A 
ENDBRANCH   7   8
BRANCH   7  14
HETATM   14  C   UNL     1      40.821  33.665  66.036  1.00  0.00     0.198 C 
BRANCH  14  15
HETATM   15  O   UNL     1      39.437  33.810  65.690  1.00  0.00    -0.394 OA
HETATM   16  C   UNL     1      38.684  34.347  66.769  1.00  0.00     0.201 C 
ENDBRANCH  14  15
ENDBRANCH   7  14
ENDBRANCH   1   7
BRANCH   3  17
HETATM   17  C   UNL     1      40.570  39.152  63.982  1.00  0.00     0.036 A 
HETATM   18  C   UNL     1      39.685  39.276  62.916  1.00  0.00     0.030 A 
HETATM   19  C   UNL     1      39.167  40.530  62.567  1.00  0.00     0.010 A 
HETATM   20  C   UNL     1      39.506  41.695  63.280  1.00  0.00    -0.054 A 
HETATM   21  C   UNL     1      40.413  41.555  64.336  1.00  0.00     0.010 A 
HETATM   22  C   UNL     1      40.934  40.302  64.685  1.00  0.00     0.030 A 
BRANCH  20  23
HETATM   23  C   UNL     1      38.926  43.035  62.827  1.00  0.00     0.018 C 
HETATM   24  C   UNL     1      37.427  43.184  63.169  1.00  0.00     0.009 C 
HETATM   25  C   UNL     1      37.189  43.524  64.639  1.00  0.00     0.001 C 
HETATM   26  C   UNL     1      37.918  44.803  65.031  1.00  0.00     0.000 C 
HETATM   27  C   UNL     1      39.408  44.714  64.727  1.00  0.00     0.001 C 
HETATM   28  C   UNL     1      39.679  44.308  63.275  1.00  0.00     0.009 C 
ENDBRANCH  20  23
ENDBRANCH   3  17
TORSDOF 6
ENDMDL
MODEL 10
REMARK VINA RESULT:      -6.1     12.675     15.817
REMARK  6 active torsions:
REMARK  status: ('A' for Active; 'I' for Inactive)
REMARK    1  A    between atoms: C_6  and  C_7 
REMARK    2  A    between atoms: C_7  and  N_8 
REMARK    3  A    between atoms: C_7  and  C_24 
REMARK       I    between atoms: N_8  and  C_9 
REMARK       I    between atoms: C_9  and  N_10 
REMARK    4  A    between atoms: N_10  and  C_11 
REMARK    5  A    between atoms: C_14  and  C_15 
REMARK    6  A    between atoms: C_24  and  O_25 
ROOT
HETATM    1  N   UNL     1      37.369  52.445  42.979  1.00  0.00    -0.331 N 
HETATM    2  C   UNL     1      36.000  52.310  42.909  1.00  0.00     0.321 C 
HETATM    3  N   UNL     1      35.608  52.026  41.621  1.00  0.00    -0.309 N 
HETATM    4  O   UNL     1      35.279  52.436  43.888  1.00  0.00    -0.247 OA
HETATM    5  H   UNL     1      37.904  51.963  42.274  1.00  0.00     0.165 HD
HETATM    6  H   UNL     1      36.287  52.239  40.905  1.00  0.00     0.170 HD
ENDROOT
BRANCH   1   7
HETATM    7  C   UNL     1      38.036  52.683  44.249  1.00  0.00     0.161 C 
BRANCH   7   8
HETATM    8  C   UNL     1      38.138  54.176  44.369  1.00  0.00     0.056 A 
HETATM    9  N   UNL     1      38.182  54.837  45.574  1.00  0.00    -0.277 N 
HETATM   10  C   UNL     1      38.143  54.261  46.898  1.00  0.00     0.179 C 
HETATM   11  N   UNL     1      38.243  56.178  45.445  1.00  0.00    -0.185 NA
HETATM   12  C   UNL     1      38.276  56.374  44.129  1.00  0.00     0.141 A 
HETATM   13  C   UNL     1      38.205  55.171  43.409  1.00  0.00     0.050 A 
ENDBRANCH   7   8
BRANCH   7  14
HETATM   14  C   UNL     1      39.413  51.986  44.345  1.00  0.00     0.198 C 
BRANCH  14  15
HETATM   15  O   UNL     1      39.490  51.202  45.543  1.00  0.00    -0.394 OA
HETATM   16  C   UNL     1      40.756  50.569  45.671  1.00  0.00     0.201 C 
ENDBRANCH  14  15
ENDBRANCH   7  14
ENDBRANCH   1   7
BRANCH   3  17
HETATM   17  C   UNL     1      34.326  51.647  41.177  1.00  0.00     0.036 A 
HETATM   18  C   UNL     1      33.587  50.609  41.737  1.00  0.00     0.030 A 
HETATM   19  C   UNL     1      32.335  50.268  41.210  1.00  0.00     0.010 A 
HETATM   20  C   UNL     1      31.777  50.959  40.119  1.00  0.00    -0.054 A 
HETATM   21  C   UNL     1      32.543  51.986  39.556  1.00  0.00     0.010 A 
HETATM   22  C   UNL     1      33.797  52.327  40.079  1.00  0.00     0.030 A 
BRANCH  20  23
HETATM   23  C   UNL     1      30.418  50.515  39.577  1.00  0.00     0.018 C 
HETATM   24  C   UNL     1      29.454  50.051  40.691  1.00  0.00     0.009 C 
HETATM   25  C   UNL     1      28.823  51.217  41.449  1.00  0.00     0.001 C 
HETATM   26  C   UNL     1      28.076  52.148  40.502  1.00  0.00     0.000 C 
HETATM   27  C   UNL     1      28.980  52.650  39.383  1.00  0.00     0.001 C 
HETATM   28  C   UNL     1      29.681  51.504  38.646  1.00  0.00     0.009 C 
ENDBRANCH  20  23
ENDBRANCH   3  17
TORSDOF 6
ENDMDL
