MODEL 1
REMARK VINA RESULT:      -9.8      0.000      0.000
REMARK  7 active torsions:
REMARK  status: ('A' for Active; 'I' for Inactive)
REMARK    1  A    between atoms: C_5  and  C_6 
REMARK    2  A    between atoms: C_9  and  C_10 
REMARK       I    between atoms: C_10  and  N_11 
REMARK    3  A    between atoms: N_11  and  N_12 
REMARK       I    between atoms: N_12  and  C_13 
REMARK    4  A    between atoms: C_13  and  C_14 
REMARK    5  A    between atoms: C_14  and  N_15 
REMARK    6  A    between atoms: N_15  and  C_16 
REMARK    7  A    between atoms: C_18  and  O_19 
ROOT
HETATM    1  C   UNL     1      25.074  44.890  51.552  1.00  0.00     0.289 C 
HETATM    2  N   UNL     1      25.087  46.127  50.935  1.00  0.00    -0.262 N 
HETATM    3  O   UNL     1      24.045  44.237  51.721  1.00  0.00    -0.264 OA
HETATM    4  H   UNL     1      25.980  46.495  50.609  1.00  0.00     0.190 HD
ENDROOT
BRANCH   2   5
HETATM    5  N   UNL     1      23.920  46.549  50.276  1.00  0.00    -0.266 N 
HETATM    6  C   UNL     1      23.971  47.749  49.586  1.00  0.00     0.253 C 
HETATM    7  O   UNL     1      24.885  48.565  49.717  1.00  0.00    -0.270 OA
HETATM    8  H   UNL     1      23.324  45.796  49.939  1.00  0.00     0.190 HD
BRANCH   6   9
HETATM    9  C   UNL     1      22.765  47.995  48.670  1.00  0.00     0.224 C 
BRANCH   9  10
HETATM   10  N   UNL     1      21.588  48.282  49.490  1.00  0.00    -0.381 N 
HETATM   11  H   UNL     1      21.731  47.997  50.461  1.00  0.00     0.160 HD
BRANCH  10  12
HETATM   12  C   UNL     1      20.922  49.503  49.376  1.00  0.00     0.030 A 
HETATM   13  C   UNL     1      19.640  49.615  49.943  1.00  0.00     0.065 A 
HETATM   14  C   UNL     1      18.872  50.774  49.796  1.00  0.00     0.070 A 
HETATM   15  C   UNL     1      19.378  51.835  49.047  1.00  0.00     0.037 A 
HETATM   16  C   UNL     1      20.630  51.733  48.445  1.00  0.00     0.005 A 
HETATM   17  C   UNL     1      21.388  50.569  48.599  1.00  0.00     0.029 A 
BRANCH  14  18
HETATM   18  O   UNL     1      17.624  50.986  50.317  1.00  0.00    -0.356 OA
HETATM   19  C   UNL     1      16.941  52.156  49.885  1.00  0.00     0.210 C 
ENDBRANCH  14  18
ENDBRANCH  10  12
ENDBRANCH   9  10
ENDBRANCH   6   9
ENDBRANCH   2   5
BRANCH   1  20
HETATM   20  C   UNL     1      26.397  44.442  51.984  1.00  0.00     0.134 A 
HETATM   21  C   UNL     1      27.191  43.581  51.256  1.00  0.00     0.089 A 
HETATM   22  S   UNL     1      28.645  43.268  52.095  1.00  0.00    -0.079 SA
HETATM   23  C   UNL     1      28.125  44.275  53.398  1.00  0.00     0.108 A 
HETATM   24  N   UNL     1      26.954  44.857  53.196  1.00  0.00    -0.235 NA
BRANCH  23  25
HETATM   25  C   UNL     1      28.938  44.454  54.620  1.00  0.00    -0.000 A 
HETATM   26  C   UNL     1      28.768  45.527  55.509  1.00  0.00     0.015 A 
HETATM   27  C   UNL     1      29.585  45.668  56.639  1.00  0.00     0.007 A 
HETATM   28  C   UNL     1      30.599  44.744  56.903  1.00  0.00    -0.062 A 
HETATM   29  C   UNL     1      31.474  44.885  58.112  1.00  0.00     0.048 C 
HETATM   30  C   UNL     1      30.771  43.666  56.032  1.00  0.00     0.007 A 
HETATM   31  C   UNL     1      29.955  43.527  54.905  1.00  0.00     0.015 A 
ENDBRANCH  23  25
ENDBRANCH   1  20
TORSDOF 7
ENDMDL
MODEL 2
REMARK VINA RESULT:      -9.6      1.253      1.432
REMARK  7 active torsions:
REMARK  status: ('A' for Active; 'I' for Inactive)
REMARK    1  A    between atoms: C_5  and  C_6 
REMARK    2  A    between atoms: C_9  and  C_10 
REMARK       I    between atoms: C_10  and  N_11 
REMARK    3  A    between atoms: N_11  and  N_12 
REMARK       I    between atoms: N_12  and  C_13 
REMARK    4  A    between atoms: C_13  and  C_14 
REMARK    5  A    between atoms: C_14  and  N_15 
REMARK    6  A    between atoms: N_15  and  C_16 
REMARK    7  A    between atoms: C_18  and  O_19 
ROOT
HETATM    1  C   UNL     1      25.075  46.346  51.206  1.00  0.00     0.289 C 
HETATM    2  N   UNL     1      24.373  46.017  50.061  1.00  0.00    -0.262 N 
HETATM    3  O   UNL     1      24.996  47.447  51.746  1.00  0.00    -0.264 OA
HETATM    4  H   UNL     1      24.290  45.032  49.811  1.00  0.00     0.190 HD
ENDROOT
BRANCH   2   5
HETATM    5  N   UNL     1      23.361  46.893  49.633  1.00  0.00    -0.266 N 
HETATM    6  C   UNL     1      22.562  46.484  48.578  1.00  0.00     0.253 C 
HETATM    7  O   UNL     1      22.837  45.525  47.855  1.00  0.00    -0.270 OA
HETATM    8  H   UNL     1      22.971  47.485  50.364  1.00  0.00     0.190 HD
BRANCH   6   9
HETATM    9  C   UNL     1      21.319  47.356  48.361  1.00  0.00     0.224 C 
BRANCH   9  10
HETATM   10  N   UNL     1      21.124  48.217  49.527  1.00  0.00    -0.381 N 
HETATM   11  H   UNL     1      21.934  48.190  50.150  1.00  0.00     0.160 HD
BRANCH  10  12
HETATM   12  C   UNL     1      20.593  49.500  49.384  1.00  0.00     0.030 A 
HETATM   13  C   UNL     1      19.344  49.770  49.969  1.00  0.00     0.065 A 
HETATM   14  C   UNL     1      18.704  51.001  49.796  1.00  0.00     0.070 A 
HETATM   15  C   UNL     1      19.307  51.976  49.003  1.00  0.00     0.037 A 
HETATM   16  C   UNL     1      20.528  51.717  48.382  1.00  0.00     0.005 A 
HETATM   17  C   UNL     1      21.156  50.482  48.562  1.00  0.00     0.029 A 
BRANCH  14  18
HETATM   18  O   UNL     1      17.498  51.366  50.331  1.00  0.00    -0.356 OA
HETATM   19  C   UNL     1      16.468  51.709  49.413  1.00  0.00     0.210 C 
ENDBRANCH  14  18
ENDBRANCH  10  12
ENDBRANCH   9  10
ENDBRANCH   6   9
ENDBRANCH   2   5
BRANCH   1  20
HETATM   20  C   UNL     1      25.920  45.260  51.700  1.00  0.00     0.134 A 
HETATM   21  C   UNL     1      25.813  43.951  51.277  1.00  0.00     0.089 A 
HETATM   22  S   UNL     1      26.943  42.971  52.100  1.00  0.00    -0.079 SA
HETATM   23  C   UNL     1      27.495  44.338  52.998  1.00  0.00     0.108 A 
HETATM   24  N   UNL     1      26.906  45.476  52.666  1.00  0.00    -0.235 NA
BRANCH  23  25
HETATM   25  C   UNL     1      28.536  44.220  54.042  1.00  0.00    -0.000 A 
HETATM   26  C   UNL     1      28.822  45.238  54.965  1.00  0.00     0.015 A 
HETATM   27  C   UNL     1      29.840  45.088  55.916  1.00  0.00     0.007 A 
HETATM   28  C   UNL     1      30.604  43.920  55.962  1.00  0.00    -0.062 A 
HETATM   29  C   UNL     1      31.692  43.749  56.980  1.00  0.00     0.048 C 
HETATM   30  C   UNL     1      30.323  42.895  55.055  1.00  0.00     0.007 A 
HETATM   31  C   UNL     1      29.306  43.046  54.106  1.00  0.00     0.015 A 
ENDBRANCH  23  25
ENDBRANCH   1  20
TORSDOF 7
ENDMDL
MODEL 3
REMARK VINA RESULT:      -9.5      2.472      3.588
REMARK  7 active torsions:
REMARK  status: ('A' for Active; 'I' for Inactive)
REMARK    1  A    between atoms: C_5  and  C_6 
REMARK    2  A    between atoms: C_9  and  C_10 
REMARK       I    between atoms: C_10  and  N_11 
REMARK    3  A    between atoms: N_11  and  N_12 
REMARK       I    between atoms: N_12  and  C_13 
REMARK    4  A    between atoms: C_13  and  C_14 
REMARK    5  A    between atoms: C_14  and  N_15 
REMARK    6  A    between atoms: N_15  and  C_16 
REMARK    7  A    between atoms: C_18  and  O_19 
ROOT
HETATM    1  C   UNL     1      26.803  43.427  50.203  1.00  0.00     0.289 C 
HETATM    2  N   UNL     1      25.768  44.272  50.560  1.00  0.00    -0.262 N 
HETATM    3  O   UNL     1      26.994  43.055  49.046  1.00  0.00    -0.264 OA
HETATM    4  H   UNL     1      25.811  44.732  51.470  1.00  0.00     0.190 HD
ENDROOT
BRANCH   2   5
HETATM    5  N   UNL     1      25.050  44.908  49.534  1.00  0.00    -0.266 N 
HETATM    6  C   UNL     1      23.671  44.956  49.650  1.00  0.00     0.253 C 
HETATM    7  O   UNL     1      23.037  44.278  50.461  1.00  0.00    -0.270 OA
HETATM    8  H   UNL     1      25.546  45.668  49.073  1.00  0.00     0.190 HD
BRANCH   6   9
HETATM    9  C   UNL     1      22.992  45.902  48.651  1.00  0.00     0.224 C 
BRANCH   9  10
HETATM   10  N   UNL     1      22.428  47.042  49.374  1.00  0.00    -0.381 N 
HETATM   11  H   UNL     1      22.564  46.948  50.382  1.00  0.00     0.160 HD
BRANCH  10  12
HETATM   12  C   UNL     1      22.635  48.345  48.918  1.00  0.00     0.030 A 
HETATM   13  C   UNL     1      23.906  48.680  48.419  1.00  0.00     0.065 A 
HETATM   14  C   UNL     1      24.220  49.985  48.027  1.00  0.00     0.070 A 
HETATM   15  C   UNL     1      23.257  50.984  48.157  1.00  0.00     0.037 A 
HETATM   16  C   UNL     1      22.002  50.684  48.683  1.00  0.00     0.005 A 
HETATM   17  C   UNL     1      21.701  49.376  49.072  1.00  0.00     0.029 A 
BRANCH  14  18
HETATM   18  O   UNL     1      25.418  50.409  47.520  1.00  0.00    -0.356 OA
HETATM   19  C   UNL     1      26.591  49.945  48.176  1.00  0.00     0.210 C 
ENDBRANCH  14  18
ENDBRANCH  10  12
ENDBRANCH   9  10
ENDBRANCH   6   9
ENDBRANCH   2   5
BRANCH   1  20
HETATM   20  C   UNL     1      27.636  43.020  51.333  1.00  0.00     0.134 A 
HETATM   21  C   UNL     1      28.073  41.728  51.537  1.00  0.00     0.089 A 
HETATM   22  S   UNL     1      28.994  41.637  52.973  1.00  0.00    -0.079 SA
HETATM   23  C   UNL     1      28.736  43.320  53.260  1.00  0.00     0.108 A 
HETATM   24  N   UNL     1      28.046  43.930  52.310  1.00  0.00    -0.235 NA
BRANCH  23  25
HETATM   25  C   UNL     1      29.254  43.995  54.470  1.00  0.00    -0.000 A 
HETATM   26  C   UNL     1      30.427  43.600  55.132  1.00  0.00     0.015 A 
HETATM   27  C   UNL     1      30.859  44.254  56.293  1.00  0.00     0.007 A 
HETATM   28  C   UNL     1      30.124  45.315  56.827  1.00  0.00    -0.062 A 
HETATM   29  C   UNL     1      30.582  46.024  58.066  1.00  0.00     0.048 C 
HETATM   30  C   UNL     1      28.960  45.725  56.171  1.00  0.00     0.007 A 
HETATM   31  C   UNL     1      28.530  45.070  55.012  1.00  0.00     0.015 A 
ENDBRANCH  23  25
ENDBRANCH   1  20
TORSDOF 7
ENDMDL
MODEL 4
REMARK VINA RESULT:      -9.5      2.775     11.144
REMARK  7 active torsions:
REMARK  status: ('A' for Active; 'I' for Inactive)
REMARK    1  A    between atoms: C_5  and  C_6 
REMARK    2  A    between atoms: C_9  and  C_10 
REMARK       I    between atoms: C_10  and  N_11 
REMARK    3  A    between atoms: N_11  and  N_12 
REMARK       I    between atoms: N_12  and  C_13 
REMARK    4  A    between atoms: C_13  and  C_14 
REMARK    5  A    between atoms: C_14  and  N_15 
REMARK    6  A    between atoms: N_15  and  C_16 
REMARK    7  A    between atoms: C_18  and  O_19 
ROOT
HETATM    1  C   UNL     1      24.205  47.318  49.778  1.00  0.00     0.289 C 
HETATM    2  N   UNL     1      25.372  47.550  50.484  1.00  0.00    -0.262 N 
HETATM    3  O   UNL     1      23.727  46.196  49.626  1.00  0.00    -0.264 OA
HETATM    4  H   UNL     1      25.576  48.504  50.781  1.00  0.00     0.190 HD
ENDROOT
BRANCH   2   5
HETATM    5  N   UNL     1      25.904  46.495  51.244  1.00  0.00    -0.266 N 
HETATM    6  C   UNL     1      25.774  46.567  52.621  1.00  0.00     0.253 C 
HETATM    7  O   UNL     1      25.441  47.594  53.216  1.00  0.00    -0.270 OA
HETATM    8  H   UNL     1      25.895  45.588  50.782  1.00  0.00     0.190 HD
BRANCH   6   9
HETATM    9  C   UNL     1      26.118  45.263  53.351  1.00  0.00     0.224 C 
BRANCH   9  10
HETATM   10  N   UNL     1      27.278  44.644  52.710  1.00  0.00    -0.381 N 
HETATM   11  H   UNL     1      27.576  45.173  51.888  1.00  0.00     0.160 HD
BRANCH  10  12
HETATM   12  C   UNL     1      28.351  44.182  53.475  1.00  0.00     0.030 A 
HETATM   13  C   UNL     1      28.655  44.858  54.669  1.00  0.00     0.065 A 
HETATM   14  C   UNL     1      29.766  44.515  55.445  1.00  0.00     0.070 A 
HETATM   15  C   UNL     1      30.608  43.492  55.011  1.00  0.00     0.037 A 
HETATM   16  C   UNL     1      30.348  42.831  53.813  1.00  0.00     0.005 A 
HETATM   17  C   UNL     1      29.235  43.185  53.046  1.00  0.00     0.029 A 
BRANCH  14  18
HETATM   18  O   UNL     1      30.139  45.101  56.624  1.00  0.00    -0.356 OA
HETATM   19  C   UNL     1      29.210  46.001  57.215  1.00  0.00     0.210 C 
ENDBRANCH  14  18
ENDBRANCH  10  12
ENDBRANCH   9  10
ENDBRANCH   6   9
ENDBRANCH   2   5
BRANCH   1  20
HETATM   20  C   UNL     1      23.606  48.535  49.232  1.00  0.00     0.134 A 
HETATM   21  C   UNL     1      24.291  49.443  48.452  1.00  0.00     0.089 A 
HETATM   22  S   UNL     1      23.270  50.746  48.031  1.00  0.00    -0.079 SA
HETATM   23  C   UNL     1      21.978  50.043  48.935  1.00  0.00     0.108 A 
HETATM   24  N   UNL     1      22.274  48.874  49.479  1.00  0.00    -0.235 NA
BRANCH  23  25
HETATM   25  C   UNL     1      20.666  50.711  49.073  1.00  0.00    -0.000 A 
HETATM   26  C   UNL     1      20.296  51.845  48.334  1.00  0.00     0.015 A 
HETATM   27  C   UNL     1      19.051  52.460  48.523  1.00  0.00     0.007 A 
HETATM   28  C   UNL     1      18.148  51.960  49.464  1.00  0.00    -0.062 A 
HETATM   29  C   UNL     1      16.811  52.608  49.670  1.00  0.00     0.048 C 
HETATM   30  C   UNL     1      18.499  50.825  50.199  1.00  0.00     0.007 A 
HETATM   31  C   UNL     1      19.743  50.214  50.009  1.00  0.00     0.015 A 
ENDBRANCH  23  25
ENDBRANCH   1  20
TORSDOF 7
ENDMDL
MODEL 5
REMARK VINA RESULT:      -9.3      2.802     10.719
REMARK  7 active torsions:
REMARK  status: ('A' for Active; 'I' for Inactive)
REMARK    1  A    between atoms: C_5  and  C_6 
REMARK    2  A    between atoms: C_9  and  C_10 
REMARK       I    between atoms: C_10  and  N_11 
REMARK    3  A    between atoms: N_11  and  N_12 
REMARK       I    between atoms: N_12  and  C_13 
REMARK    4  A    between atoms: C_13  and  C_14 
REMARK    5  A    between atoms: C_14  and  N_15 
REMARK    6  A    between atoms: N_15  and  C_16 
REMARK    7  A    between atoms: C_18  and  O_19 
ROOT
HETATM    1  C   UNL     1      25.695  47.311  50.649  1.00  0.00     0.289 C 
HETATM    2  N   UNL     1      25.759  46.051  50.083  1.00  0.00    -0.262 N 
HETATM    3  O   UNL     1      26.101  47.558  51.783  1.00  0.00    -0.264 OA
HETATM    4  H   UNL     1      25.639  45.967  49.074  1.00  0.00     0.190 HD
ENDROOT
BRANCH   2   5
HETATM    5  N   UNL     1      26.521  45.070  50.740  1.00  0.00    -0.266 N 
HETATM    6  C   UNL     1      25.840  44.113  51.474  1.00  0.00     0.253 C 
HETATM    7  O   UNL     1      24.649  44.212  51.774  1.00  0.00    -0.270 OA
HETATM    8  H   UNL     1      27.394  44.827  50.277  1.00  0.00     0.190 HD
BRANCH   6   9
HETATM    9  C   UNL     1      26.710  42.930  51.917  1.00  0.00     0.224 C 
BRANCH   9  10
HETATM   10  N   UNL     1      28.114  43.341  51.930  1.00  0.00    -0.381 N 
HETATM   11  H   UNL     1      28.286  44.099  51.265  1.00  0.00     0.160 HD
BRANCH  10  12
HETATM   12  C   UNL     1      28.794  43.514  53.136  1.00  0.00     0.030 A 
HETATM   13  C   UNL     1      28.350  44.521  54.010  1.00  0.00     0.065 A 
HETATM   14  C   UNL     1      29.030  44.817  55.195  1.00  0.00     0.070 A 
HETATM   15  C   UNL     1      30.191  44.112  55.507  1.00  0.00     0.037 A 
HETATM   16  C   UNL     1      30.671  43.134  54.639  1.00  0.00     0.005 A 
HETATM   17  C   UNL     1      29.983  42.849  53.456  1.00  0.00     0.029 A 
BRANCH  14  18
HETATM   18  O   UNL     1      28.674  45.766  56.115  1.00  0.00    -0.356 OA
HETATM   19  C   UNL     1      29.555  45.955  57.214  1.00  0.00     0.210 C 
ENDBRANCH  14  18
ENDBRANCH  10  12
ENDBRANCH   9  10
ENDBRANCH   6   9
ENDBRANCH   2   5
BRANCH   1  20
HETATM   20  C   UNL     1      25.094  48.312  49.768  1.00  0.00     0.134 A 
HETATM   21  C   UNL     1      25.788  48.981  48.782  1.00  0.00     0.089 A 
HETATM   22  S   UNL     1      24.761  50.090  47.987  1.00  0.00    -0.079 SA
HETATM   23  C   UNL     1      23.453  49.638  49.019  1.00  0.00     0.108 A 
HETATM   24  N   UNL     1      23.750  48.675  49.877  1.00  0.00    -0.235 NA
BRANCH  23  25
HETATM   25  C   UNL     1      22.127  50.288  48.931  1.00  0.00    -0.000 A 
HETATM   26  C   UNL     1      21.458  50.830  50.040  1.00  0.00     0.015 A 
HETATM   27  C   UNL     1      20.189  51.408  49.909  1.00  0.00     0.007 A 
HETATM   28  C   UNL     1      19.552  51.451  48.666  1.00  0.00    -0.062 A 
HETATM   29  C   UNL     1      18.196  52.073  48.516  1.00  0.00     0.048 C 
HETATM   30  C   UNL     1      20.212  50.925  47.553  1.00  0.00     0.007 A 
HETATM   31  C   UNL     1      21.479  50.348  47.686  1.00  0.00     0.015 A 
ENDBRANCH  23  25
ENDBRANCH   1  20
TORSDOF 7
ENDMDL
MODEL 6
REMARK VINA RESULT:      -9.1      1.717      2.323
REMARK  7 active torsions:
REMARK  status: ('A' for Active; 'I' for Inactive)
REMARK    1  A    between atoms: C_5  and  C_6 
REMARK    2  A    between atoms: C_9  and  C_10 
REMARK       I    between atoms: C_10  and  N_11 
REMARK    3  A    between atoms: N_11  and  N_12 
REMARK       I    between atoms: N_12  and  C_13 
REMARK    4  A    between atoms: C_13  and  C_14 
REMARK    5  A    between atoms: C_14  and  N_15 
REMARK    6  A    between atoms: N_15  and  C_16 
REMARK    7  A    between atoms: C_18  and  O_19 
ROOT
HETATM    1  C   UNL     1      26.962  44.333  50.065  1.00  0.00     0.289 C 
HETATM    2  N   UNL     1      25.773  43.762  49.648  1.00  0.00    -0.262 N 
HETATM    3  O   UNL     1      27.432  45.348  49.556  1.00  0.00    -0.264 OA
HETATM    4  H   UNL     1      25.322  43.083  50.261  1.00  0.00     0.190 HD
ENDROOT
BRANCH   2   5
HETATM    5  N   UNL     1      24.963  44.496  48.767  1.00  0.00    -0.266 N 
HETATM    6  C   UNL     1      23.753  44.968  49.250  1.00  0.00     0.253 C 
HETATM    7  O   UNL     1      23.252  44.583  50.308  1.00  0.00    -0.270 OA
HETATM    8  H   UNL     1      25.470  45.030  48.064  1.00  0.00     0.190 HD
BRANCH   6   9
HETATM    9  C   UNL     1      23.067  45.987  48.331  1.00  0.00     0.224 C 
BRANCH   9  10
HETATM   10  N   UNL     1      22.295  46.926  49.144  1.00  0.00    -0.381 N 
HETATM   11  H   UNL     1      22.245  46.622  50.118  1.00  0.00     0.160 HD
BRANCH  10  12
HETATM   12  C   UNL     1      22.486  48.303  49.015  1.00  0.00     0.030 A 
HETATM   13  C   UNL     1      21.414  49.154  49.335  1.00  0.00     0.065 A 
HETATM   14  C   UNL     1      21.495  50.537  49.148  1.00  0.00     0.070 A 
HETATM   15  C   UNL     1      22.659  51.084  48.609  1.00  0.00     0.037 A 
HETATM   16  C   UNL     1      23.721  50.256  48.250  1.00  0.00     0.005 A 
HETATM   17  C   UNL     1      23.626  48.875  48.440  1.00  0.00     0.029 A 
BRANCH  14  18
HETATM   18  O   UNL     1      20.517  51.450  49.438  1.00  0.00    -0.356 OA
HETATM   19  C   UNL     1      19.600  51.758  48.396  1.00  0.00     0.210 C 
ENDBRANCH  14  18
ENDBRANCH  10  12
ENDBRANCH   9  10
ENDBRANCH   6   9
ENDBRANCH   2   5
BRANCH   1  20
HETATM   20  C   UNL     1      27.600  43.607  51.163  1.00  0.00     0.134 A 
HETATM   21  C   UNL     1      27.634  42.231  51.256  1.00  0.00     0.089 A 
HETATM   22  S   UNL     1      28.436  41.756  52.686  1.00  0.00    -0.079 SA
HETATM   23  C   UNL     1      28.671  43.411  53.119  1.00  0.00     0.108 A 
HETATM   24  N   UNL     1      28.223  44.273  52.221  1.00  0.00    -0.235 NA
BRANCH  23  25
HETATM   25  C   UNL     1      29.320  43.802  54.389  1.00  0.00    -0.000 A 
HETATM   26  C   UNL     1      29.012  44.984  55.081  1.00  0.00     0.015 A 
HETATM   27  C   UNL     1      29.678  45.325  56.266  1.00  0.00     0.007 A 
HETATM   28  C   UNL     1      30.675  44.495  56.785  1.00  0.00    -0.062 A 
HETATM   29  C   UNL     1      31.389  44.849  58.055  1.00  0.00     0.048 C 
HETATM   30  C   UNL     1      30.984  43.311  56.112  1.00  0.00     0.007 A 
HETATM   31  C   UNL     1      30.318  42.973  54.928  1.00  0.00     0.015 A 
ENDBRANCH  23  25
ENDBRANCH   1  20
TORSDOF 7
ENDMDL
MODEL 7
REMARK VINA RESULT:      -8.1      2.663      3.196
REMARK  7 active torsions:
REMARK  status: ('A' for Active; 'I' for Inactive)
REMARK    1  A    between atoms: C_5  and  C_6 
REMARK    2  A    between atoms: C_9  and  C_10 
REMARK       I    between atoms: C_10  and  N_11 
REMARK    3  A    between atoms: N_11  and  N_12 
REMARK       I    between atoms: N_12  and  C_13 
REMARK    4  A    between atoms: C_13  and  C_14 
REMARK    5  A    between atoms: C_14  and  N_15 
REMARK    6  A    between atoms: N_15  and  C_16 
REMARK    7  A    between atoms: C_18  and  O_19 
ROOT
HETATM    1  C   UNL     1      25.526  46.785  51.615  1.00  0.00     0.289 C 
HETATM    2  N   UNL     1      25.429  46.847  50.237  1.00  0.00    -0.262 N 
HETATM    3  O   UNL     1      25.060  47.646  52.358  1.00  0.00    -0.264 OA
HETATM    4  H   UNL     1      25.610  45.999  49.700  1.00  0.00     0.190 HD
ENDROOT
BRANCH   2   5
HETATM    5  N   UNL     1      24.571  47.809  49.679  1.00  0.00    -0.266 N 
HETATM    6  C   UNL     1      23.338  47.379  49.216  1.00  0.00     0.253 C 
HETATM    7  O   UNL     1      23.057  46.191  49.050  1.00  0.00    -0.270 OA
HETATM    8  H   UNL     1      24.667  48.745  50.069  1.00  0.00     0.190 HD
BRANCH   6   9
HETATM    9  C   UNL     1      22.361  48.515  48.890  1.00  0.00     0.224 C 
BRANCH   9  10
HETATM   10  N   UNL     1      21.041  48.185  49.427  1.00  0.00    -0.381 N 
HETATM   11  H   UNL     1      20.790  48.800  50.203  1.00  0.00     0.160 HD
BRANCH  10  12
HETATM   12  C   UNL     1      19.969  47.928  48.570  1.00  0.00     0.030 A 
HETATM   13  C   UNL     1      19.901  46.668  47.952  1.00  0.00     0.065 A 
HETATM   14  C   UNL     1      18.910  46.363  47.013  1.00  0.00     0.070 A 
HETATM   15  C   UNL     1      17.981  47.342  46.664  1.00  0.00     0.037 A 
HETATM   16  C   UNL     1      18.050  48.610  47.236  1.00  0.00     0.005 A 
HETATM   17  C   UNL     1      19.046  48.902  48.172  1.00  0.00     0.029 A 
BRANCH  14  18
HETATM   18  O   UNL     1      18.751  45.168  46.366  1.00  0.00    -0.356 OA
HETATM   19  C   UNL     1      17.416  44.724  46.160  1.00  0.00     0.210 C 
ENDBRANCH  14  18
ENDBRANCH  10  12
ENDBRANCH   9  10
ENDBRANCH   6   9
ENDBRANCH   2   5
BRANCH   1  20
HETATM   20  C   UNL     1      26.239  45.601  52.093  1.00  0.00     0.134 A 
HETATM   21  C   UNL     1      25.913  44.311  51.731  1.00  0.00     0.089 A 
HETATM   22  S   UNL     1      26.947  43.200  52.513  1.00  0.00    -0.079 SA
HETATM   23  C   UNL     1      27.756  44.497  53.315  1.00  0.00     0.108 A 
HETATM   24  N   UNL     1      27.315  45.698  52.979  1.00  0.00    -0.235 NA
BRANCH  23  25
HETATM   25  C   UNL     1      28.844  44.258  54.288  1.00  0.00    -0.000 A 
HETATM   26  C   UNL     1      29.629  43.094  54.298  1.00  0.00     0.015 A 
HETATM   27  C   UNL     1      30.628  42.902  55.260  1.00  0.00     0.007 A 
HETATM   28  C   UNL     1      30.863  43.866  56.244  1.00  0.00    -0.062 A 
HETATM   29  C   UNL     1      31.934  43.671  57.275  1.00  0.00     0.048 C 
HETATM   30  C   UNL     1      30.096  45.034  56.239  1.00  0.00     0.007 A 
HETATM   31  C   UNL     1      29.098  45.223  55.277  1.00  0.00     0.015 A 
ENDBRANCH  23  25
ENDBRANCH   1  20
TORSDOF 7
ENDMDL
MODEL 8
REMARK VINA RESULT:      -8.1      2.909      4.202
REMARK  7 active torsions:
REMARK  status: ('A' for Active; 'I' for Inactive)
REMARK    1  A    between atoms: C_5  and  C_6 
REMARK    2  A    between atoms: C_9  and  C_10 
REMARK       I    between atoms: C_10  and  N_11 
REMARK    3  A    between atoms: N_11  and  N_12 
REMARK       I    between atoms: N_12  and  C_13 
REMARK    4  A    between atoms: C_13  and  C_14 
REMARK    5  A    between atoms: C_14  and  N_15 
REMARK    6  A    between atoms: N_15  and  C_16 
REMARK    7  A    between atoms: C_18  and  O_19 
ROOT
HETATM    1  C   UNL     1      23.912  43.301  48.216  1.00  0.00     0.289 C 
HETATM    2  N   UNL     1      23.423  44.381  48.927  1.00  0.00    -0.262 N 
HETATM    3  O   UNL     1      23.559  43.039  47.067  1.00  0.00    -0.264 OA
HETATM    4  H   UNL     1      23.928  44.681  49.760  1.00  0.00     0.190 HD
ENDROOT
BRANCH   2   5
HETATM    5  N   UNL     1      22.670  45.342  48.231  1.00  0.00    -0.266 N 
HETATM    6  C   UNL     1      21.308  45.394  48.480  1.00  0.00     0.253 C 
HETATM    7  O   UNL     1      20.697  44.507  49.080  1.00  0.00    -0.270 OA
HETATM    8  H   UNL     1      23.175  46.195  48.000  1.00  0.00     0.190 HD
BRANCH   6   9
HETATM    9  C   UNL     1      20.615  46.637  47.908  1.00  0.00     0.224 C 
BRANCH   9  10
HETATM   10  N   UNL     1      20.513  47.656  48.953  1.00  0.00    -0.381 N 
HETATM   11  H   UNL     1      20.577  47.241  49.885  1.00  0.00     0.160 HD
BRANCH  10  12
HETATM   12  C   UNL     1      21.215  48.857  48.845  1.00  0.00     0.030 A 
HETATM   13  C   UNL     1      22.392  48.871  48.075  1.00  0.00     0.065 A 
HETATM   14  C   UNL     1      23.199  50.009  47.989  1.00  0.00     0.070 A 
HETATM   15  C   UNL     1      22.842  51.151  48.705  1.00  0.00     0.037 A 
HETATM   16  C   UNL     1      21.700  51.150  49.503  1.00  0.00     0.005 A 
HETATM   17  C   UNL     1      20.903  50.005  49.581  1.00  0.00     0.029 A 
BRANCH  14  18
HETATM   18  O   UNL     1      24.352  50.128  47.262  1.00  0.00    -0.356 OA
HETATM   19  C   UNL     1      25.576  49.988  47.973  1.00  0.00     0.210 C 
ENDBRANCH  14  18
ENDBRANCH  10  12
ENDBRANCH   9  10
ENDBRANCH   6   9
ENDBRANCH   2   5
BRANCH   1  20
HETATM   20  C   UNL     1      24.881  42.503  48.966  1.00  0.00     0.134 A 
HETATM   21  C   UNL     1      25.010  41.136  48.842  1.00  0.00     0.089 A 
HETATM   22  S   UNL     1      26.221  40.559  49.898  1.00  0.00    -0.079 SA
HETATM   23  C   UNL     1      26.489  42.160  50.486  1.00  0.00     0.108 A 
HETATM   24  N   UNL     1      25.753  43.084  49.890  1.00  0.00    -0.235 NA
BRANCH  23  25
HETATM   25  C   UNL     1      27.463  42.445  51.562  1.00  0.00    -0.000 A 
HETATM   26  C   UNL     1      27.651  43.721  52.115  1.00  0.00     0.015 A 
HETATM   27  C   UNL     1      28.609  43.945  53.113  1.00  0.00     0.007 A 
HETATM   28  C   UNL     1      29.409  42.899  53.578  1.00  0.00    -0.062 A 
HETATM   29  C   UNL     1      30.432  43.129  54.649  1.00  0.00     0.048 C 
HETATM   30  C   UNL     1      29.224  41.621  53.044  1.00  0.00     0.007 A 
HETATM   31  C   UNL     1      28.268  41.400  52.047  1.00  0.00     0.015 A 
ENDBRANCH  23  25
ENDBRANCH   1  20
TORSDOF 7
ENDMDL
MODEL 9
REMARK VINA RESULT:      -8.1      2.990      4.011
REMARK  7 active torsions:
REMARK  status: ('A' for Active; 'I' for Inactive)
REMARK    1  A    between atoms: C_5  and  C_6 
REMARK    2  A    between atoms: C_9  and  C_10 
REMARK       I    between atoms: C_10  and  N_11 
REMARK    3  A    between atoms: N_11  and  N_12 
REMARK       I    between atoms: N_12  and  C_13 
REMARK    4  A    between atoms: C_13  and  C_14 
REMARK    5  A    between atoms: C_14  and  N_15 
REMARK    6  A    between atoms: N_15  and  C_16 
REMARK    7  A    between atoms: C_18  and  O_19 
ROOT
HETATM    1  C   UNL     1      26.808  42.748  50.194  1.00  0.00     0.289 C 
HETATM    2  N   UNL     1      25.480  42.379  50.312  1.00  0.00    -0.262 N 
HETATM    3  O   UNL     1      27.268  43.275  49.183  1.00  0.00    -0.264 OA
HETATM    4  H   UNL     1      25.115  42.181  51.244  1.00  0.00     0.190 HD
ENDROOT
BRANCH   2   5
HETATM    5  N   UNL     1      24.580  42.831  49.333  1.00  0.00    -0.266 N 
HETATM    6  C   UNL     1      23.350  43.304  49.762  1.00  0.00     0.253 C 
HETATM    7  O   UNL     1      22.920  43.129  50.903  1.00  0.00    -0.270 OA
HETATM    8  H   UNL     1      25.015  43.231  48.505  1.00  0.00     0.190 HD
BRANCH   6   9
HETATM    9  C   UNL     1      22.548  44.034  48.677  1.00  0.00     0.224 C 
BRANCH   9  10
HETATM   10  N   UNL     1      22.240  45.389  49.135  1.00  0.00    -0.381 N 
HETATM   11  H   UNL     1      21.552  45.379  49.890  1.00  0.00     0.160 HD
BRANCH  10  12
HETATM   12  C   UNL     1      23.261  46.319  49.343  1.00  0.00     0.030 A 
HETATM   13  C   UNL     1      22.955  47.683  49.195  1.00  0.00     0.065 A 
HETATM   14  C   UNL     1      23.940  48.670  49.298  1.00  0.00     0.070 A 
HETATM   15  C   UNL     1      25.261  48.292  49.529  1.00  0.00     0.037 A 
HETATM   16  C   UNL     1      25.594  46.944  49.644  1.00  0.00     0.005 A 
HETATM   17  C   UNL     1      24.601  45.966  49.537  1.00  0.00     0.029 A 
BRANCH  14  18
HETATM   18  O   UNL     1      23.744  50.020  49.182  1.00  0.00    -0.356 OA
HETATM   19  C   UNL     1      23.936  50.586  47.892  1.00  0.00     0.210 C 
ENDBRANCH  14  18
ENDBRANCH  10  12
ENDBRANCH   9  10
ENDBRANCH   6   9
ENDBRANCH   2   5
BRANCH   1  20
HETATM   20  C   UNL     1      27.603  42.442  51.382  1.00  0.00     0.134 A 
HETATM   21  C   UNL     1      28.017  41.171  51.722  1.00  0.00     0.089 A 
HETATM   22  S   UNL     1      28.894  41.209  53.187  1.00  0.00    -0.079 SA
HETATM   23  C   UNL     1      28.651  42.914  53.303  1.00  0.00     0.108 A 
HETATM   24  N   UNL     1      27.996  43.438  52.280  1.00  0.00    -0.235 NA
BRANCH  23  25
HETATM   25  C   UNL     1      29.142  43.697  54.458  1.00  0.00    -0.000 A 
HETATM   26  C   UNL     1      28.527  44.875  54.910  1.00  0.00     0.015 A 
HETATM   27  C   UNL     1      29.050  45.598  55.991  1.00  0.00     0.007 A 
HETATM   28  C   UNL     1      30.207  45.164  56.642  1.00  0.00    -0.062 A 
HETATM   29  C   UNL     1      30.771  45.928  57.803  1.00  0.00     0.048 C 
HETATM   30  C   UNL     1      30.823  43.987  56.209  1.00  0.00     0.007 A 
HETATM   31  C   UNL     1      30.300  43.268  55.129  1.00  0.00     0.015 A 
ENDBRANCH  23  25
ENDBRANCH   1  20
TORSDOF 7
ENDMDL
MODEL 10
REMARK VINA RESULT:      -8.0      2.488      4.241
REMARK  7 active torsions:
REMARK  status: ('A' for Active; 'I' for Inactive)
REMARK    1  A    between atoms: C_5  and  C_6 
REMARK    2  A    between atoms: C_9  and  C_10 
REMARK       I    between atoms: C_10  and  N_11 
REMARK    3  A    between atoms: N_11  and  N_12 
REMARK       I    between atoms: N_12  and  C_13 
REMARK    4  A    between atoms: C_13  and  C_14 
REMARK    5  A    between atoms: C_14  and  N_15 
REMARK    6  A    between atoms: N_15  and  C_16 
REMARK    7  A    between atoms: C_18  and  O_19 
ROOT
HETATM    1  C   UNL     1      22.701  47.186  48.673  1.00  0.00     0.289 C 
HETATM    2  N   UNL     1      22.027  47.990  49.575  1.00  0.00    -0.262 N 
HETATM    3  O   UNL     1      22.454  47.178  47.469  1.00  0.00    -0.264 OA
HETATM    4  H   UNL     1      22.438  48.132  50.497  1.00  0.00     0.190 HD
ENDROOT
BRANCH   2   5
HETATM    5  N   UNL     1      21.189  48.995  49.065  1.00  0.00    -0.266 N 
HETATM    6  C   UNL     1      21.555  50.312  49.292  1.00  0.00     0.253 C 
HETATM    7  O   UNL     1      22.422  50.641  50.103  1.00  0.00    -0.270 OA
HETATM    8  H   UNL     1      20.696  48.747  48.209  1.00  0.00     0.190 HD
BRANCH   6   9
HETATM    9  C   UNL     1      20.757  51.333  48.471  1.00  0.00     0.224 C 
BRANCH   9  10
HETATM   10  N   UNL     1      19.757  51.967  49.330  1.00  0.00    -0.381 N 
HETATM   11  H   UNL     1      20.087  52.868  49.682  1.00  0.00     0.160 HD
BRANCH  10  12
HETATM   12  C   UNL     1      18.412  51.988  48.960  1.00  0.00     0.030 A 
HETATM   13  C   UNL     1      18.092  51.771  47.608  1.00  0.00     0.065 A 
HETATM   14  C   UNL     1      16.778  51.864  47.141  1.00  0.00     0.070 A 
HETATM   15  C   UNL     1      15.762  52.206  48.032  1.00  0.00     0.037 A 
HETATM   16  C   UNL     1      16.059  52.462  49.369  1.00  0.00     0.005 A 
HETATM   17  C   UNL     1      17.377  52.366  49.823  1.00  0.00     0.029 A 
BRANCH  14  18
HETATM   18  O   UNL     1      16.363  51.661  45.853  1.00  0.00    -0.356 OA
HETATM   19  C   UNL     1      15.095  52.196  45.496  1.00  0.00     0.210 C 
ENDBRANCH  14  18
ENDBRANCH  10  12
ENDBRANCH   9  10
ENDBRANCH   6   9
ENDBRANCH   2   5
BRANCH   1  20
HETATM   20  C   UNL     1      23.727  46.351  49.295  1.00  0.00     0.134 A 
HETATM   21  C   UNL     1      24.097  45.110  48.820  1.00  0.00     0.089 A 
HETATM   22  S   UNL     1      25.298  44.428  49.824  1.00  0.00    -0.079 SA
HETATM   23  C   UNL     1      25.240  45.811  50.855  1.00  0.00     0.108 A 
HETATM   24  N   UNL     1      24.408  46.756  50.445  1.00  0.00    -0.235 NA
BRANCH  23  25
HETATM   25  C   UNL     1      26.059  45.907  52.083  1.00  0.00    -0.000 A 
HETATM   26  C   UNL     1      26.832  44.845  52.580  1.00  0.00     0.015 A 
HETATM   27  C   UNL     1      27.567  44.977  53.765  1.00  0.00     0.007 A 
HETATM   28  C   UNL     1      27.541  46.171  54.489  1.00  0.00    -0.062 A 
HETATM   29  C   UNL     1      28.329  46.323  55.756  1.00  0.00     0.048 C 
HETATM   30  C   UNL     1      26.784  47.239  54.001  1.00  0.00     0.007 A 
HETATM   31  C   UNL     1      26.050  47.105  52.817  1.00  0.00     0.015 A 
ENDBRANCH  23  25
ENDBRANCH   1  20
TORSDOF 7
ENDMDL
