MODEL 1
REMARK VINA RESULT:      -9.2      0.000      0.000
REMARK  5 active torsions:
REMARK  status: ('A' for Active; 'I' for Inactive)
REMARK    1  A    between atoms: C_6  and  N_7 
REMARK       I    between atoms: N_7  and  C_8 
REMARK    2  A    between atoms: C_8  and  C_9 
REMARK    3  A    between atoms: C_9  and  O_10 
REMARK    4  A    between atoms: O_10  and  C_11 
REMARK    5  A    between atoms: C_20  and  C_21 
ROOT
HETATM    1  C   UNL     1      26.814  44.057  49.662  1.00  0.00     0.073 C 
HETATM    2  C   UNL     1      26.618  44.608  51.027  1.00  0.00     0.065 A 
HETATM    3  N   UNL     1      26.902  43.857  52.098  1.00  0.00    -0.177 NA
HETATM    4  N   UNL     1      26.607  44.651  53.140  1.00  0.00    -0.262 N 
HETATM    5  H   UNL     1      26.819  44.310  54.074  1.00  0.00     0.191 HD
HETATM    6  C   UNL     1      26.106  45.875  52.785  1.00  0.00     0.137 A 
HETATM    7  C   UNL     1      26.123  45.888  51.400  1.00  0.00     0.046 A 
ENDROOT
BRANCH   6   8
HETATM    8  N   UNL     1      25.769  46.893  53.656  1.00  0.00    -0.309 N 
HETATM    9  C   UNL     1      26.560  47.554  54.556  1.00  0.00     0.247 C 
HETATM   10  O   UNL     1      26.093  48.536  55.141  1.00  0.00    -0.271 OA
HETATM   11  H   UNL     1      24.801  47.198  53.660  1.00  0.00     0.170 HD
BRANCH   9  12
HETATM   12  C   UNL     1      27.926  46.997  54.945  1.00  0.00     0.278 C 
BRANCH  12  13
HETATM   13  O   UNL     1      27.821  45.885  55.822  1.00  0.00    -0.339 OA
BRANCH  13  14
HETATM   14  C   UNL     1      28.986  45.201  56.061  1.00  0.00     0.108 A 
HETATM   15  C   UNL     1      29.633  45.493  57.268  1.00  0.00     0.152 A 
HETATM   16  F   UNL     1      29.100  46.390  58.112  1.00  0.00    -0.203 F 
HETATM   17  C   UNL     1      30.822  44.866  57.627  1.00  0.00     0.087 A 
HETATM   18  C   UNL     1      31.377  43.942  56.754  1.00  0.00     0.119 A 
HETATM   19  F   UNL     1      32.520  43.327  57.082  1.00  0.00    -0.206 F 
HETATM   20  C   UNL     1      30.768  43.647  55.539  1.00  0.00     0.045 A 
HETATM   21  C   UNL     1      29.571  44.279  55.188  1.00  0.00     0.043 A 
ENDBRANCH  13  14
ENDBRANCH  12  13
ENDBRANCH   9  12
ENDBRANCH   6   8
BRANCH   7  22
HETATM   22  C   UNL     1      25.637  46.980  50.575  1.00  0.00    -0.020 A 
HETATM   23  C   UNL     1      26.532  47.892  50.004  1.00  0.00     0.014 A 
HETATM   24  C   UNL     1      26.059  48.928  49.193  1.00  0.00     0.020 A 
HETATM   25  C   UNL     1      24.692  49.051  48.951  1.00  0.00     0.011 A 
HETATM   26 BR   UNL     1      24.054  50.449  47.849  1.00  0.00    -0.051 Br
HETATM   27  C   UNL     1      23.791  48.150  49.512  1.00  0.00     0.020 A 
HETATM   28  C   UNL     1      24.265  47.113  50.320  1.00  0.00     0.014 A 
ENDBRANCH   7  22
TORSDOF 5
ENDMDL
MODEL 2
REMARK VINA RESULT:      -8.9      4.542      8.327
REMARK  5 active torsions:
REMARK  status: ('A' for Active; 'I' for Inactive)
REMARK    1  A    between atoms: C_6  and  N_7 
REMARK       I    between atoms: N_7  and  C_8 
REMARK    2  A    between atoms: C_8  and  C_9 
REMARK    3  A    between atoms: C_9  and  O_10 
REMARK    4  A    between atoms: O_10  and  C_11 
REMARK    5  A    between atoms: C_20  and  C_21 
ROOT
HETATM    1  C   UNL     1      26.571  48.212  55.744  1.00  0.00     0.073 C 
HETATM    2  C   UNL     1      26.411  47.367  54.533  1.00  0.00     0.065 A 
HETATM    3  N   UNL     1      25.418  47.616  53.671  1.00  0.00    -0.177 NA
HETATM    4  N   UNL     1      25.567  46.678  52.722  1.00  0.00    -0.262 N 
HETATM    5  H   UNL     1      24.957  46.719  51.911  1.00  0.00     0.191 HD
HETATM    6  C   UNL     1      26.597  45.806  52.957  1.00  0.00     0.137 A 
HETATM    7  C   UNL     1      27.188  46.246  54.129  1.00  0.00     0.046 A 
ENDROOT
BRANCH   6   8
HETATM    8  N   UNL     1      26.995  44.782  52.119  1.00  0.00    -0.309 N 
HETATM    9  C   UNL     1      26.950  44.720  50.752  1.00  0.00     0.247 C 
HETATM   10  O   UNL     1      27.491  43.765  50.188  1.00  0.00    -0.271 OA
HETATM   11  H   UNL     1      27.357  43.940  52.555  1.00  0.00     0.170 HD
BRANCH   9  12
HETATM   12  C   UNL     1      26.116  45.721  49.957  1.00  0.00     0.278 C 
BRANCH  12  13
HETATM   13  O   UNL     1      26.692  47.019  49.961  1.00  0.00    -0.339 OA
BRANCH  13  14
HETATM   14  C   UNL     1      25.926  48.013  49.404  1.00  0.00     0.108 A 
HETATM   15  C   UNL     1      26.629  49.054  48.783  1.00  0.00     0.152 A 
HETATM   16  F   UNL     1      27.970  49.030  48.753  1.00  0.00    -0.203 F 
HETATM   17  C   UNL     1      25.968  50.119  48.181  1.00  0.00     0.087 A 
HETATM   18  C   UNL     1      24.582  50.148  48.215  1.00  0.00     0.119 A 
HETATM   19  F   UNL     1      23.928  51.165  47.639  1.00  0.00    -0.206 F 
HETATM   20  C   UNL     1      23.858  49.139  48.841  1.00  0.00     0.045 A 
HETATM   21  C   UNL     1      24.530  48.069  49.442  1.00  0.00     0.043 A 
ENDBRANCH  13  14
ENDBRANCH  12  13
ENDBRANCH   9  12
ENDBRANCH   6   8
BRANCH   7  22
HETATM   22  C   UNL     1      28.305  45.595  54.790  1.00  0.00    -0.020 A 
HETATM   23  C   UNL     1      29.023  46.258  55.792  1.00  0.00     0.014 A 
HETATM   24  C   UNL     1      30.083  45.618  56.439  1.00  0.00     0.020 A 
HETATM   25  C   UNL     1      30.425  44.312  56.087  1.00  0.00     0.011 A 
HETATM   26 BR   UNL     1      31.855  43.444  56.967  1.00  0.00    -0.051 Br
HETATM   27  C   UNL     1      29.718  43.640  55.094  1.00  0.00     0.020 A 
HETATM   28  C   UNL     1      28.657  44.281  54.449  1.00  0.00     0.014 A 
ENDBRANCH   7  22
TORSDOF 5
ENDMDL
MODEL 3
REMARK VINA RESULT:      -8.4      4.952      8.654
REMARK  5 active torsions:
REMARK  status: ('A' for Active; 'I' for Inactive)
REMARK    1  A    between atoms: C_6  and  N_7 
REMARK       I    between atoms: N_7  and  C_8 
REMARK    2  A    between atoms: C_8  and  C_9 
REMARK    3  A    between atoms: C_9  and  O_10 
REMARK    4  A    between atoms: O_10  and  C_11 
REMARK    5  A    between atoms: C_20  and  C_21 
ROOT
HETATM    1  C   UNL     1      25.922  41.163  50.704  1.00  0.00     0.073 C 
HETATM    2  C   UNL     1      25.959  42.563  50.214  1.00  0.00     0.065 A 
HETATM    3  N   UNL     1      25.269  42.907  49.119  1.00  0.00    -0.177 NA
HETATM    4  N   UNL     1      25.531  44.216  48.966  1.00  0.00    -0.262 N 
HETATM    5  H   UNL     1      25.045  44.716  48.228  1.00  0.00     0.191 HD
HETATM    6  C   UNL     1      26.397  44.724  49.898  1.00  0.00     0.137 A 
HETATM    7  C   UNL     1      26.679  43.668  50.748  1.00  0.00     0.046 A 
ENDROOT
BRANCH   6   8
HETATM    8  N   UNL     1      26.793  46.044  49.996  1.00  0.00    -0.309 N 
HETATM    9  C   UNL     1      26.043  47.149  50.295  1.00  0.00     0.247 C 
HETATM   10  O   UNL     1      26.624  48.224  50.473  1.00  0.00    -0.271 OA
HETATM   11  H   UNL     1      27.769  46.250  49.806  1.00  0.00     0.170 HD
BRANCH   9  12
HETATM   12  C   UNL     1      24.519  47.087  50.252  1.00  0.00     0.278 C 
BRANCH  12  13
HETATM   13  O   UNL     1      24.011  47.328  48.947  1.00  0.00    -0.339 OA
BRANCH  13  14
HETATM   14  C   UNL     1      23.188  48.418  48.819  1.00  0.00     0.108 A 
HETATM   15  C   UNL     1      23.796  49.597  48.367  1.00  0.00     0.152 A 
HETATM   16  F   UNL     1      25.107  49.604  48.079  1.00  0.00    -0.203 F 
HETATM   17  C   UNL     1      23.070  50.770  48.194  1.00  0.00     0.087 A 
HETATM   18  C   UNL     1      21.716  50.766  48.495  1.00  0.00     0.119 A 
HETATM   19  F   UNL     1      21.000  51.886  48.335  1.00  0.00    -0.206 F 
HETATM   20  C   UNL     1      21.090  49.617  48.966  1.00  0.00     0.045 A 
HETATM   21  C   UNL     1      21.826  48.439  49.132  1.00  0.00     0.043 A 
ENDBRANCH  13  14
ENDBRANCH  12  13
ENDBRANCH   9  12
ENDBRANCH   6   8
BRANCH   7  22
HETATM   22  C   UNL     1      27.595  43.731  51.873  1.00  0.00    -0.020 A 
HETATM   23  C   UNL     1      27.245  44.423  53.038  1.00  0.00     0.014 A 
HETATM   24  C   UNL     1      28.122  44.461  54.126  1.00  0.00     0.020 A 
HETATM   25  C   UNL     1      29.351  43.806  54.049  1.00  0.00     0.011 A 
HETATM   26 BR   UNL     1      30.535  43.853  55.522  1.00  0.00    -0.051 Br
HETATM   27  C   UNL     1      29.712  43.113  52.897  1.00  0.00     0.020 A 
HETATM   28  C   UNL     1      28.832  43.073  51.811  1.00  0.00     0.014 A 
ENDBRANCH   7  22
TORSDOF 5
ENDMDL
MODEL 4
REMARK VINA RESULT:      -8.3     13.145     14.773
REMARK  5 active torsions:
REMARK  status: ('A' for Active; 'I' for Inactive)
REMARK    1  A    between atoms: C_6  and  N_7 
REMARK       I    between atoms: N_7  and  C_8 
REMARK    2  A    between atoms: C_8  and  C_9 
REMARK    3  A    between atoms: C_9  and  O_10 
REMARK    4  A    between atoms: O_10  and  C_11 
REMARK    5  A    between atoms: C_20  and  C_21 
ROOT
HETATM    1  C   UNL     1      27.287  49.929  38.080  1.00  0.00     0.073 C 
HETATM    2  C   UNL     1      28.727  49.735  38.383  1.00  0.00     0.065 A 
HETATM    3  N   UNL     1      29.621  50.653  37.996  1.00  0.00    -0.177 NA
HETATM    4  N   UNL     1      30.797  50.162  38.421  1.00  0.00    -0.262 N 
HETATM    5  H   UNL     1      31.625  50.738  38.300  1.00  0.00     0.191 HD
HETATM    6  C   UNL     1      30.702  48.941  39.035  1.00  0.00     0.137 A 
HETATM    7  C   UNL     1      29.350  48.643  39.049  1.00  0.00     0.046 A 
ENDROOT
BRANCH   6   8
HETATM    8  N   UNL     1      31.749  48.241  39.604  1.00  0.00    -0.309 N 
HETATM    9  C   UNL     1      31.990  47.973  40.924  1.00  0.00     0.247 C 
HETATM   10  O   UNL     1      32.912  47.203  41.210  1.00  0.00    -0.271 OA
HETATM   11  H   UNL     1      32.460  47.880  38.976  1.00  0.00     0.170 HD
BRANCH   9  12
HETATM   12  C   UNL     1      31.243  48.730  42.018  1.00  0.00     0.278 C 
BRANCH  12  13
HETATM   13  O   UNL     1      31.797  50.017  42.252  1.00  0.00    -0.339 OA
BRANCH  13  14
HETATM   14  C   UNL     1      31.100  51.072  41.719  1.00  0.00     0.108 A 
HETATM   15  C   UNL     1      31.872  52.089  41.141  1.00  0.00     0.152 A 
HETATM   16  F   UNL     1      33.209  51.986  41.126  1.00  0.00    -0.203 F 
HETATM   17  C   UNL     1      31.284  53.211  40.567  1.00  0.00     0.087 A 
HETATM   18  C   UNL     1      29.901  53.322  40.586  1.00  0.00     0.119 A 
HETATM   19  F   UNL     1      29.317  54.394  40.037  1.00  0.00    -0.206 F 
HETATM   20  C   UNL     1      29.111  52.338  41.170  1.00  0.00     0.045 A 
HETATM   21  C   UNL     1      29.709  51.211  41.742  1.00  0.00     0.043 A 
ENDBRANCH  13  14
ENDBRANCH  12  13
ENDBRANCH   9  12
ENDBRANCH   6   8
BRANCH   7  22
HETATM   22  C   UNL     1      28.777  47.415  39.569  1.00  0.00    -0.020 A 
HETATM   23  C   UNL     1      27.922  47.442  40.677  1.00  0.00     0.014 A 
HETATM   24  C   UNL     1      27.356  46.259  41.160  1.00  0.00     0.020 A 
HETATM   25  C   UNL     1      27.643  45.046  40.533  1.00  0.00     0.011 A 
HETATM   26 BR   UNL     1      26.873  43.447  41.182  1.00  0.00    -0.051 Br
HETATM   27  C   UNL     1      28.491  45.005  39.429  1.00  0.00     0.020 A 
HETATM   28  C   UNL     1      29.054  46.189  38.946  1.00  0.00     0.014 A 
ENDBRANCH   7  22
TORSDOF 5
ENDMDL
MODEL 5
REMARK VINA RESULT:      -8.2     13.713     15.424
REMARK  5 active torsions:
REMARK  status: ('A' for Active; 'I' for Inactive)
REMARK    1  A    between atoms: C_6  and  N_7 
REMARK       I    between atoms: N_7  and  C_8 
REMARK    2  A    between atoms: C_8  and  C_9 
REMARK    3  A    between atoms: C_9  and  O_10 
REMARK    4  A    between atoms: O_10  and  C_11 
REMARK    5  A    between atoms: C_20  and  C_21 
ROOT
HETATM    1  C   UNL     1      32.992  47.747  41.549  1.00  0.00     0.073 C 
HETATM    2  C   UNL     1      32.382  48.958  40.944  1.00  0.00     0.065 A 
HETATM    3  N   UNL     1      31.393  48.834  40.051  1.00  0.00    -0.177 NA
HETATM    4  N   UNL     1      31.094  50.100  39.717  1.00  0.00    -0.262 N 
HETATM    5  H   UNL     1      30.306  50.256  39.097  1.00  0.00     0.191 HD
HETATM    6  C   UNL     1      31.879  51.040  40.332  1.00  0.00     0.137 A 
HETATM    7  C   UNL     1      32.722  50.322  41.165  1.00  0.00     0.046 A 
ENDROOT
BRANCH   6   8
HETATM    8  N   UNL     1      31.752  52.409  40.202  1.00  0.00    -0.309 N 
HETATM    9  C   UNL     1      31.037  53.285  40.974  1.00  0.00     0.247 C 
HETATM   10  O   UNL     1      31.173  54.495  40.770  1.00  0.00    -0.271 OA
HETATM   11  H   UNL     1      32.230  52.847  39.421  1.00  0.00     0.170 HD
BRANCH   9  12
HETATM   12  C   UNL     1      29.982  52.776  41.952  1.00  0.00     0.278 C 
BRANCH  12  13
HETATM   13  O   UNL     1      28.667  52.897  41.430  1.00  0.00    -0.339 OA
BRANCH  13  14
HETATM   14  C   UNL     1      28.197  51.808  40.739  1.00  0.00     0.108 A 
HETATM   15  C   UNL     1      28.135  51.946  39.346  1.00  0.00     0.152 A 
HETATM   16  F   UNL     1      28.531  53.090  38.769  1.00  0.00    -0.203 F 
HETATM   17  C   UNL     1      27.677  50.914  38.533  1.00  0.00     0.087 A 
HETATM   18  C   UNL     1      27.262  49.732  39.128  1.00  0.00     0.119 A 
HETATM   19  F   UNL     1      26.819  48.727  38.362  1.00  0.00    -0.206 F 
HETATM   20  C   UNL     1      27.294  49.574  40.509  1.00  0.00     0.045 A 
HETATM   21  C   UNL     1      27.759  50.615  41.320  1.00  0.00     0.043 A 
ENDBRANCH  13  14
ENDBRANCH  12  13
ENDBRANCH   9  12
ENDBRANCH   6   8
BRANCH   7  22
HETATM   22  C   UNL     1      33.765  50.905  41.990  1.00  0.00    -0.020 A 
HETATM   23  C   UNL     1      33.454  51.490  43.223  1.00  0.00     0.014 A 
HETATM   24  C   UNL     1      34.466  52.029  44.022  1.00  0.00     0.020 A 
HETATM   25  C   UNL     1      35.791  51.982  43.590  1.00  0.00     0.011 A 
HETATM   26 BR   UNL     1      37.160  52.706  44.674  1.00  0.00    -0.051 Br
HETATM   27  C   UNL     1      36.115  51.402  42.367  1.00  0.00     0.020 A 
HETATM   28  C   UNL     1      35.102  50.861  41.570  1.00  0.00     0.014 A 
ENDBRANCH   7  22
TORSDOF 5
ENDMDL
MODEL 6
REMARK VINA RESULT:      -8.1      4.429      8.077
REMARK  5 active torsions:
REMARK  status: ('A' for Active; 'I' for Inactive)
REMARK    1  A    between atoms: C_6  and  N_7 
REMARK       I    between atoms: N_7  and  C_8 
REMARK    2  A    between atoms: C_8  and  C_9 
REMARK    3  A    between atoms: C_9  and  O_10 
REMARK    4  A    between atoms: O_10  and  C_11 
REMARK    5  A    between atoms: C_20  and  C_21 
ROOT
HETATM    1  C   UNL     1      28.905  41.280  52.732  1.00  0.00     0.073 C 
HETATM    2  C   UNL     1      28.145  42.527  52.467  1.00  0.00     0.065 A 
HETATM    3  N   UNL     1      27.367  42.619  51.382  1.00  0.00    -0.177 NA
HETATM    4  N   UNL     1      26.848  43.856  51.455  1.00  0.00    -0.262 N 
HETATM    5  H   UNL     1      26.157  44.124  50.762  1.00  0.00     0.191 HD
HETATM    6  C   UNL     1      27.291  44.583  52.528  1.00  0.00     0.137 A 
HETATM    7  C   UNL     1      28.127  43.730  53.228  1.00  0.00     0.046 A 
ENDROOT
BRANCH   6   8
HETATM    8  N   UNL     1      26.881  45.859  52.863  1.00  0.00    -0.309 N 
HETATM    9  C   UNL     1      25.732  46.515  52.511  1.00  0.00     0.247 C 
HETATM   10  O   UNL     1      25.491  47.605  53.037  1.00  0.00    -0.271 OA
HETATM   11  H   UNL     1      27.511  46.414  53.433  1.00  0.00     0.170 HD
BRANCH   9  12
HETATM   12  C   UNL     1      24.852  45.987  51.381  1.00  0.00     0.278 C 
BRANCH  12  13
HETATM   13  O   UNL     1      25.376  46.310  50.101  1.00  0.00    -0.339 OA
BRANCH  13  14
HETATM   14  C   UNL     1      24.882  47.453  49.525  1.00  0.00     0.108 A 
HETATM   15  C   UNL     1      25.814  48.471  49.285  1.00  0.00     0.152 A 
HETATM   16  F   UNL     1      27.103  48.287  49.608  1.00  0.00    -0.203 F 
HETATM   17  C   UNL     1      25.438  49.678  48.705  1.00  0.00     0.087 A 
HETATM   18  C   UNL     1      24.106  49.873  48.374  1.00  0.00     0.119 A 
HETATM   19  F   UNL     1      23.726  51.028  47.814  1.00  0.00    -0.206 F 
HETATM   20  C   UNL     1      23.155  48.888  48.620  1.00  0.00     0.045 A 
HETATM   21  C   UNL     1      23.541  47.675  49.200  1.00  0.00     0.043 A 
ENDBRANCH  13  14
ENDBRANCH  12  13
ENDBRANCH   9  12
ENDBRANCH   6   8
BRANCH   7  22
HETATM   22  C   UNL     1      28.864  44.089  54.426  1.00  0.00    -0.020 A 
HETATM   23  C   UNL     1      30.025  43.393  54.783  1.00  0.00     0.014 A 
HETATM   24  C   UNL     1      30.742  43.758  55.926  1.00  0.00     0.020 A 
HETATM   25  C   UNL     1      30.300  44.821  56.713  1.00  0.00     0.011 A 
HETATM   26 BR   UNL     1      31.272  45.319  58.255  1.00  0.00    -0.051 Br
HETATM   27  C   UNL     1      29.147  45.523  56.369  1.00  0.00     0.020 A 
HETATM   28  C   UNL     1      28.433  45.159  55.224  1.00  0.00     0.014 A 
ENDBRANCH   7  22
TORSDOF 5
ENDMDL
MODEL 7
REMARK VINA RESULT:      -8.0      7.187     11.059
REMARK  5 active torsions:
REMARK  status: ('A' for Active; 'I' for Inactive)
REMARK    1  A    between atoms: C_6  and  N_7 
REMARK       I    between atoms: N_7  and  C_8 
REMARK    2  A    between atoms: C_8  and  C_9 
REMARK    3  A    between atoms: C_9  and  O_10 
REMARK    4  A    between atoms: O_10  and  C_11 
REMARK    5  A    between atoms: C_20  and  C_21 
ROOT
HETATM    1  C   UNL     1      25.708  49.841  48.030  1.00  0.00     0.073 C 
HETATM    2  C   UNL     1      24.281  49.908  48.432  1.00  0.00     0.065 A 
HETATM    3  N   UNL     1      23.577  51.025  48.212  1.00  0.00    -0.177 NA
HETATM    4  N   UNL     1      22.356  50.742  48.695  1.00  0.00    -0.262 N 
HETATM    5  H   UNL     1      21.620  51.431  48.567  1.00  0.00     0.191 HD
HETATM    6  C   UNL     1      22.253  49.496  49.255  1.00  0.00     0.137 A 
HETATM    7  C   UNL     1      23.496  48.912  49.077  1.00  0.00     0.046 A 
ENDROOT
BRANCH   6   8
HETATM    8  N   UNL     1      21.103  48.939  49.779  1.00  0.00    -0.309 N 
HETATM    9  C   UNL     1      19.974  48.520  49.128  1.00  0.00     0.247 C 
HETATM   10  O   UNL     1      19.112  47.916  49.773  1.00  0.00    -0.271 OA
HETATM   11  H   UNL     1      21.057  48.832  50.788  1.00  0.00     0.170 HD
BRANCH   9  12
HETATM   12  C   UNL     1      19.716  48.930  47.681  1.00  0.00     0.278 C 
BRANCH  12  13
HETATM   13  O   UNL     1      19.486  50.325  47.553  1.00  0.00    -0.339 OA
BRANCH  13  14
HETATM   14  C   UNL     1      18.320  50.791  48.108  1.00  0.00     0.108 A 
HETATM   15  C   UNL     1      18.459  51.790  49.080  1.00  0.00     0.152 A 
HETATM   16  F   UNL     1      19.680  52.238  49.408  1.00  0.00    -0.203 F 
HETATM   17  C   UNL     1      17.353  52.344  49.716  1.00  0.00     0.087 A 
HETATM   18  C   UNL     1      16.090  51.879  49.382  1.00  0.00     0.119 A 
HETATM   19  F   UNL     1      15.013  52.401  49.983  1.00  0.00    -0.206 F 
HETATM   20  C   UNL     1      15.923  50.874  48.436  1.00  0.00     0.045 A 
HETATM   21  C   UNL     1      17.039  50.324  47.798  1.00  0.00     0.043 A 
ENDBRANCH  13  14
ENDBRANCH  12  13
ENDBRANCH   9  12
ENDBRANCH   6   8
BRANCH   7  22
HETATM   22  C   UNL     1      23.869  47.592  49.554  1.00  0.00    -0.020 A 
HETATM   23  C   UNL     1      24.709  47.449  50.664  1.00  0.00     0.014 A 
HETATM   24  C   UNL     1      25.046  46.176  51.132  1.00  0.00     0.020 A 
HETATM   25  C   UNL     1      24.541  45.044  50.492  1.00  0.00     0.011 A 
HETATM   26 BR   UNL     1      24.993  43.323  51.129  1.00  0.00    -0.051 Br
HETATM   27  C   UNL     1      23.703  45.172  49.388  1.00  0.00     0.020 A 
HETATM   28  C   UNL     1      23.364  46.446  48.923  1.00  0.00     0.014 A 
ENDBRANCH   7  22
TORSDOF 5
ENDMDL
MODEL 8
REMARK VINA RESULT:      -8.0      4.758      8.043
REMARK  5 active torsions:
REMARK  status: ('A' for Active; 'I' for Inactive)
REMARK    1  A    between atoms: C_6  and  N_7 
REMARK       I    between atoms: N_7  and  C_8 
REMARK    2  A    between atoms: C_8  and  C_9 
REMARK    3  A    between atoms: C_9  and  O_10 
REMARK    4  A    between atoms: O_10  and  C_11 
REMARK    5  A    between atoms: C_20  and  C_21 
ROOT
HETATM    1  C   UNL     1      28.605  39.926  49.301  1.00  0.00     0.073 C 
HETATM    2  C   UNL     1      27.338  40.645  49.583  1.00  0.00     0.065 A 
HETATM    3  N   UNL     1      26.302  40.529  48.743  1.00  0.00    -0.177 NA
HETATM    4  N   UNL     1      25.349  41.300  49.292  1.00  0.00    -0.262 N 
HETATM    5  H   UNL     1      24.431  41.305  48.857  1.00  0.00     0.191 HD
HETATM    6  C   UNL     1      25.741  41.941  50.437  1.00  0.00     0.137 A 
HETATM    7  C   UNL     1      27.037  41.513  50.670  1.00  0.00     0.046 A 
ENDROOT
BRANCH   6   8
HETATM    8  N   UNL     1      24.944  42.751  51.222  1.00  0.00    -0.309 N 
HETATM    9  C   UNL     1      24.646  44.078  51.067  1.00  0.00     0.247 C 
HETATM   10  O   UNL     1      23.793  44.580  51.805  1.00  0.00    -0.271 OA
HETATM   11  H   UNL     1      24.523  42.330  52.045  1.00  0.00     0.170 HD
BRANCH   9  12
HETATM   12  C   UNL     1      25.462  44.950  50.117  1.00  0.00     0.278 C 
BRANCH  12  13
HETATM   13  O   UNL     1      25.639  46.267  50.619  1.00  0.00    -0.339 OA
BRANCH  13  14
HETATM   14  C   UNL     1      25.077  47.271  49.870  1.00  0.00     0.108 A 
HETATM   15  C   UNL     1      25.929  48.327  49.523  1.00  0.00     0.152 A 
HETATM   16  F   UNL     1      27.212  48.308  49.914  1.00  0.00    -0.203 F 
HETATM   17  C   UNL     1      25.480  49.404  48.766  1.00  0.00     0.087 A 
HETATM   18  C   UNL     1      24.152  49.429  48.364  1.00  0.00     0.119 A 
HETATM   19  F   UNL     1      23.702  50.457  47.634  1.00  0.00    -0.206 F 
HETATM   20  C   UNL     1      23.279  48.404  48.711  1.00  0.00     0.045 A 
HETATM   21  C   UNL     1      23.739  47.322  49.469  1.00  0.00     0.043 A 
ENDBRANCH  13  14
ENDBRANCH  12  13
ENDBRANCH   9  12
ENDBRANCH   6   8
BRANCH   7  22
HETATM   22  C   UNL     1      27.878  41.968  51.763  1.00  0.00    -0.020 A 
HETATM   23  C   UNL     1      28.502  43.220  51.707  1.00  0.00     0.014 A 
HETATM   24  C   UNL     1      29.291  43.661  52.772  1.00  0.00     0.020 A 
HETATM   25  C   UNL     1      29.456  42.852  53.896  1.00  0.00     0.011 A 
HETATM   26 BR   UNL     1      30.520  43.452  55.339  1.00  0.00    -0.051 Br
HETATM   27  C   UNL     1      28.840  41.605  53.966  1.00  0.00     0.020 A 
HETATM   28  C   UNL     1      28.049  41.166  52.901  1.00  0.00     0.014 A 
ENDBRANCH   7  22
TORSDOF 5
ENDMDL
MODEL 9
REMARK VINA RESULT:      -8.0     14.202     16.137
REMARK  5 active torsions:
REMARK  status: ('A' for Active; 'I' for Inactive)
REMARK    1  A    between atoms: C_6  and  N_7 
REMARK       I    between atoms: N_7  and  C_8 
REMARK    2  A    between atoms: C_8  and  C_9 
REMARK    3  A    between atoms: C_9  and  O_10 
REMARK    4  A    between atoms: O_10  and  C_11 
REMARK    5  A    between atoms: C_20  and  C_21 
ROOT
HETATM    1  C   UNL     1      30.980  53.755  41.250  1.00  0.00     0.073 C 
HETATM    2  C   UNL     1      31.023  52.292  41.498  1.00  0.00     0.065 A 
HETATM    3  N   UNL     1      29.916  51.646  41.883  1.00  0.00    -0.177 NA
HETATM    4  N   UNL     1      30.313  50.370  42.019  1.00  0.00    -0.262 N 
HETATM    5  H   UNL     1      29.608  49.672  42.237  1.00  0.00     0.191 HD
HETATM    6  C   UNL     1      31.646  50.172  41.773  1.00  0.00     0.137 A 
HETATM    7  C   UNL     1      32.138  51.413  41.404  1.00  0.00     0.046 A 
ENDROOT
BRANCH   6   8
HETATM    8  N   UNL     1      32.299  48.954  41.795  1.00  0.00    -0.309 N 
HETATM    9  C   UNL     1      32.134  47.873  40.973  1.00  0.00     0.247 C 
HETATM   10  O   UNL     1      32.923  46.929  41.075  1.00  0.00    -0.271 OA
HETATM   11  H   UNL     1      32.988  48.811  42.527  1.00  0.00     0.170 HD
BRANCH   9  12
HETATM   12  C   UNL     1      30.912  47.768  40.065  1.00  0.00     0.278 C 
BRANCH  12  13
HETATM   13  O   UNL     1      31.101  48.449  38.833  1.00  0.00    -0.339 OA
BRANCH  13  14
HETATM   14  C   UNL     1      30.326  49.565  38.642  1.00  0.00     0.108 A 
HETATM   15  C   UNL     1      30.983  50.688  38.124  1.00  0.00     0.152 A 
HETATM   16  F   UNL     1      32.293  50.623  37.838  1.00  0.00    -0.203 F 
HETATM   17  C   UNL     1      30.308  51.880  37.885  1.00  0.00     0.087 A 
HETATM   18  C   UNL     1      28.956  51.952  38.185  1.00  0.00     0.119 A 
HETATM   19  F   UNL     1      28.289  53.090  37.960  1.00  0.00    -0.206 F 
HETATM   20  C   UNL     1      28.281  50.859  38.719  1.00  0.00     0.045 A 
HETATM   21  C   UNL     1      28.966  49.662  38.953  1.00  0.00     0.043 A 
ENDBRANCH  13  14
ENDBRANCH  12  13
ENDBRANCH   9  12
ENDBRANCH   6   8
BRANCH   7  22
HETATM   22  C   UNL     1      33.528  51.694  41.090  1.00  0.00    -0.020 A 
HETATM   23  C   UNL     1      33.882  52.218  39.842  1.00  0.00     0.014 A 
HETATM   24  C   UNL     1      35.219  52.508  39.554  1.00  0.00     0.020 A 
HETATM   25  C   UNL     1      36.202  52.275  40.515  1.00  0.00     0.011 A 
HETATM   26 BR   UNL     1      38.009  52.672  40.127  1.00  0.00    -0.051 Br
HETATM   27  C   UNL     1      35.863  51.755  41.761  1.00  0.00     0.020 A 
HETATM   28  C   UNL     1      34.526  51.469  42.049  1.00  0.00     0.014 A 
ENDBRANCH   7  22
TORSDOF 5
ENDMDL
MODEL 10
REMARK VINA RESULT:      -7.9      8.085     10.630
REMARK  5 active torsions:
REMARK  status: ('A' for Active; 'I' for Inactive)
REMARK    1  A    between atoms: C_6  and  N_7 
REMARK       I    between atoms: N_7  and  C_8 
REMARK    2  A    between atoms: C_8  and  C_9 
REMARK    3  A    between atoms: C_9  and  O_10 
REMARK    4  A    between atoms: O_10  and  C_11 
REMARK    5  A    between atoms: C_20  and  C_21 
ROOT
HETATM    1  C   UNL     1      18.161  51.624  49.944  1.00  0.00     0.073 C 
HETATM    2  C   UNL     1      18.306  50.148  49.996  1.00  0.00     0.065 A 
HETATM    3  N   UNL     1      18.955  49.576  51.018  1.00  0.00    -0.177 NA
HETATM    4  N   UNL     1      18.902  48.262  50.743  1.00  0.00    -0.262 N 
HETATM    5  H   UNL     1      19.273  47.615  51.433  1.00  0.00     0.191 HD
HETATM    6  C   UNL     1      18.275  47.964  49.562  1.00  0.00     0.137 A 
HETATM    7  C   UNL     1      17.850  49.181  49.057  1.00  0.00     0.046 A 
ENDROOT
BRANCH   6   8
HETATM    8  N   UNL     1      18.043  46.694  49.069  1.00  0.00    -0.309 N 
HETATM    9  C   UNL     1      18.890  45.870  48.379  1.00  0.00     0.247 C 
HETATM   10  O   UNL     1      18.529  44.711  48.153  1.00  0.00    -0.271 OA
HETATM   11  H   UNL     1      17.116  46.305  49.211  1.00  0.00     0.170 HD
BRANCH   9  12
HETATM   12  C   UNL     1      20.176  46.416  47.766  1.00  0.00     0.278 C 
BRANCH  12  13
HETATM   13  O   UNL     1      21.103  46.838  48.756  1.00  0.00    -0.339 OA
BRANCH  13  14
HETATM   14  C   UNL     1      21.805  47.982  48.468  1.00  0.00     0.108 A 
HETATM   15  C   UNL     1      23.146  47.997  48.870  1.00  0.00     0.152 A 
HETATM   16  F   UNL     1      23.671  46.928  49.488  1.00  0.00    -0.203 F 
HETATM   17  C   UNL     1      23.964  49.097  48.635  1.00  0.00     0.087 A 
HETATM   18  C   UNL     1      23.423  50.206  48.001  1.00  0.00     0.119 A 
HETATM   19  F   UNL     1      24.194  51.274  47.765  1.00  0.00    -0.206 F 
HETATM   20  C   UNL     1      22.089  50.227  47.608  1.00  0.00     0.045 A 
HETATM   21  C   UNL     1      21.274  49.115  47.844  1.00  0.00     0.043 A 
ENDBRANCH  13  14
ENDBRANCH  12  13
ENDBRANCH   9  12
ENDBRANCH   6   8
BRANCH   7  22
HETATM   22  C   UNL     1      17.168  49.360  47.788  1.00  0.00    -0.020 A 
HETATM   23  C   UNL     1      15.781  49.549  47.746  1.00  0.00     0.014 A 
HETATM   24  C   UNL     1      15.134  49.743  46.522  1.00  0.00     0.020 A 
HETATM   25  C   UNL     1      15.873  49.749  45.339  1.00  0.00     0.011 A 
HETATM   26 BR   UNL     1      14.997  50.017  43.686  1.00  0.00    -0.051 Br
HETATM   27  C   UNL     1      17.252  49.564  45.367  1.00  0.00     0.020 A 
HETATM   28  C   UNL     1      17.899  49.373  46.592  1.00  0.00     0.014 A 
ENDBRANCH   7  22
TORSDOF 5
ENDMDL
