MODEL 1
REMARK VINA RESULT:      -9.4      0.000      0.000
REMARK  7 active torsions:
REMARK  status: ('A' for Active; 'I' for Inactive)
REMARK    1  A    between atoms: N_7  and  C_8 
REMARK    2  A    between atoms: C_8  and  C_9 
REMARK       I    between atoms: C_9  and  N_10 
REMARK    3  A    between atoms: N_10  and  C_11 
REMARK    4  A    between atoms: C_11  and  C_12 
REMARK    5  A    between atoms: C_12  and  C_13 
REMARK    6  A    between atoms: C_12  and  C_23 
REMARK    7  A    between atoms: C_26  and  O_27 
ROOT
HETATM    1  C   UNL     1      24.433  44.979  49.937  1.00  0.00     0.136 C 
ENDROOT
BRANCH   1   2
HETATM    2  N   UNL     1      23.543  45.273  48.826  1.00  0.00    -0.359 N 
HETATM    3  C   UNL     1      22.434  44.484  48.582  1.00  0.00     0.236 C 
HETATM    4  O   UNL     1      22.179  43.471  49.229  1.00  0.00    -0.272 OA
HETATM    5  H   UNL     1      23.565  46.206  48.423  1.00  0.00     0.162 HD
BRANCH   3   6
HETATM    6  C   UNL     1      21.583  44.921  47.392  1.00  0.00     0.239 C 
BRANCH   6   7
HETATM    7  N   UNL     1      20.609  45.913  47.793  1.00  0.00    -0.259 N 
HETATM    8  C   UNL     1      19.388  45.622  48.297  1.00  0.00     0.326 A 
HETATM    9  N   UNL     1      18.735  46.791  48.580  1.00  0.00    -0.324 N 
HETATM   10  O   UNL     1      18.910  44.510  48.449  1.00  0.00    -0.247 OA
HETATM   11  C   UNL     1      19.531  47.973  48.296  1.00  0.00     0.119 A 
HETATM   12  H   UNL     1      17.792  46.786  48.944  1.00  0.00     0.165 HD
HETATM   13  C   UNL     1      19.876  48.751  49.590  1.00  0.00     0.019 C 
HETATM   14  C   UNL     1      20.792  47.266  47.732  1.00  0.00     0.257 A 
HETATM   15  C   UNL     1      18.850  48.825  47.217  1.00  0.00     0.041 C 
HETATM   16  C   UNL     1      18.644  48.997  50.476  1.00  0.00     0.013 C 
HETATM   17  C   UNL     1      20.569  50.090  49.274  1.00  0.00     0.007 C 
HETATM   18  C   UNL     1      19.806  50.930  48.254  1.00  0.00     0.001 C 
HETATM   19  C   UNL     1      19.554  50.157  46.965  1.00  0.00     0.003 C 
HETATM   20  O   UNL     1      21.799  47.829  47.324  1.00  0.00    -0.270 OA
ENDBRANCH   6   7
ENDBRANCH   3   6
ENDBRANCH   1   2
BRANCH   1  21
HETATM   21  C   UNL     1      25.014  46.167  50.737  1.00  0.00     0.071 C 
BRANCH  21  22
HETATM   22  C   UNL     1      25.844  47.157  49.950  1.00  0.00    -0.020 A 
HETATM   23  C   UNL     1      25.351  48.382  49.367  1.00  0.00    -0.001 A 
HETATM   24  C   UNL     1      26.419  49.010  48.725  1.00  0.00     0.042 A 
HETATM   25  C   UNL     1      24.092  49.020  49.337  1.00  0.00     0.014 A 
HETATM   26  C   UNL     1      26.293  50.231  48.053  1.00  0.00     0.030 A 
HETATM   27  N   UNL     1      27.522  48.214  48.909  1.00  0.00    -0.365 N 
HETATM   28  C   UNL     1      25.036  50.839  48.040  1.00  0.00     0.002 A 
HETATM   29  C   UNL     1      23.949  50.244  48.674  1.00  0.00     0.001 A 
HETATM   30  H   UNL     1      28.447  48.429  48.566  1.00  0.00     0.165 HD
HETATM   31  C   UNL     1      27.193  47.107  49.643  1.00  0.00     0.097 A 
ENDBRANCH  21  22
BRANCH  21  32
HETATM   32  C   UNL     1      25.794  45.852  52.006  1.00  0.00    -0.048 A 
HETATM   33  C   UNL     1      25.830  46.804  53.040  1.00  0.00     0.011 A 
HETATM   34  C   UNL     1      26.533  46.558  54.223  1.00  0.00     0.037 A 
HETATM   35  C   UNL     1      27.223  45.361  54.405  1.00  0.00     0.068 A 
HETATM   36  C   UNL     1      27.206  44.411  53.387  1.00  0.00     0.037 A 
HETATM   37  C   UNL     1      26.500  44.655  52.201  1.00  0.00     0.011 A 
BRANCH  35  38
HETATM   38  O   UNL     1      27.868  45.247  55.605  1.00  0.00    -0.356 OA
HETATM   39  C   UNL     1      29.184  45.781  55.679  1.00  0.00     0.210 C 
ENDBRANCH  35  38
ENDBRANCH  21  32
ENDBRANCH   1  21
TORSDOF 7
ENDMDL
MODEL 2
REMARK VINA RESULT:      -9.1      1.479      2.045
REMARK  7 active torsions:
REMARK  status: ('A' for Active; 'I' for Inactive)
REMARK    1  A    between atoms: N_7  and  C_8 
REMARK    2  A    between atoms: C_8  and  C_9 
REMARK       I    between atoms: C_9  and  N_10 
REMARK    3  A    between atoms: N_10  and  C_11 
REMARK    4  A    between atoms: C_11  and  C_12 
REMARK    5  A    between atoms: C_12  and  C_13 
REMARK    6  A    between atoms: C_12  and  C_23 
REMARK    7  A    between atoms: C_26  and  O_27 
ROOT
HETATM    1  C   UNL     1      23.739  45.095  49.598  1.00  0.00     0.136 C 
ENDROOT
BRANCH   1   2
HETATM    2  N   UNL     1      22.300  45.281  49.535  1.00  0.00    -0.359 N 
HETATM    3  C   UNL     1      21.701  45.770  48.388  1.00  0.00     0.236 C 
HETATM    4  O   UNL     1      22.341  46.133  47.404  1.00  0.00    -0.272 OA
HETATM    5  H   UNL     1      21.717  44.785  50.204  1.00  0.00     0.162 HD
BRANCH   3   6
HETATM    6  C   UNL     1      20.182  45.899  48.461  1.00  0.00     0.239 C 
BRANCH   6   7
HETATM    7  N   UNL     1      19.746  47.164  47.909  1.00  0.00    -0.259 N 
HETATM    8  C   UNL     1      19.280  47.325  46.650  1.00  0.00     0.326 A 
HETATM    9  N   UNL     1      18.946  48.640  46.466  1.00  0.00    -0.324 N 
HETATM   10  O   UNL     1      19.196  46.465  45.789  1.00  0.00    -0.247 OA
HETATM   11  C   UNL     1      19.152  49.454  47.652  1.00  0.00     0.119 A 
HETATM   12  H   UNL     1      18.600  48.970  45.575  1.00  0.00     0.165 HD
HETATM   13  C   UNL     1      17.813  49.991  48.214  1.00  0.00     0.019 C 
HETATM   14  C   UNL     1      19.732  48.353  48.582  1.00  0.00     0.257 A 
HETATM   15  C   UNL     1      20.196  50.542  47.374  1.00  0.00     0.041 C 
HETATM   16  C   UNL     1      16.937  50.638  47.129  1.00  0.00     0.013 C 
HETATM   17  C   UNL     1      18.045  50.989  49.364  1.00  0.00     0.007 C 
HETATM   18  C   UNL     1      19.032  52.095  49.003  1.00  0.00     0.001 C 
HETATM   19  C   UNL     1      20.365  51.528  48.530  1.00  0.00     0.003 C 
HETATM   20  O   UNL     1      20.091  48.519  49.739  1.00  0.00    -0.270 OA
ENDBRANCH   6   7
ENDBRANCH   3   6
ENDBRANCH   1   2
BRANCH   1  21
HETATM   21  C   UNL     1      24.547  45.997  50.561  1.00  0.00     0.071 C 
BRANCH  21  22
HETATM   22  C   UNL     1      25.455  47.018  49.911  1.00  0.00    -0.020 A 
HETATM   23  C   UNL     1      25.019  48.237  49.274  1.00  0.00    -0.001 A 
HETATM   24  C   UNL     1      26.151  48.900  48.799  1.00  0.00     0.042 A 
HETATM   25  C   UNL     1      23.760  48.843  49.066  1.00  0.00     0.014 A 
HETATM   26  C   UNL     1      26.091  50.126  48.127  1.00  0.00     0.030 A 
HETATM   27  N   UNL     1      27.237  48.130  49.135  1.00  0.00    -0.365 N 
HETATM   28  C   UNL     1      24.833  50.701  47.936  1.00  0.00     0.002 A 
HETATM   29  C   UNL     1      23.682  50.071  48.399  1.00  0.00     0.001 A 
HETATM   30  H   UNL     1      28.195  48.374  48.933  1.00  0.00     0.165 HD
HETATM   31  C   UNL     1      26.835  47.007  49.804  1.00  0.00     0.097 A 
ENDBRANCH  21  22
BRANCH  21  32
HETATM   32  C   UNL     1      25.361  45.317  51.653  1.00  0.00    -0.048 A 
HETATM   33  C   UNL     1      25.857  44.022  51.430  1.00  0.00     0.011 A 
HETATM   34  C   UNL     1      26.610  43.359  52.404  1.00  0.00     0.037 A 
HETATM   35  C   UNL     1      26.883  43.968  53.628  1.00  0.00     0.068 A 
HETATM   36  C   UNL     1      26.390  45.248  53.870  1.00  0.00     0.037 A 
HETATM   37  C   UNL     1      25.638  45.913  52.893  1.00  0.00     0.011 A 
BRANCH  35  38
HETATM   38  O   UNL     1      27.628  43.213  54.491  1.00  0.00    -0.356 OA
HETATM   39  C   UNL     1      29.030  43.450  54.504  1.00  0.00     0.210 C 
ENDBRANCH  35  38
ENDBRANCH  21  32
ENDBRANCH   1  21
TORSDOF 7
ENDMDL
MODEL 3
REMARK VINA RESULT:      -9.0      1.267      2.286
REMARK  7 active torsions:
REMARK  status: ('A' for Active; 'I' for Inactive)
REMARK    1  A    between atoms: N_7  and  C_8 
REMARK    2  A    between atoms: C_8  and  C_9 
REMARK       I    between atoms: C_9  and  N_10 
REMARK    3  A    between atoms: N_10  and  C_11 
REMARK    4  A    between atoms: C_11  and  C_12 
REMARK    5  A    between atoms: C_12  and  C_13 
REMARK    6  A    between atoms: C_12  and  C_23 
REMARK    7  A    between atoms: C_26  and  O_27 
ROOT
HETATM    1  C   UNL     1      24.598  44.756  50.470  1.00  0.00     0.136 C 
ENDROOT
BRANCH   1   2
HETATM    2  N   UNL     1      23.787  44.691  49.266  1.00  0.00    -0.359 N 
HETATM    3  C   UNL     1      22.522  44.134  49.298  1.00  0.00     0.236 C 
HETATM    4  O   UNL     1      22.046  43.612  50.303  1.00  0.00    -0.272 OA
HETATM    5  H   UNL     1      24.021  45.305  48.491  1.00  0.00     0.162 HD
BRANCH   3   6
HETATM    6  C   UNL     1      21.781  44.146  47.963  1.00  0.00     0.239 C 
BRANCH   6   7
HETATM    7  N   UNL     1      21.070  45.393  47.780  1.00  0.00    -0.259 N 
HETATM    8  C   UNL     1      21.625  46.521  47.282  1.00  0.00     0.326 A 
HETATM    9  N   UNL     1      20.670  47.501  47.234  1.00  0.00    -0.324 N 
HETATM   10  O   UNL     1      22.790  46.677  46.957  1.00  0.00    -0.247 OA
HETATM   11  C   UNL     1      19.365  47.051  47.687  1.00  0.00     0.119 A 
HETATM   12  H   UNL     1      20.896  48.433  46.912  1.00  0.00     0.165 HD
HETATM   13  C   UNL     1      18.329  47.056  46.537  1.00  0.00     0.019 C 
HETATM   14  C   UNL     1      19.750  45.596  48.070  1.00  0.00     0.257 A 
HETATM   15  C   UNL     1      18.930  47.846  48.925  1.00  0.00     0.041 C 
HETATM   16  C   UNL     1      18.322  48.381  45.757  1.00  0.00     0.013 C 
HETATM   17  C   UNL     1      16.912  46.745  47.054  1.00  0.00     0.007 C 
HETATM   18  C   UNL     1      16.503  47.621  48.234  1.00  0.00     0.001 C 
HETATM   19  C   UNL     1      17.506  47.529  49.378  1.00  0.00     0.003 C 
HETATM   20  O   UNL     1      18.986  44.757  48.529  1.00  0.00    -0.270 OA
ENDBRANCH   6   7
ENDBRANCH   3   6
ENDBRANCH   1   2
BRANCH   1  21
HETATM   21  C   UNL     1      24.847  46.144  51.104  1.00  0.00     0.071 C 
BRANCH  21  22
HETATM   22  C   UNL     1      25.395  47.209  50.180  1.00  0.00    -0.020 A 
HETATM   23  C   UNL     1      24.621  48.265  49.571  1.00  0.00    -0.001 A 
HETATM   24  C   UNL     1      25.486  49.033  48.790  1.00  0.00     0.042 A 
HETATM   25  C   UNL     1      23.262  48.642  49.621  1.00  0.00     0.014 A 
HETATM   26  C   UNL     1      25.064  50.148  48.057  1.00  0.00     0.030 A 
HETATM   27  N   UNL     1      26.737  48.482  48.917  1.00  0.00    -0.365 N 
HETATM   28  C   UNL     1      23.714  50.498  48.127  1.00  0.00     0.002 A 
HETATM   29  C   UNL     1      22.823  49.758  48.898  1.00  0.00     0.001 A 
HETATM   30  H   UNL     1      27.569  48.844  48.474  1.00  0.00     0.165 HD
HETATM   31  C   UNL     1      26.697  47.397  49.748  1.00  0.00     0.097 A 
ENDBRANCH  21  22
BRANCH  21  32
HETATM   32  C   UNL     1      25.676  46.203  52.380  1.00  0.00    -0.048 A 
HETATM   33  C   UNL     1      25.614  47.354  53.183  1.00  0.00     0.011 A 
HETATM   34  C   UNL     1      26.358  47.452  54.363  1.00  0.00     0.037 A 
HETATM   35  C   UNL     1      27.185  46.408  54.771  1.00  0.00     0.068 A 
HETATM   36  C   UNL     1      27.266  45.263  53.982  1.00  0.00     0.037 A 
HETATM   37  C   UNL     1      26.520  45.163  52.800  1.00  0.00     0.011 A 
BRANCH  35  38
HETATM   38  O   UNL     1      27.856  46.630  55.941  1.00  0.00    -0.356 OA
HETATM   39  C   UNL     1      29.172  46.101  56.037  1.00  0.00     0.210 C 
ENDBRANCH  35  38
ENDBRANCH  21  32
ENDBRANCH   1  21
TORSDOF 7
ENDMDL
MODEL 4
REMARK VINA RESULT:      -9.0      9.917     11.737
REMARK  7 active torsions:
REMARK  status: ('A' for Active; 'I' for Inactive)
REMARK    1  A    between atoms: N_7  and  C_8 
REMARK    2  A    between atoms: C_8  and  C_9 
REMARK       I    between atoms: C_9  and  N_10 
REMARK    3  A    between atoms: N_10  and  C_11 
REMARK    4  A    between atoms: C_11  and  C_12 
REMARK    5  A    between atoms: C_12  and  C_13 
REMARK    6  A    between atoms: C_12  and  C_23 
REMARK    7  A    between atoms: C_26  and  O_27 
ROOT
HETATM    1  C   UNL     1      31.760  47.956  40.260  1.00  0.00     0.136 C 
ENDROOT
BRANCH   1   2
HETATM    2  N   UNL     1      30.768  47.934  39.198  1.00  0.00    -0.359 N 
HETATM    3  C   UNL     1      29.914  46.857  39.052  1.00  0.00     0.236 C 
HETATM    4  O   UNL     1      29.985  45.849  39.750  1.00  0.00    -0.272 OA
HETATM    5  H   UNL     1      30.508  48.814  38.760  1.00  0.00     0.162 HD
BRANCH   3   6
HETATM    6  C   UNL     1      28.916  46.979  37.903  1.00  0.00     0.239 C 
BRANCH   6   7
HETATM    7  N   UNL     1      27.685  47.593  38.353  1.00  0.00    -0.259 N 
HETATM    8  C   UNL     1      27.458  48.926  38.364  1.00  0.00     0.326 A 
HETATM    9  N   UNL     1      26.194  49.156  38.835  1.00  0.00    -0.324 N 
HETATM   10  O   UNL     1      28.246  49.801  38.046  1.00  0.00    -0.247 OA
HETATM   11  C   UNL     1      25.469  47.937  39.148  1.00  0.00     0.119 A 
HETATM   12  H   UNL     1      25.842  50.098  38.943  1.00  0.00     0.165 HD
HETATM   13  C   UNL     1      24.253  47.740  38.210  1.00  0.00     0.019 C 
HETATM   14  C   UNL     1      26.590  46.916  38.811  1.00  0.00     0.257 A 
HETATM   15  C   UNL     1      25.121  47.895  40.641  1.00  0.00     0.041 C 
HETATM   16  C   UNL     1      23.381  49.002  38.103  1.00  0.00     0.013 C 
HETATM   17  C   UNL     1      23.390  46.543  38.651  1.00  0.00     0.007 C 
HETATM   18  C   UNL     1      23.007  46.596  40.127  1.00  0.00     0.001 C 
HETATM   19  C   UNL     1      24.234  46.710  41.022  1.00  0.00     0.003 C 
HETATM   20  O   UNL     1      26.496  45.700  38.911  1.00  0.00    -0.270 OA
ENDBRANCH   6   7
ENDBRANCH   3   6
ENDBRANCH   1   2
BRANCH   1  21
HETATM   21  C   UNL     1      31.375  48.623  41.601  1.00  0.00     0.071 C 
BRANCH  21  22
HETATM   22  C   UNL     1      29.995  49.241  41.664  1.00  0.00    -0.020 A 
HETATM   23  C   UNL     1      29.645  50.553  41.175  1.00  0.00    -0.001 A 
HETATM   24  C   UNL     1      28.286  50.753  41.421  1.00  0.00     0.042 A 
HETATM   25  C   UNL     1      30.362  51.588  40.536  1.00  0.00     0.014 A 
HETATM   26  C   UNL     1      27.612  51.927  41.068  1.00  0.00     0.030 A 
HETATM   27  N   UNL     1      27.817  49.614  42.026  1.00  0.00    -0.365 N 
HETATM   28  C   UNL     1      28.347  52.933  40.437  1.00  0.00     0.002 A 
HETATM   29  C   UNL     1      29.703  52.768  40.172  1.00  0.00     0.001 A 
HETATM   30  H   UNL     1      26.857  49.467  42.303  1.00  0.00     0.165 HD
HETATM   31  C   UNL     1      28.826  48.702  42.172  1.00  0.00     0.097 A 
ENDBRANCH  21  22
BRANCH  21  32
HETATM   32  C   UNL     1      32.340  49.642  42.188  1.00  0.00    -0.048 A 
HETATM   33  C   UNL     1      33.592  49.829  41.578  1.00  0.00     0.011 A 
HETATM   34  C   UNL     1      34.511  50.754  42.083  1.00  0.00     0.037 A 
HETATM   35  C   UNL     1      34.208  51.513  43.212  1.00  0.00     0.068 A 
HETATM   36  C   UNL     1      32.976  51.333  43.837  1.00  0.00     0.037 A 
HETATM   37  C   UNL     1      32.054  50.407  43.329  1.00  0.00     0.011 A 
BRANCH  35  38
HETATM   38  O   UNL     1      35.191  52.379  43.602  1.00  0.00    -0.356 OA
HETATM   39  C   UNL     1      36.385  52.384  42.830  1.00  0.00     0.210 C 
ENDBRANCH  35  38
ENDBRANCH  21  32
ENDBRANCH   1  21
TORSDOF 7
ENDMDL
MODEL 5
REMARK VINA RESULT:      -9.0      1.982      4.689
REMARK  7 active torsions:
REMARK  status: ('A' for Active; 'I' for Inactive)
REMARK    1  A    between atoms: N_7  and  C_8 
REMARK    2  A    between atoms: C_8  and  C_9 
REMARK       I    between atoms: C_9  and  N_10 
REMARK    3  A    between atoms: N_10  and  C_11 
REMARK    4  A    between atoms: C_11  and  C_12 
REMARK    5  A    between atoms: C_12  and  C_13 
REMARK    6  A    between atoms: C_12  and  C_23 
REMARK    7  A    between atoms: C_26  and  O_27 
ROOT
HETATM    1  C   UNL     1      23.787  44.195  50.510  1.00  0.00     0.136 C 
ENDROOT
BRANCH   1   2
HETATM    2  N   UNL     1      23.190  44.799  49.331  1.00  0.00    -0.359 N 
HETATM    3  C   UNL     1      22.293  44.091  48.553  1.00  0.00     0.236 C 
HETATM    4  O   UNL     1      22.006  42.916  48.766  1.00  0.00    -0.272 OA
HETATM    5  H   UNL     1      23.200  45.812  49.247  1.00  0.00     0.162 HD
BRANCH   3   6
HETATM    6  C   UNL     1      21.737  44.856  47.355  1.00  0.00     0.239 C 
BRANCH   6   7
HETATM    7  N   UNL     1      20.800  45.873  47.783  1.00  0.00    -0.259 N 
HETATM    8  C   UNL     1      19.579  45.612  48.303  1.00  0.00     0.326 A 
HETATM    9  N   UNL     1      18.966  46.797  48.611  1.00  0.00    -0.324 N 
HETATM   10  O   UNL     1      19.069  44.514  48.450  1.00  0.00    -0.247 OA
HETATM   11  C   UNL     1      19.793  47.959  48.329  1.00  0.00     0.119 A 
HETATM   12  H   UNL     1      18.029  46.817  48.989  1.00  0.00     0.165 HD
HETATM   13  C   UNL     1      20.182  48.709  49.626  1.00  0.00     0.019 C 
HETATM   14  C   UNL     1      21.023  47.220  47.735  1.00  0.00     0.257 A 
HETATM   15  C   UNL     1      19.121  48.843  47.271  1.00  0.00     0.041 C 
HETATM   16  C   UNL     1      18.972  48.981  50.534  1.00  0.00     0.013 C 
HETATM   17  C   UNL     1      20.911  50.030  49.315  1.00  0.00     0.007 C 
HETATM   18  C   UNL     1      20.158  50.905  48.317  1.00  0.00     0.001 C 
HETATM   19  C   UNL     1      19.862  50.157  47.023  1.00  0.00     0.003 C 
HETATM   20  O   UNL     1      22.040  47.757  47.318  1.00  0.00    -0.270 OA
ENDBRANCH   6   7
ENDBRANCH   3   6
ENDBRANCH   1   2
BRANCH   1  21
HETATM   21  C   UNL     1      25.292  44.436  50.767  1.00  0.00     0.071 C 
BRANCH  21  22
HETATM   22  C   UNL     1      25.764  44.237  52.191  1.00  0.00    -0.020 A 
HETATM   23  C   UNL     1      27.078  43.783  52.579  1.00  0.00    -0.001 A 
HETATM   24  C   UNL     1      27.116  43.728  53.973  1.00  0.00     0.042 A 
HETATM   25  C   UNL     1      28.244  43.422  51.869  1.00  0.00     0.014 A 
HETATM   26  C   UNL     1      28.250  43.328  54.689  1.00  0.00     0.030 A 
HETATM   27  N   UNL     1      25.887  44.137  54.425  1.00  0.00    -0.365 N 
HETATM   28  C   UNL     1      29.389  42.977  53.960  1.00  0.00     0.002 A 
HETATM   29  C   UNL     1      29.389  43.024  52.569  1.00  0.00     0.001 A 
HETATM   30  H   UNL     1      25.631  44.215  55.398  1.00  0.00     0.165 HD
HETATM   31  C   UNL     1      25.072  44.449  53.371  1.00  0.00     0.097 A 
ENDBRANCH  21  22
BRANCH  21  32
HETATM   32  C   UNL     1      25.893  45.749  50.285  1.00  0.00    -0.048 A 
HETATM   33  C   UNL     1      25.179  46.943  50.490  1.00  0.00     0.011 A 
HETATM   34  C   UNL     1      25.692  48.172  50.064  1.00  0.00     0.037 A 
HETATM   35  C   UNL     1      26.925  48.244  49.419  1.00  0.00     0.068 A 
HETATM   36  C   UNL     1      27.641  47.069  49.199  1.00  0.00     0.037 A 
HETATM   37  C   UNL     1      27.129  45.837  49.627  1.00  0.00     0.011 A 
BRANCH  35  38
HETATM   38  O   UNL     1      27.310  49.504  49.055  1.00  0.00    -0.356 OA
HETATM   39  C   UNL     1      26.516  50.159  48.075  1.00  0.00     0.210 C 
ENDBRANCH  35  38
ENDBRANCH  21  32
ENDBRANCH   1  21
TORSDOF 7
ENDMDL
MODEL 6
REMARK VINA RESULT:      -8.9      6.887     10.514
REMARK  7 active torsions:
REMARK  status: ('A' for Active; 'I' for Inactive)
REMARK    1  A    between atoms: N_7  and  C_8 
REMARK    2  A    between atoms: C_8  and  C_9 
REMARK       I    between atoms: C_9  and  N_10 
REMARK    3  A    between atoms: N_10  and  C_11 
REMARK    4  A    between atoms: C_11  and  C_12 
REMARK    5  A    between atoms: C_12  and  C_13 
REMARK    6  A    between atoms: C_12  and  C_23 
REMARK    7  A    between atoms: C_26  and  O_27 
ROOT
HETATM    1  C   UNL     1      17.400  52.628  49.623  1.00  0.00     0.136 C 
ENDROOT
BRANCH   1   2
HETATM    2  N   UNL     1      16.322  53.501  49.190  1.00  0.00    -0.359 N 
HETATM    3  C   UNL     1      15.009  53.216  49.516  1.00  0.00     0.236 C 
HETATM    4  O   UNL     1      14.675  52.198  50.116  1.00  0.00    -0.272 OA
HETATM    5  H   UNL     1      16.551  54.452  48.912  1.00  0.00     0.162 HD
BRANCH   3   6
HETATM    6  C   UNL     1      13.986  54.229  49.006  1.00  0.00     0.239 C 
BRANCH   6   7
HETATM    7  N   UNL     1      13.560  55.111  50.071  1.00  0.00    -0.259 N 
HETATM    8  C   UNL     1      12.394  54.983  50.745  1.00  0.00     0.326 A 
HETATM    9  N   UNL     1      12.318  55.972  51.689  1.00  0.00    -0.324 N 
HETATM   10  O   UNL     1      11.522  54.156  50.541  1.00  0.00    -0.247 OA
HETATM   11  C   UNL     1      13.491  56.829  51.716  1.00  0.00     0.119 A 
HETATM   12  H   UNL     1      11.505  56.063  52.283  1.00  0.00     0.165 HD
HETATM   13  C   UNL     1      14.272  56.683  53.045  1.00  0.00     0.019 C 
HETATM   14  C   UNL     1      14.275  56.173  50.547  1.00  0.00     0.257 A 
HETATM   15  C   UNL     1      13.101  58.272  51.374  1.00  0.00     0.041 C 
HETATM   16  C   UNL     1      13.362  56.793  54.278  1.00  0.00     0.013 C 
HETATM   17  C   UNL     1      15.414  57.712  53.143  1.00  0.00     0.007 C 
HETATM   18  C   UNL     1      14.952  59.141  52.872  1.00  0.00     0.001 C 
HETATM   19  C   UNL     1      14.257  59.261  51.520  1.00  0.00     0.003 C 
HETATM   20  O   UNL     1      15.370  56.534  50.137  1.00  0.00    -0.270 OA
ENDBRANCH   6   7
ENDBRANCH   3   6
ENDBRANCH   1   2
BRANCH   1  21
HETATM   21  C   UNL     1      18.028  51.675  48.579  1.00  0.00     0.071 C 
BRANCH  21  22
HETATM   22  C   UNL     1      17.264  50.400  48.298  1.00  0.00    -0.020 A 
HETATM   23  C   UNL     1      16.218  50.251  47.316  1.00  0.00    -0.001 A 
HETATM   24  C   UNL     1      15.767  48.932  47.366  1.00  0.00     0.042 A 
HETATM   25  C   UNL     1      15.618  51.121  46.379  1.00  0.00     0.014 A 
HETATM   26  C   UNL     1      14.751  48.441  46.539  1.00  0.00     0.030 A 
HETATM   27  N   UNL     1      16.507  48.292  48.329  1.00  0.00    -0.365 N 
HETATM   28  C   UNL     1      14.177  49.323  45.622  1.00  0.00     0.002 A 
HETATM   29  C   UNL     1      14.603  50.646  45.540  1.00  0.00     0.001 A 
HETATM   30  H   UNL     1      16.410  47.317  48.572  1.00  0.00     0.165 HD
HETATM   31  C   UNL     1      17.408  49.156  48.889  1.00  0.00     0.097 A 
ENDBRANCH  21  22
BRANCH  21  32
HETATM   32  C   UNL     1      19.486  51.282  48.765  1.00  0.00    -0.048 A 
HETATM   33  C   UNL     1      20.042  51.308  50.055  1.00  0.00     0.011 A 
HETATM   34  C   UNL     1      21.377  50.955  50.274  1.00  0.00     0.037 A 
HETATM   35  C   UNL     1      22.194  50.572  49.211  1.00  0.00     0.068 A 
HETATM   36  C   UNL     1      21.663  50.551  47.924  1.00  0.00     0.037 A 
HETATM   37  C   UNL     1      20.324  50.903  47.705  1.00  0.00     0.011 A 
BRANCH  35  38
HETATM   38  O   UNL     1      23.477  50.252  49.561  1.00  0.00    -0.356 OA
HETATM   39  C   UNL     1      24.285  49.653  48.556  1.00  0.00     0.210 C 
ENDBRANCH  35  38
ENDBRANCH  21  32
ENDBRANCH   1  21
TORSDOF 7
ENDMDL
MODEL 7
REMARK VINA RESULT:      -8.8      3.135      5.118
REMARK  7 active torsions:
REMARK  status: ('A' for Active; 'I' for Inactive)
REMARK    1  A    between atoms: N_7  and  C_8 
REMARK    2  A    between atoms: C_8  and  C_9 
REMARK       I    between atoms: C_9  and  N_10 
REMARK    3  A    between atoms: N_10  and  C_11 
REMARK    4  A    between atoms: C_11  and  C_12 
REMARK    5  A    between atoms: C_12  and  C_13 
REMARK    6  A    between atoms: C_12  and  C_23 
REMARK    7  A    between atoms: C_26  and  O_27 
ROOT
HETATM    1  C   UNL     1      25.826  44.556  51.482  1.00  0.00     0.136 C 
ENDROOT
BRANCH   1   2
HETATM    2  N   UNL     1      25.619  45.561  50.452  1.00  0.00    -0.359 N 
HETATM    3  C   UNL     1      25.230  46.844  50.787  1.00  0.00     0.236 C 
HETATM    4  O   UNL     1      24.975  47.186  51.939  1.00  0.00    -0.272 OA
HETATM    5  H   UNL     1      26.038  45.410  49.538  1.00  0.00     0.162 HD
BRANCH   3   6
HETATM    6  C   UNL     1      25.065  47.795  49.603  1.00  0.00     0.239 C 
BRANCH   6   7
HETATM    7  N   UNL     1      23.665  47.998  49.298  1.00  0.00    -0.259 N 
HETATM    8  C   UNL     1      22.802  47.005  48.986  1.00  0.00     0.326 A 
HETATM    9  N   UNL     1      21.563  47.546  48.770  1.00  0.00    -0.324 N 
HETATM   10  O   UNL     1      23.066  45.819  48.873  1.00  0.00    -0.247 OA
HETATM   11  C   UNL     1      21.526  48.985  48.964  1.00  0.00     0.119 A 
HETATM   12  H   UNL     1      20.781  46.965  48.498  1.00  0.00     0.165 HD
HETATM   13  C   UNL     1      20.638  49.375  50.170  1.00  0.00     0.019 C 
HETATM   14  C   UNL     1      23.027  49.206  49.296  1.00  0.00     0.257 A 
HETATM   15  C   UNL     1      21.146  49.687  47.654  1.00  0.00     0.041 C 
HETATM   16  C   UNL     1      19.261  48.691  50.133  1.00  0.00     0.013 C 
HETATM   17  C   UNL     1      20.462  50.902  50.270  1.00  0.00     0.007 C 
HETATM   18  C   UNL     1      20.005  51.536  48.959  1.00  0.00     0.001 C 
HETATM   19  C   UNL     1      20.947  51.194  47.811  1.00  0.00     0.003 C 
HETATM   20  O   UNL     1      23.547  50.285  49.545  1.00  0.00    -0.270 OA
ENDBRANCH   6   7
ENDBRANCH   3   6
ENDBRANCH   1   2
BRANCH   1  21
HETATM   21  C   UNL     1      27.073  43.648  51.371  1.00  0.00     0.071 C 
BRANCH  21  22
HETATM   22  C   UNL     1      26.808  42.185  51.093  1.00  0.00    -0.020 A 
HETATM   23  C   UNL     1      26.891  41.553  49.798  1.00  0.00    -0.001 A 
HETATM   24  C   UNL     1      26.572  40.204  49.960  1.00  0.00     0.042 A 
HETATM   25  C   UNL     1      27.218  42.006  48.502  1.00  0.00     0.014 A 
HETATM   26  C   UNL     1      26.558  39.292  48.898  1.00  0.00     0.030 A 
HETATM   27  N   UNL     1      26.312  40.010  51.293  1.00  0.00    -0.365 N 
HETATM   28  C   UNL     1      26.887  39.768  47.628  1.00  0.00     0.002 A 
HETATM   29  C   UNL     1      27.214  41.106  47.429  1.00  0.00     0.001 A 
HETATM   30  H   UNL     1      26.071  39.121  51.706  1.00  0.00     0.165 HD
HETATM   31  C   UNL     1      26.455  41.184  51.981  1.00  0.00     0.097 A 
ENDBRANCH  21  22
BRANCH  21  32
HETATM   32  C   UNL     1      28.091  43.702  52.501  1.00  0.00    -0.048 A 
HETATM   33  C   UNL     1      27.839  44.528  53.610  1.00  0.00     0.011 A 
HETATM   34  C   UNL     1      28.746  44.609  54.671  1.00  0.00     0.037 A 
HETATM   35  C   UNL     1      29.930  43.873  54.653  1.00  0.00     0.068 A 
HETATM   36  C   UNL     1      30.201  43.058  53.557  1.00  0.00     0.037 A 
HETATM   37  C   UNL     1      29.291  42.975  52.494  1.00  0.00     0.011 A 
BRANCH  35  38
HETATM   38  O   UNL     1      30.728  44.042  55.750  1.00  0.00    -0.356 OA
HETATM   39  C   UNL     1      30.407  45.124  56.615  1.00  0.00     0.210 C 
ENDBRANCH  35  38
ENDBRANCH  21  32
ENDBRANCH   1  21
TORSDOF 7
ENDMDL
MODEL 8
REMARK VINA RESULT:      -8.7      5.213      9.251
REMARK  7 active torsions:
REMARK  status: ('A' for Active; 'I' for Inactive)
REMARK    1  A    between atoms: N_7  and  C_8 
REMARK    2  A    between atoms: C_8  and  C_9 
REMARK       I    between atoms: C_9  and  N_10 
REMARK    3  A    between atoms: N_10  and  C_11 
REMARK    4  A    between atoms: C_11  and  C_12 
REMARK    5  A    between atoms: C_12  and  C_13 
REMARK    6  A    between atoms: C_12  and  C_23 
REMARK    7  A    between atoms: C_26  and  O_27 
ROOT
HETATM    1  C   UNL     1      27.710  41.859  52.966  1.00  0.00     0.136 C 
ENDROOT
BRANCH   1   2
HETATM    2  N   UNL     1      28.378  40.851  52.160  1.00  0.00    -0.359 N 
HETATM    3  C   UNL     1      27.790  40.366  51.007  1.00  0.00     0.236 C 
HETATM    4  O   UNL     1      26.665  40.698  50.640  1.00  0.00    -0.272 OA
HETATM    5  H   UNL     1      29.380  40.724  52.276  1.00  0.00     0.162 HD
BRANCH   3   6
HETATM    6  C   UNL     1      28.612  39.323  50.255  1.00  0.00     0.239 C 
BRANCH   6   7
HETATM    7  N   UNL     1      27.939  38.914  49.042  1.00  0.00    -0.259 N 
HETATM    8  C   UNL     1      27.177  37.802  48.931  1.00  0.00     0.326 A 
HETATM    9  N   UNL     1      26.684  37.727  47.656  1.00  0.00    -0.324 N 
HETATM   10  O   UNL     1      26.976  36.968  49.798  1.00  0.00    -0.247 OA
HETATM   11  C   UNL     1      27.084  38.848  46.822  1.00  0.00     0.119 A 
HETATM   12  H   UNL     1      26.108  36.949  47.364  1.00  0.00     0.165 HD
HETATM   13  C   UNL     1      25.869  39.718  46.417  1.00  0.00     0.019 C 
HETATM   14  C   UNL     1      27.969  39.594  47.857  1.00  0.00     0.257 A 
HETATM   15  C   UNL     1      27.923  38.355  45.637  1.00  0.00     0.041 C 
HETATM   16  C   UNL     1      24.704  38.882  45.862  1.00  0.00     0.013 C 
HETATM   17  C   UNL     1      26.267  40.802  45.397  1.00  0.00     0.007 C 
HETATM   18  C   UNL     1      27.030  40.242  44.200  1.00  0.00     0.001 C 
HETATM   19  C   UNL     1      28.263  39.459  44.636  1.00  0.00     0.003 C 
HETATM   20  O   UNL     1      28.572  40.639  47.653  1.00  0.00    -0.270 OA
ENDBRANCH   6   7
ENDBRANCH   3   6
ENDBRANCH   1   2
BRANCH   1  21
HETATM   21  C   UNL     1      27.892  43.343  52.571  1.00  0.00     0.071 C 
BRANCH  21  22
HETATM   22  C   UNL     1      28.168  44.305  53.707  1.00  0.00    -0.020 A 
HETATM   23  C   UNL     1      29.213  44.156  54.691  1.00  0.00    -0.001 A 
HETATM   24  C   UNL     1      29.136  45.242  55.564  1.00  0.00     0.042 A 
HETATM   25  C   UNL     1      30.226  43.198  54.913  1.00  0.00     0.014 A 
HETATM   26  C   UNL     1      30.009  45.416  56.644  1.00  0.00     0.030 A 
HETATM   27  N   UNL     1      28.097  46.029  55.134  1.00  0.00    -0.365 N 
HETATM   28  C   UNL     1      31.001  44.453  56.839  1.00  0.00     0.002 A 
HETATM   29  C   UNL     1      31.111  43.358  55.986  1.00  0.00     0.001 A 
HETATM   30  H   UNL     1      27.819  46.897  55.567  1.00  0.00     0.165 HD
HETATM   31  C   UNL     1      27.515  45.483  54.023  1.00  0.00     0.097 A 
ENDBRANCH  21  22
BRANCH  21  32
HETATM   32  C   UNL     1      26.816  43.984  51.706  1.00  0.00    -0.048 A 
HETATM   33  C   UNL     1      27.198  44.696  50.556  1.00  0.00     0.011 A 
HETATM   34  C   UNL     1      26.244  45.301  49.732  1.00  0.00     0.037 A 
HETATM   35  C   UNL     1      24.886  45.216  50.034  1.00  0.00     0.068 A 
HETATM   36  C   UNL     1      24.491  44.523  51.176  1.00  0.00     0.037 A 
HETATM   37  C   UNL     1      25.446  43.915  52.001  1.00  0.00     0.011 A 
BRANCH  35  38
HETATM   38  O   UNL     1      24.060  45.850  49.148  1.00  0.00    -0.356 OA
HETATM   39  C   UNL     1      23.077  45.050  48.503  1.00  0.00     0.210 C 
ENDBRANCH  35  38
ENDBRANCH  21  32
ENDBRANCH   1  21
TORSDOF 7
ENDMDL
MODEL 9
REMARK VINA RESULT:      -8.6      5.061      8.836
REMARK  7 active torsions:
REMARK  status: ('A' for Active; 'I' for Inactive)
REMARK    1  A    between atoms: N_7  and  C_8 
REMARK    2  A    between atoms: C_8  and  C_9 
REMARK       I    between atoms: C_9  and  N_10 
REMARK    3  A    between atoms: N_10  and  C_11 
REMARK    4  A    between atoms: C_11  and  C_12 
REMARK    5  A    between atoms: C_12  and  C_13 
REMARK    6  A    between atoms: C_12  and  C_23 
REMARK    7  A    between atoms: C_26  and  O_27 
ROOT
HETATM    1  C   UNL     1      26.311  43.262  50.189  1.00  0.00     0.136 C 
ENDROOT
BRANCH   1   2
HETATM    2  N   UNL     1      27.207  42.254  49.649  1.00  0.00    -0.359 N 
HETATM    3  C   UNL     1      27.357  41.033  50.281  1.00  0.00     0.236 C 
HETATM    4  O   UNL     1      26.809  40.760  51.346  1.00  0.00    -0.272 OA
HETATM    5  H   UNL     1      27.487  42.327  48.675  1.00  0.00     0.162 HD
BRANCH   3   6
HETATM    6  C   UNL     1      28.320  40.068  49.594  1.00  0.00     0.239 C 
BRANCH   6   7
HETATM    7  N   UNL     1      27.776  39.608  48.334  1.00  0.00    -0.259 N 
HETATM    8  C   UNL     1      27.001  38.509  48.195  1.00  0.00     0.326 A 
HETATM    9  N   UNL     1      26.653  38.376  46.878  1.00  0.00    -0.324 N 
HETATM   10  O   UNL     1      26.681  37.728  49.075  1.00  0.00    -0.247 OA
HETATM   11  C   UNL     1      27.174  39.441  46.038  1.00  0.00     0.119 A 
HETATM   12  H   UNL     1      26.091  37.596  46.563  1.00  0.00     0.165 HD
HETATM   13  C   UNL     1      26.037  40.314  45.453  1.00  0.00     0.019 C 
HETATM   14  C   UNL     1      27.958  40.223  47.127  1.00  0.00     0.257 A 
HETATM   15  C   UNL     1      28.127  38.866  44.983  1.00  0.00     0.041 C 
HETATM   16  C   UNL     1      24.919  39.475  44.814  1.00  0.00     0.013 C 
HETATM   17  C   UNL     1      26.577  41.332  44.431  1.00  0.00     0.007 C 
HETATM   18  C   UNL     1      27.454  40.691  43.359  1.00  0.00     0.001 C 
HETATM   19  C   UNL     1      28.607  39.906  43.971  1.00  0.00     0.003 C 
HETATM   20  O   UNL     1      28.609  41.241  46.939  1.00  0.00    -0.270 OA
ENDBRANCH   6   7
ENDBRANCH   3   6
ENDBRANCH   1   2
BRANCH   1  21
HETATM   21  C   UNL     1      26.920  44.610  50.640  1.00  0.00     0.071 C 
BRANCH  21  22
HETATM   22  C   UNL     1      27.236  44.737  52.114  1.00  0.00    -0.020 A 
HETATM   23  C   UNL     1      28.341  44.100  52.790  1.00  0.00    -0.001 A 
HETATM   24  C   UNL     1      28.285  44.461  54.136  1.00  0.00     0.042 A 
HETATM   25  C   UNL     1      29.392  43.254  52.373  1.00  0.00     0.014 A 
HETATM   26  C   UNL     1      29.215  44.019  55.083  1.00  0.00     0.030 A 
HETATM   27  N   UNL     1      27.200  45.289  54.284  1.00  0.00    -0.365 N 
HETATM   28  C   UNL     1      30.244  43.183  54.643  1.00  0.00     0.002 A 
HETATM   29  C   UNL     1      30.334  42.805  53.307  1.00  0.00     0.001 A 
HETATM   30  H   UNL     1      26.925  45.721  55.154  1.00  0.00     0.165 HD
HETATM   31  C   UNL     1      26.569  45.466  53.084  1.00  0.00     0.097 A 
ENDBRANCH  21  22
BRANCH  21  32
HETATM   32  C   UNL     1      26.197  45.886  50.235  1.00  0.00    -0.048 A 
HETATM   33  C   UNL     1      24.793  45.882  50.159  1.00  0.00     0.011 A 
HETATM   34  C   UNL     1      24.086  47.031  49.791  1.00  0.00     0.037 A 
HETATM   35  C   UNL     1      24.759  48.212  49.485  1.00  0.00     0.068 A 
HETATM   36  C   UNL     1      26.151  48.232  49.545  1.00  0.00     0.037 A 
HETATM   37  C   UNL     1      26.860  47.081  49.916  1.00  0.00     0.011 A 
BRANCH  35  38
HETATM   38  O   UNL     1      23.952  49.260  49.141  1.00  0.00    -0.356 OA
HETATM   39  C   UNL     1      22.550  49.062  49.278  1.00  0.00     0.210 C 
ENDBRANCH  35  38
ENDBRANCH  21  32
ENDBRANCH   1  21
TORSDOF 7
ENDMDL
MODEL 10
REMARK VINA RESULT:      -8.6      2.457      4.541
REMARK  7 active torsions:
REMARK  status: ('A' for Active; 'I' for Inactive)
REMARK    1  A    between atoms: N_7  and  C_8 
REMARK    2  A    between atoms: C_8  and  C_9 
REMARK       I    between atoms: C_9  and  N_10 
REMARK    3  A    between atoms: N_10  and  C_11 
REMARK    4  A    between atoms: C_11  and  C_12 
REMARK    5  A    between atoms: C_12  and  C_13 
REMARK    6  A    between atoms: C_12  and  C_23 
REMARK    7  A    between atoms: C_26  and  O_27 
ROOT
HETATM    1  C   UNL     1      24.092  45.093  50.535  1.00  0.00     0.136 C 
ENDROOT
BRANCH   1   2
HETATM    2  N   UNL     1      23.948  46.211  49.617  1.00  0.00    -0.359 N 
HETATM    3  C   UNL     1      24.354  47.481  49.983  1.00  0.00     0.236 C 
HETATM    4  O   UNL     1      24.786  47.748  51.101  1.00  0.00    -0.272 OA
HETATM    5  H   UNL     1      23.829  46.012  48.627  1.00  0.00     0.162 HD
BRANCH   3   6
HETATM    6  C   UNL     1      24.155  48.552  48.914  1.00  0.00     0.239 C 
BRANCH   6   7
HETATM    7  N   UNL     1      22.748  48.748  48.637  1.00  0.00    -0.259 N 
HETATM    8  C   UNL     1      22.022  47.975  47.798  1.00  0.00     0.326 A 
HETATM    9  N   UNL     1      20.731  48.430  47.781  1.00  0.00    -0.324 N 
HETATM   10  O   UNL     1      22.434  47.044  47.126  1.00  0.00    -0.247 OA
HETATM   11  C   UNL     1      20.511  49.559  48.670  1.00  0.00     0.119 A 
HETATM   12  H   UNL     1      20.033  47.998  47.191  1.00  0.00     0.165 HD
HETATM   13  C   UNL     1      19.554  49.192  49.831  1.00  0.00     0.019 C 
HETATM   14  C   UNL     1      21.965  49.721  49.191  1.00  0.00     0.257 A 
HETATM   15  C   UNL     1      20.076  50.790  47.865  1.00  0.00     0.041 C 
HETATM   16  C   UNL     1      18.275  48.495  49.341  1.00  0.00     0.013 C 
HETATM   17  C   UNL     1      19.188  50.431  50.670  1.00  0.00     0.007 C 
HETATM   18  C   UNL     1      18.686  51.597  49.824  1.00  0.00     0.001 C 
HETATM   19  C   UNL     1      19.689  51.980  48.743  1.00  0.00     0.003 C 
HETATM   20  O   UNL     1      22.342  50.566  49.991  1.00  0.00    -0.270 OA
ENDBRANCH   6   7
ENDBRANCH   3   6
ENDBRANCH   1   2
BRANCH   1  21
HETATM   21  C   UNL     1      25.376  44.237  50.441  1.00  0.00     0.071 C 
BRANCH  21  22
HETATM   22  C   UNL     1      25.201  42.833  49.904  1.00  0.00    -0.020 A 
HETATM   23  C   UNL     1      24.499  42.484  48.692  1.00  0.00    -0.001 A 
HETATM   24  C   UNL     1      24.559  41.098  48.547  1.00  0.00     0.042 A 
HETATM   25  C   UNL     1      23.825  43.227  47.698  1.00  0.00     0.014 A 
HETATM   26  C   UNL     1      23.978  40.419  47.470  1.00  0.00     0.030 A 
HETATM   27  N   UNL     1      25.271  40.614  49.615  1.00  0.00    -0.365 N 
HETATM   28  C   UNL     1      23.318  41.178  46.502  1.00  0.00     0.002 A 
HETATM   29  C   UNL     1      23.242  42.564  46.611  1.00  0.00     0.001 A 
HETATM   30  H   UNL     1      25.489  39.639  49.763  1.00  0.00     0.165 HD
HETATM   31  C   UNL     1      25.665  41.640  50.429  1.00  0.00     0.097 A 
ENDBRANCH  21  22
BRANCH  21  32
HETATM   32  C   UNL     1      26.246  44.125  51.685  1.00  0.00    -0.048 A 
HETATM   33  C   UNL     1      27.637  43.994  51.537  1.00  0.00     0.011 A 
HETATM   34  C   UNL     1      28.475  43.888  52.651  1.00  0.00     0.037 A 
HETATM   35  C   UNL     1      27.948  43.905  53.941  1.00  0.00     0.068 A 
HETATM   36  C   UNL     1      26.571  44.023  54.107  1.00  0.00     0.037 A 
HETATM   37  C   UNL     1      25.730  44.131  52.990  1.00  0.00     0.011 A 
BRANCH  35  38
HETATM   38  O   UNL     1      28.875  43.794  54.941  1.00  0.00    -0.356 OA
HETATM   39  C   UNL     1      30.026  43.007  54.664  1.00  0.00     0.210 C 
ENDBRANCH  35  38
ENDBRANCH  21  32
ENDBRANCH   1  21
TORSDOF 7
ENDMDL
