MODEL 1
REMARK VINA RESULT:      -9.3      0.000      0.000
REMARK  6 active torsions:
REMARK  status: ('A' for Active; 'I' for Inactive)
REMARK    1  A    between atoms: C_2  and  O_3 
REMARK    2  A    between atoms: C_2  and  C_4 
REMARK    3  A    between atoms: C_6  and  N_7 
REMARK       I    between atoms: N_7  and  C_8 
REMARK    4  A    between atoms: C_8  and  C_9 
REMARK    5  A    between atoms: C_12  and  C_13 
REMARK    6  A    between atoms: C_18  and  C_19 
ROOT
HETATM    1  C   UNL     1      25.140  45.421  50.664  1.00  0.00     0.096 C 
HETATM    2  C   UNL     1      26.010  44.714  51.474  1.00  0.00     0.138 C 
HETATM    3  N   UNL     1      25.992  43.418  51.012  1.00  0.00    -0.240 N 
HETATM    4  C   UNL     1      26.720  42.320  51.622  1.00  0.00     0.221 C 
HETATM    5  C   UNL     1      27.813  42.854  52.567  1.00  0.00     0.067 C 
HETATM    6  C   UNL     1      27.266  43.998  53.432  1.00  0.00     0.125 C 
HETATM    7  N   UNL     1      26.772  45.067  52.548  1.00  0.00    -0.365 N 
HETATM    8  N   UNL     1      25.057  43.204  50.073  1.00  0.00    -0.181 NA
HETATM    9  C   UNL     1      24.564  44.424  49.841  1.00  0.00     0.160 C 
HETATM   10  H   UNL     1      26.470  45.878  53.094  1.00  0.00     0.162 HD
ENDROOT
BRANCH   1  11
HETATM   11  C   UNL     1      24.819  46.839  50.672  1.00  0.00     0.261 C 
HETATM   12  N   UNL     1      24.021  47.221  49.611  1.00  0.00    -0.323 N 
HETATM   13  H   UNL     1      23.647  46.461  49.054  1.00  0.00     0.169 HD
HETATM   14  O   UNL     1      25.223  47.563  51.573  1.00  0.00    -0.267 OA
BRANCH  12  15
HETATM   15  C   UNL     1      23.623  48.522  49.249  1.00  0.00     0.035 A 
HETATM   16  C   UNL     1      22.435  49.119  49.680  1.00  0.00     0.039 A 
HETATM   17  C   UNL     1      22.109  50.438  49.312  1.00  0.00    -0.028 A 
HETATM   18  C   UNL     1      23.001  51.152  48.500  1.00  0.00     0.010 A 
HETATM   19  C   UNL     1      24.185  50.563  48.062  1.00  0.00     0.003 A 
HETATM   20  C   UNL     1      24.496  49.255  48.438  1.00  0.00     0.029 A 
BRANCH  17  21
HETATM   21  C   UNL     1      20.833  51.061  49.835  1.00  0.00     0.147 C 
HETATM   22  C   UNL     1      20.001  51.655  48.704  1.00  0.00     0.044 C 
BRANCH  21  23
HETATM   23  O   UNL     1      20.047  50.089  50.525  1.00  0.00    -0.391 OA
HETATM   24  H   UNL     1      19.188  50.505  50.713  1.00  0.00     0.210 HD
ENDBRANCH  21  23
ENDBRANCH  17  21
ENDBRANCH  12  15
ENDBRANCH   1  11
BRANCH   4  25
HETATM   25  C   UNL     1      27.348  41.414  50.584  1.00  0.00     0.409 C 
HETATM   26  F   UNL     1      27.714  42.085  49.469  1.00  0.00    -0.169 F 
HETATM   27  F   UNL     1      28.483  40.862  51.093  1.00  0.00    -0.169 F 
HETATM   28  F   UNL     1      26.562  40.381  50.220  1.00  0.00    -0.169 F 
ENDBRANCH   4  25
BRANCH   6  29
HETATM   29  C   UNL     1      28.329  44.490  54.384  1.00  0.00     0.005 A 
HETATM   30  S   UNL     1      28.169  46.025  55.133  1.00  0.00    -0.104 SA
HETATM   31  C   UNL     1      29.645  45.841  55.976  1.00  0.00     0.050 A 
HETATM   32  C   UNL     1      30.252  44.636  55.697  1.00  0.00     0.008 A 
HETATM   33  C   UNL     1      29.493  43.857  54.778  1.00  0.00     0.017 A 
ENDBRANCH   6  29
TORSDOF 6
ENDMDL
MODEL 2
REMARK VINA RESULT:      -9.0      4.887      7.853
REMARK  6 active torsions:
REMARK  status: ('A' for Active; 'I' for Inactive)
REMARK    1  A    between atoms: C_2  and  O_3 
REMARK    2  A    between atoms: C_2  and  C_4 
REMARK    3  A    between atoms: C_6  and  N_7 
REMARK       I    between atoms: N_7  and  C_8 
REMARK    4  A    between atoms: C_8  and  C_9 
REMARK    5  A    between atoms: C_12  and  C_13 
REMARK    6  A    between atoms: C_18  and  C_19 
ROOT
HETATM    1  C   UNL     1      26.120  45.261  52.594  1.00  0.00     0.096 C 
HETATM    2  C   UNL     1      27.010  45.632  53.586  1.00  0.00     0.138 C 
HETATM    3  N   UNL     1      26.708  46.937  53.899  1.00  0.00    -0.240 N 
HETATM    4  C   UNL     1      27.447  47.742  54.855  1.00  0.00     0.221 C 
HETATM    5  C   UNL     1      28.321  46.849  55.754  1.00  0.00     0.067 C 
HETATM    6  C   UNL     1      29.042  45.782  54.918  1.00  0.00     0.125 C 
HETATM    7  N   UNL     1      28.034  44.978  54.204  1.00  0.00    -0.365 N 
HETATM    8  N   UNL     1      25.801  47.484  53.074  1.00  0.00    -0.181 NA
HETATM    9  C   UNL     1      25.422  46.459  52.305  1.00  0.00     0.160 C 
HETATM   10  H   UNL     1      28.477  44.210  53.696  1.00  0.00     0.162 HD
ENDROOT
BRANCH   1  11
HETATM   11  C   UNL     1      25.956  43.976  51.936  1.00  0.00     0.261 C 
HETATM   12  N   UNL     1      27.070  43.587  51.217  1.00  0.00    -0.323 N 
HETATM   13  H   UNL     1      27.894  44.162  51.351  1.00  0.00     0.169 HD
HETATM   14  O   UNL     1      24.920  43.336  52.069  1.00  0.00    -0.267 OA
BRANCH  12  15
HETATM   15  C   UNL     1      27.212  42.469  50.373  1.00  0.00     0.035 A 
HETATM   16  C   UNL     1      27.894  41.305  50.735  1.00  0.00     0.039 A 
HETATM   17  C   UNL     1      27.972  40.206  49.860  1.00  0.00    -0.028 A 
HETATM   18  C   UNL     1      27.349  40.295  48.607  1.00  0.00     0.010 A 
HETATM   19  C   UNL     1      26.671  41.454  48.236  1.00  0.00     0.003 A 
HETATM   20  C   UNL     1      26.600  42.535  49.117  1.00  0.00     0.029 A 
BRANCH  17  21
HETATM   21  C   UNL     1      28.684  38.948  50.309  1.00  0.00     0.147 C 
HETATM   22  C   UNL     1      29.628  38.430  49.230  1.00  0.00     0.044 C 
BRANCH  21  23
HETATM   23  O   UNL     1      29.433  39.193  51.498  1.00  0.00    -0.391 OA
HETATM   24  H   UNL     1      30.167  38.556  51.504  1.00  0.00     0.210 HD
ENDBRANCH  21  23
ENDBRANCH  17  21
ENDBRANCH  12  15
ENDBRANCH   1  11
BRANCH   4  25
HETATM   25  C   UNL     1      26.527  48.581  55.716  1.00  0.00     0.409 C 
HETATM   26  F   UNL     1      26.537  48.190  57.010  1.00  0.00    -0.169 F 
HETATM   27  F   UNL     1      26.948  49.875  55.700  1.00  0.00    -0.169 F 
HETATM   28  F   UNL     1      25.250  48.600  55.287  1.00  0.00    -0.169 F 
ENDBRANCH   4  25
BRANCH   6  29
HETATM   29  C   UNL     1      29.928  44.935  55.798  1.00  0.00     0.005 A 
HETATM   30  S   UNL     1      30.354  45.479  57.368  1.00  0.00    -0.104 SA
HETATM   31  C   UNL     1      31.281  44.077  57.674  1.00  0.00     0.050 A 
HETATM   32  C   UNL     1      31.271  43.207  56.607  1.00  0.00     0.008 A 
HETATM   33  C   UNL     1      30.490  43.702  55.524  1.00  0.00     0.017 A 
ENDBRANCH   6  29
TORSDOF 6
ENDMDL
MODEL 3
REMARK VINA RESULT:      -9.0      5.397      8.556
REMARK  6 active torsions:
REMARK  status: ('A' for Active; 'I' for Inactive)
REMARK    1  A    between atoms: C_2  and  O_3 
REMARK    2  A    between atoms: C_2  and  C_4 
REMARK    3  A    between atoms: C_6  and  N_7 
REMARK       I    between atoms: N_7  and  C_8 
REMARK    4  A    between atoms: C_8  and  C_9 
REMARK    5  A    between atoms: C_12  and  C_13 
REMARK    6  A    between atoms: C_18  and  C_19 
ROOT
HETATM    1  C   UNL     1      27.384  43.213  52.160  1.00  0.00     0.096 C 
HETATM    2  C   UNL     1      27.874  44.005  53.183  1.00  0.00     0.138 C 
HETATM    3  N   UNL     1      27.161  45.180  53.129  1.00  0.00    -0.240 N 
HETATM    4  C   UNL     1      27.400  46.324  53.990  1.00  0.00     0.221 C 
HETATM    5  C   UNL     1      28.245  45.915  55.211  1.00  0.00     0.067 C 
HETATM    6  C   UNL     1      29.408  45.009  54.784  1.00  0.00     0.125 C 
HETATM    7  N   UNL     1      28.859  43.821  54.107  1.00  0.00    -0.365 N 
HETATM    8  N   UNL     1      26.364  45.267  52.053  1.00  0.00    -0.181 NA
HETATM    9  C   UNL     1      26.475  44.063  51.485  1.00  0.00     0.160 C 
HETATM   10  H   UNL     1      29.605  43.160  53.876  1.00  0.00     0.162 HD
ENDROOT
BRANCH   1  11
HETATM   11  C   UNL     1      27.740  41.852  51.797  1.00  0.00     0.261 C 
HETATM   12  N   UNL     1      27.946  41.688  50.441  1.00  0.00    -0.323 N 
HETATM   13  H   UNL     1      27.965  42.544  49.899  1.00  0.00     0.169 HD
HETATM   14  O   UNL     1      27.859  40.988  52.658  1.00  0.00    -0.267 OA
BRANCH  12  15
HETATM   15  C   UNL     1      28.186  40.491  49.738  1.00  0.00     0.035 A 
HETATM   16  C   UNL     1      28.568  39.295  50.350  1.00  0.00     0.039 A 
HETATM   17  C   UNL     1      28.759  38.121  49.596  1.00  0.00    -0.028 A 
HETATM   18  C   UNL     1      28.557  38.169  48.210  1.00  0.00     0.010 A 
HETATM   19  C   UNL     1      28.181  39.360  47.591  1.00  0.00     0.003 A 
HETATM   20  C   UNL     1      27.992  40.514  48.352  1.00  0.00     0.029 A 
BRANCH  17  21
HETATM   21  C   UNL     1      29.132  36.836  50.303  1.00  0.00     0.147 C 
HETATM   22  C   UNL     1      29.967  37.111  51.549  1.00  0.00     0.044 C 
BRANCH  21  23
HETATM   23  O   UNL     1      27.961  36.115  50.683  1.00  0.00    -0.391 OA
HETATM   24  H   UNL     1      27.700  36.444  51.559  1.00  0.00     0.210 HD
ENDBRANCH  21  23
ENDBRANCH  17  21
ENDBRANCH  12  15
ENDBRANCH   1  11
BRANCH   4  25
HETATM   25  C   UNL     1      26.108  46.959  54.458  1.00  0.00     0.409 C 
HETATM   26  F   UNL     1      26.274  47.693  55.582  1.00  0.00    -0.169 F 
HETATM   27  F   UNL     1      25.651  47.812  53.502  1.00  0.00    -0.169 F 
HETATM   28  F   UNL     1      25.115  46.072  54.672  1.00  0.00    -0.169 F 
ENDBRANCH   4  25
BRANCH   6  29
HETATM   29  C   UNL     1      30.255  44.645  55.978  1.00  0.00     0.005 A 
HETATM   30  S   UNL     1      30.233  45.629  57.383  1.00  0.00    -0.104 SA
HETATM   31  C   UNL     1      31.351  44.620  58.189  1.00  0.00     0.050 A 
HETATM   32  C   UNL     1      31.738  43.552  57.411  1.00  0.00     0.008 A 
HETATM   33  C   UNL     1      31.107  43.566  56.135  1.00  0.00     0.017 A 
ENDBRANCH   6  29
TORSDOF 6
ENDMDL
MODEL 4
REMARK VINA RESULT:      -8.7      4.732      8.082
REMARK  6 active torsions:
REMARK  status: ('A' for Active; 'I' for Inactive)
REMARK    1  A    between atoms: C_2  and  O_3 
REMARK    2  A    between atoms: C_2  and  C_4 
REMARK    3  A    between atoms: C_6  and  N_7 
REMARK       I    between atoms: N_7  and  C_8 
REMARK    4  A    between atoms: C_8  and  C_9 
REMARK    5  A    between atoms: C_12  and  C_13 
REMARK    6  A    between atoms: C_18  and  C_19 
ROOT
HETATM    1  C   UNL     1      25.642  43.904  52.744  1.00  0.00     0.096 C 
HETATM    2  C   UNL     1      25.620  43.018  51.683  1.00  0.00     0.138 C 
HETATM    3  N   UNL     1      24.659  43.487  50.816  1.00  0.00    -0.240 N 
HETATM    4  C   UNL     1      24.262  42.815  49.592  1.00  0.00     0.221 C 
HETATM    5  C   UNL     1      25.313  41.766  49.185  1.00  0.00     0.067 C 
HETATM    6  C   UNL     1      25.763  40.951  50.405  1.00  0.00     0.125 C 
HETATM    7  N   UNL     1      26.310  41.873  51.415  1.00  0.00    -0.365 N 
HETATM    8  N   UNL     1      23.953  44.513  51.314  1.00  0.00    -0.181 NA
HETATM    9  C   UNL     1      24.570  44.786  52.467  1.00  0.00     0.160 C 
HETATM   10  H   UNL     1      26.689  41.355  52.212  1.00  0.00     0.162 HD
ENDROOT
BRANCH   1  11
HETATM   11  C   UNL     1      26.505  43.920  53.914  1.00  0.00     0.261 C 
HETATM   12  N   UNL     1      27.817  44.237  53.617  1.00  0.00    -0.323 N 
HETATM   13  H   UNL     1      27.982  44.553  52.669  1.00  0.00     0.169 HD
HETATM   14  O   UNL     1      26.048  43.694  55.028  1.00  0.00    -0.267 OA
BRANCH  12  15
HETATM   15  C   UNL     1      28.929  44.227  54.481  1.00  0.00     0.035 A 
HETATM   16  C   UNL     1      29.085  45.107  55.555  1.00  0.00     0.039 A 
HETATM   17  C   UNL     1      30.204  45.025  56.405  1.00  0.00    -0.028 A 
HETATM   18  C   UNL     1      31.168  44.037  56.159  1.00  0.00     0.010 A 
HETATM   19  C   UNL     1      31.021  43.158  55.087  1.00  0.00     0.003 A 
HETATM   20  C   UNL     1      29.905  43.251  54.255  1.00  0.00     0.029 A 
BRANCH  17  21
HETATM   21  C   UNL     1      30.314  45.970  57.582  1.00  0.00     0.147 C 
HETATM   22  C   UNL     1      28.943  46.285  58.170  1.00  0.00     0.044 C 
BRANCH  21  23
HETATM   23  O   UNL     1      31.136  45.406  58.603  1.00  0.00    -0.391 OA
HETATM   24  H   UNL     1      30.603  44.728  59.051  1.00  0.00     0.210 HD
ENDBRANCH  21  23
ENDBRANCH  17  21
ENDBRANCH  12  15
ENDBRANCH   1  11
BRANCH   4  25
HETATM   25  C   UNL     1      24.056  43.792  48.454  1.00  0.00     0.409 C 
HETATM   26  F   UNL     1      24.968  44.790  48.461  1.00  0.00    -0.169 F 
HETATM   27  F   UNL     1      24.204  43.142  47.267  1.00  0.00    -0.169 F 
HETATM   28  F   UNL     1      22.825  44.341  48.427  1.00  0.00    -0.169 F 
ENDBRANCH   4  25
BRANCH   6  29
HETATM   29  C   UNL     1      26.762  39.898  49.994  1.00  0.00     0.005 A 
HETATM   30  S   UNL     1      28.392  40.007  50.516  1.00  0.00    -0.104 SA
HETATM   31  C   UNL     1      28.821  38.569  49.698  1.00  0.00     0.050 A 
HETATM   32  C   UNL     1      27.749  38.011  49.038  1.00  0.00     0.008 A 
HETATM   33  C   UNL     1      26.561  38.778  49.208  1.00  0.00     0.017 A 
ENDBRANCH   6  29
TORSDOF 6
ENDMDL
MODEL 5
REMARK VINA RESULT:      -8.5      1.732      2.398
REMARK  6 active torsions:
REMARK  status: ('A' for Active; 'I' for Inactive)
REMARK    1  A    between atoms: C_2  and  O_3 
REMARK    2  A    between atoms: C_2  and  C_4 
REMARK    3  A    between atoms: C_6  and  N_7 
REMARK       I    between atoms: N_7  and  C_8 
REMARK    4  A    between atoms: C_8  and  C_9 
REMARK    5  A    between atoms: C_12  and  C_13 
REMARK    6  A    between atoms: C_18  and  C_19 
ROOT
HETATM    1  C   UNL     1      25.192  43.312  50.666  1.00  0.00     0.096 C 
HETATM    2  C   UNL     1      26.235  42.892  51.471  1.00  0.00     0.138 C 
HETATM    3  N   UNL     1      26.530  41.609  51.071  1.00  0.00    -0.240 N 
HETATM    4  C   UNL     1      27.528  40.763  51.700  1.00  0.00     0.221 C 
HETATM    5  C   UNL     1      28.478  41.605  52.573  1.00  0.00     0.067 C 
HETATM    6  C   UNL     1      27.686  42.622  53.407  1.00  0.00     0.125 C 
HETATM    7  N   UNL     1      26.914  43.483  52.494  1.00  0.00    -0.365 N 
HETATM    8  N   UNL     1      25.653  41.116  50.183  1.00  0.00    -0.181 NA
HETATM    9  C   UNL     1      24.862  42.159  49.915  1.00  0.00     0.160 C 
HETATM   10  H   UNL     1      26.433  44.221  53.014  1.00  0.00     0.162 HD
ENDROOT
BRANCH   1  11
HETATM   11  C   UNL     1      24.525  44.603  50.622  1.00  0.00     0.261 C 
HETATM   12  N   UNL     1      23.828  44.814  49.447  1.00  0.00    -0.323 N 
HETATM   13  H   UNL     1      23.749  44.007  48.839  1.00  0.00     0.169 HD
HETATM   14  O   UNL     1      24.590  45.371  51.574  1.00  0.00    -0.267 OA
BRANCH  12  15
HETATM   15  C   UNL     1      23.174  45.988  49.025  1.00  0.00     0.035 A 
HETATM   16  C   UNL     1      23.606  47.276  49.350  1.00  0.00     0.039 A 
HETATM   17  C   UNL     1      22.929  48.413  48.868  1.00  0.00    -0.028 A 
HETATM   18  C   UNL     1      21.806  48.232  48.049  1.00  0.00     0.010 A 
HETATM   19  C   UNL     1      21.366  46.951  47.725  1.00  0.00     0.003 A 
HETATM   20  C   UNL     1      22.049  45.834  48.208  1.00  0.00     0.029 A 
BRANCH  17  21
HETATM   21  C   UNL     1      23.455  49.791  49.208  1.00  0.00     0.147 C 
HETATM   22  C   UNL     1      23.426  50.711  47.993  1.00  0.00     0.044 C 
BRANCH  21  23
HETATM   23  O   UNL     1      22.679  50.379  50.252  1.00  0.00    -0.391 OA
HETATM   24  H   UNL     1      23.070  51.250  50.435  1.00  0.00     0.210 HD
ENDBRANCH  21  23
ENDBRANCH  17  21
ENDBRANCH  12  15
ENDBRANCH   1  11
BRANCH   4  25
HETATM   25  C   UNL     1      28.333  39.986  50.681  1.00  0.00     0.409 C 
HETATM   26  F   UNL     1      29.422  39.397  51.226  1.00  0.00    -0.169 F 
HETATM   27  F   UNL     1      27.568  38.984  50.168  1.00  0.00    -0.169 F 
HETATM   28  F   UNL     1      28.733  40.725  49.627  1.00  0.00    -0.169 F 
ENDBRANCH   4  25
BRANCH   6  29
HETATM   29  C   UNL     1      28.618  43.416  54.289  1.00  0.00     0.005 A 
HETATM   30  S   UNL     1      28.169  44.982  54.825  1.00  0.00    -0.104 SA
HETATM   31  C   UNL     1      29.629  45.176  55.692  1.00  0.00     0.050 A 
HETATM   32  C   UNL     1      30.447  44.073  55.580  1.00  0.00     0.008 A 
HETATM   33  C   UNL     1      29.864  43.058  54.770  1.00  0.00     0.017 A 
ENDBRANCH   6  29
TORSDOF 6
ENDMDL
MODEL 6
REMARK VINA RESULT:      -8.5      3.583      8.380
REMARK  6 active torsions:
REMARK  status: ('A' for Active; 'I' for Inactive)
REMARK    1  A    between atoms: C_2  and  O_3 
REMARK    2  A    between atoms: C_2  and  C_4 
REMARK    3  A    between atoms: C_6  and  N_7 
REMARK       I    between atoms: N_7  and  C_8 
REMARK    4  A    between atoms: C_8  and  C_9 
REMARK    5  A    between atoms: C_12  and  C_13 
REMARK    6  A    between atoms: C_18  and  C_19 
ROOT
HETATM    1  C   UNL     1      25.138  45.953  50.258  1.00  0.00     0.096 C 
HETATM    2  C   UNL     1      23.983  46.447  49.678  1.00  0.00     0.138 C 
HETATM    3  N   UNL     1      23.582  45.499  48.764  1.00  0.00    -0.240 N 
HETATM    4  C   UNL     1      22.440  45.645  47.880  1.00  0.00     0.221 C 
HETATM    5  C   UNL     1      21.516  46.776  48.372  1.00  0.00     0.067 C 
HETATM    6  C   UNL     1      22.339  48.004  48.785  1.00  0.00     0.125 C 
HETATM    7  N   UNL     1      23.285  47.606  49.842  1.00  0.00    -0.365 N 
HETATM    8  N   UNL     1      24.475  44.512  48.598  1.00  0.00    -0.181 NA
HETATM    9  C   UNL     1      25.401  44.770  49.526  1.00  0.00     0.160 C 
HETATM   10  H   UNL     1      23.797  48.418  50.194  1.00  0.00     0.162 HD
ENDROOT
BRANCH   1  11
HETATM   11  C   UNL     1      25.949  46.519  51.323  1.00  0.00     0.261 C 
HETATM   12  N   UNL     1      26.351  45.583  52.256  1.00  0.00    -0.323 N 
HETATM   13  H   UNL     1      26.159  44.618  52.012  1.00  0.00     0.169 HD
HETATM   14  O   UNL     1      26.236  47.710  51.321  1.00  0.00    -0.267 OA
BRANCH  12  15
HETATM   15  C   UNL     1      27.039  45.802  53.465  1.00  0.00     0.035 A 
HETATM   16  C   UNL     1      28.020  44.943  53.967  1.00  0.00     0.039 A 
HETATM   17  C   UNL     1      28.698  45.235  55.166  1.00  0.00    -0.028 A 
HETATM   18  C   UNL     1      28.373  46.411  55.855  1.00  0.00     0.010 A 
HETATM   19  C   UNL     1      27.393  47.271  55.364  1.00  0.00     0.003 A 
HETATM   20  C   UNL     1      26.731  46.969  54.173  1.00  0.00     0.029 A 
BRANCH  17  21
HETATM   21  C   UNL     1      29.783  44.299  55.651  1.00  0.00     0.147 C 
HETATM   22  C   UNL     1      30.160  43.282  54.580  1.00  0.00     0.044 C 
BRANCH  21  23
HETATM   23  O   UNL     1      30.950  45.033  56.022  1.00  0.00    -0.391 OA
HETATM   24  H   UNL     1      31.261  45.487  55.221  1.00  0.00     0.210 HD
ENDBRANCH  21  23
ENDBRANCH  17  21
ENDBRANCH  12  15
ENDBRANCH   1  11
BRANCH   4  25
HETATM   25  C   UNL     1      21.648  44.361  47.763  1.00  0.00     0.409 C 
HETATM   26  F   UNL     1      22.140  43.539  46.808  1.00  0.00    -0.169 F 
HETATM   27  F   UNL     1      21.722  43.676  48.937  1.00  0.00    -0.169 F 
HETATM   28  F   UNL     1      20.335  44.552  47.525  1.00  0.00    -0.169 F 
ENDBRANCH   4  25
BRANCH   6  29
HETATM   29  C   UNL     1      21.427  49.121  49.228  1.00  0.00     0.005 A 
HETATM   30  S   UNL     1      19.761  48.816  49.502  1.00  0.00    -0.104 SA
HETATM   31  C   UNL     1      19.466  50.442  49.936  1.00  0.00     0.050 A 
HETATM   32  C   UNL     1      20.609  51.209  49.876  1.00  0.00     0.008 A 
HETATM   33  C   UNL     1      21.740  50.447  49.467  1.00  0.00     0.017 A 
ENDBRANCH   6  29
TORSDOF 6
ENDMDL
MODEL 7
REMARK VINA RESULT:      -8.4      4.104      8.697
REMARK  6 active torsions:
REMARK  status: ('A' for Active; 'I' for Inactive)
REMARK    1  A    between atoms: C_2  and  O_3 
REMARK    2  A    between atoms: C_2  and  C_4 
REMARK    3  A    between atoms: C_6  and  N_7 
REMARK       I    between atoms: N_7  and  C_8 
REMARK    4  A    between atoms: C_8  and  C_9 
REMARK    5  A    between atoms: C_12  and  C_13 
REMARK    6  A    between atoms: C_18  and  C_19 
ROOT
HETATM    1  C   UNL     1      23.911  46.348  49.662  1.00  0.00     0.096 C 
HETATM    2  C   UNL     1      22.787  46.951  49.127  1.00  0.00     0.138 C 
HETATM    3  N   UNL     1      22.222  46.022  48.285  1.00  0.00    -0.240 N 
HETATM    4  C   UNL     1      21.050  46.267  47.462  1.00  0.00     0.221 C 
HETATM    5  C   UNL     1      20.297  47.517  47.953  1.00  0.00     0.067 C 
HETATM    6  C   UNL     1      21.280  48.655  48.259  1.00  0.00     0.125 C 
HETATM    7  N   UNL     1      22.239  48.190  49.277  1.00  0.00    -0.365 N 
HETATM    8  N   UNL     1      22.983  44.930  48.114  1.00  0.00    -0.181 NA
HETATM    9  C   UNL     1      23.989  45.114  48.973  1.00  0.00     0.160 C 
HETATM   10  H   UNL     1      22.863  48.950  49.560  1.00  0.00     0.162 HD
ENDROOT
BRANCH   1  11
HETATM   11  C   UNL     1      24.847  46.857  50.651  1.00  0.00     0.261 C 
HETATM   12  N   UNL     1      25.168  45.930  51.623  1.00  0.00    -0.323 N 
HETATM   13  H   UNL     1      24.833  44.988  51.452  1.00  0.00     0.169 HD
HETATM   14  O   UNL     1      25.294  47.994  50.558  1.00  0.00    -0.267 OA
BRANCH  12  15
HETATM   15  C   UNL     1      25.943  46.121  52.783  1.00  0.00     0.035 A 
HETATM   16  C   UNL     1      26.882  45.198  53.250  1.00  0.00     0.039 A 
HETATM   17  C   UNL     1      27.653  45.462  54.398  1.00  0.00    -0.028 A 
HETATM   18  C   UNL     1      27.464  46.676  55.073  1.00  0.00     0.010 A 
HETATM   19  C   UNL     1      26.526  47.600  54.617  1.00  0.00     0.003 A 
HETATM   20  C   UNL     1      25.772  47.325  53.475  1.00  0.00     0.029 A 
BRANCH  17  21
HETATM   21  C   UNL     1      28.689  44.453  54.845  1.00  0.00     0.147 C 
HETATM   22  C   UNL     1      29.274  43.696  53.659  1.00  0.00     0.044 C 
BRANCH  21  23
HETATM   23  O   UNL     1      29.749  45.101  55.548  1.00  0.00    -0.391 OA
HETATM   24  H   UNL     1      30.195  45.682  54.909  1.00  0.00     0.210 HD
ENDBRANCH  21  23
ENDBRANCH  17  21
ENDBRANCH  12  15
ENDBRANCH   1  11
BRANCH   4  25
HETATM   25  C   UNL     1      20.110  45.080  47.452  1.00  0.00     0.409 C 
HETATM   26  F   UNL     1      20.609  44.035  46.755  1.00  0.00    -0.169 F 
HETATM   27  F   UNL     1      19.923  44.641  48.727  1.00  0.00    -0.169 F 
HETATM   28  F   UNL     1      18.883  45.365  46.973  1.00  0.00    -0.169 F 
ENDBRANCH   4  25
BRANCH   6  29
HETATM   29  C   UNL     1      20.533  49.889  48.701  1.00  0.00     0.005 A 
HETATM   30  S   UNL     1      19.527  49.836  50.089  1.00  0.00    -0.104 SA
HETATM   31  C   UNL     1      19.094  51.480  49.920  1.00  0.00     0.050 A 
HETATM   32  C   UNL     1      19.699  52.065  48.830  1.00  0.00     0.008 A 
HETATM   33  C   UNL     1      20.529  51.147  48.126  1.00  0.00     0.017 A 
ENDBRANCH   6  29
TORSDOF 6
ENDMDL
MODEL 8
REMARK VINA RESULT:      -8.2      2.650      4.284
REMARK  6 active torsions:
REMARK  status: ('A' for Active; 'I' for Inactive)
REMARK    1  A    between atoms: C_2  and  O_3 
REMARK    2  A    between atoms: C_2  and  C_4 
REMARK    3  A    between atoms: C_6  and  N_7 
REMARK       I    between atoms: N_7  and  C_8 
REMARK    4  A    between atoms: C_8  and  C_9 
REMARK    5  A    between atoms: C_12  and  C_13 
REMARK    6  A    between atoms: C_18  and  C_19 
ROOT
HETATM    1  C   UNL     1      25.146  46.147  51.026  1.00  0.00     0.096 C 
HETATM    2  C   UNL     1      25.850  44.960  51.128  1.00  0.00     0.138 C 
HETATM    3  N   UNL     1      26.486  44.999  52.348  1.00  0.00    -0.240 N 
HETATM    4  C   UNL     1      27.391  43.973  52.833  1.00  0.00     0.221 C 
HETATM    5  C   UNL     1      27.225  42.676  52.019  1.00  0.00     0.067 C 
HETATM    6  C   UNL     1      27.139  42.987  50.519  1.00  0.00     0.125 C 
HETATM    7  N   UNL     1      26.004  43.898  50.288  1.00  0.00    -0.365 N 
HETATM    8  N   UNL     1      26.376  46.186  52.964  1.00  0.00    -0.181 NA
HETATM    9  C   UNL     1      25.538  46.868  52.179  1.00  0.00     0.160 C 
HETATM   10  H   UNL     1      25.873  44.066  49.287  1.00  0.00     0.162 HD
ENDROOT
BRANCH   1  11
HETATM   11  C   UNL     1      24.259  46.603  49.970  1.00  0.00     0.261 C 
HETATM   12  N   UNL     1      24.018  47.963  50.013  1.00  0.00    -0.323 N 
HETATM   13  H   UNL     1      24.589  48.484  50.669  1.00  0.00     0.169 HD
HETATM   14  O   UNL     1      23.824  45.816  49.138  1.00  0.00    -0.267 OA
BRANCH  12  15
HETATM   15  C   UNL     1      23.124  48.712  49.224  1.00  0.00     0.035 A 
HETATM   16  C   UNL     1      21.751  48.460  49.155  1.00  0.00     0.039 A 
HETATM   17  C   UNL     1      20.902  49.267  48.374  1.00  0.00    -0.028 A 
HETATM   18  C   UNL     1      21.457  50.337  47.660  1.00  0.00     0.010 A 
HETATM   19  C   UNL     1      22.826  50.592  47.719  1.00  0.00     0.003 A 
HETATM   20  C   UNL     1      23.655  49.785  48.500  1.00  0.00     0.029 A 
BRANCH  17  21
HETATM   21  C   UNL     1      19.415  48.986  48.361  1.00  0.00     0.147 C 
HETATM   22  C   UNL     1      18.974  48.276  49.636  1.00  0.00     0.044 C 
BRANCH  21  23
HETATM   23  O   UNL     1      18.676  50.200  48.230  1.00  0.00    -0.391 OA
HETATM   24  H   UNL     1      17.741  49.951  48.137  1.00  0.00     0.210 HD
ENDBRANCH  21  23
ENDBRANCH  17  21
ENDBRANCH  12  15
ENDBRANCH   1  11
BRANCH   4  25
HETATM   25  C   UNL     1      27.175  43.679  54.302  1.00  0.00     0.409 C 
HETATM   26  F   UNL     1      25.868  43.715  54.647  1.00  0.00    -0.169 F 
HETATM   27  F   UNL     1      27.614  42.421  54.581  1.00  0.00    -0.169 F 
HETATM   28  F   UNL     1      27.855  44.502  55.126  1.00  0.00    -0.169 F 
ENDBRANCH   4  25
BRANCH   6  29
HETATM   29  C   UNL     1      27.017  41.711  49.724  1.00  0.00     0.005 A 
HETATM   30  S   UNL     1      26.296  40.323  50.429  1.00  0.00    -0.104 SA
HETATM   31  C   UNL     1      26.523  39.401  49.008  1.00  0.00     0.050 A 
HETATM   32  C   UNL     1      27.135  40.129  48.012  1.00  0.00     0.008 A 
HETATM   33  C   UNL     1      27.421  41.461  48.425  1.00  0.00     0.017 A 
ENDBRANCH   6  29
TORSDOF 6
ENDMDL
MODEL 9
REMARK VINA RESULT:      -8.1      4.595      9.445
REMARK  6 active torsions:
REMARK  status: ('A' for Active; 'I' for Inactive)
REMARK    1  A    between atoms: C_2  and  O_3 
REMARK    2  A    between atoms: C_2  and  C_4 
REMARK    3  A    between atoms: C_6  and  N_7 
REMARK       I    between atoms: N_7  and  C_8 
REMARK    4  A    between atoms: C_8  and  C_9 
REMARK    5  A    between atoms: C_12  and  C_13 
REMARK    6  A    between atoms: C_18  and  C_19 
ROOT
HETATM    1  C   UNL     1      24.765  45.687  50.831  1.00  0.00     0.096 C 
HETATM    2  C   UNL     1      23.828  46.106  49.903  1.00  0.00     0.138 C 
HETATM    3  N   UNL     1      23.923  47.478  49.860  1.00  0.00    -0.240 N 
HETATM    4  C   UNL     1      23.068  48.334  49.057  1.00  0.00     0.221 C 
HETATM    5  C   UNL     1      22.344  47.513  47.974  1.00  0.00     0.067 C 
HETATM    6  C   UNL     1      21.798  46.205  48.563  1.00  0.00     0.125 C 
HETATM    7  N   UNL     1      22.919  45.440  49.137  1.00  0.00    -0.365 N 
HETATM    8  N   UNL     1      24.733  47.983  50.803  1.00  0.00    -0.181 NA
HETATM    9  C   UNL     1      25.267  46.896  51.369  1.00  0.00     0.160 C 
HETATM   10  H   UNL     1      22.600  44.527  49.471  1.00  0.00     0.162 HD
ENDROOT
BRANCH   1  11
HETATM   11  C   UNL     1      25.126  44.337  51.230  1.00  0.00     0.261 C 
HETATM   12  N   UNL     1      26.460  44.209  51.565  1.00  0.00    -0.323 N 
HETATM   13  H   UNL     1      26.977  45.079  51.630  1.00  0.00     0.169 HD
HETATM   14  O   UNL     1      24.280  43.452  51.272  1.00  0.00    -0.267 OA
BRANCH  12  15
HETATM   15  C   UNL     1      27.168  43.032  51.879  1.00  0.00     0.035 A 
HETATM   16  C   UNL     1      27.387  41.994  50.971  1.00  0.00     0.039 A 
HETATM   17  C   UNL     1      28.133  40.856  51.334  1.00  0.00    -0.028 A 
HETATM   18  C   UNL     1      28.658  40.780  52.631  1.00  0.00     0.010 A 
HETATM   19  C   UNL     1      28.440  41.809  53.544  1.00  0.00     0.003 A 
HETATM   20  C   UNL     1      27.701  42.932  53.168  1.00  0.00     0.029 A 
BRANCH  17  21
HETATM   21  C   UNL     1      28.383  39.773  50.306  1.00  0.00     0.147 C 
HETATM   22  C   UNL     1      28.500  40.356  48.903  1.00  0.00     0.044 C 
BRANCH  21  23
HETATM   23  O   UNL     1      29.581  39.060  50.611  1.00  0.00    -0.391 OA
HETATM   24  H   UNL     1      29.807  39.272  51.533  1.00  0.00     0.210 HD
ENDBRANCH  21  23
ENDBRANCH  17  21
ENDBRANCH  12  15
ENDBRANCH   1  11
BRANCH   4  25
HETATM   25  C   UNL     1      23.846  49.457  48.405  1.00  0.00     0.409 C 
HETATM   26  F   UNL     1      23.263  49.893  47.266  1.00  0.00    -0.169 F 
HETATM   27  F   UNL     1      23.894  50.524  49.248  1.00  0.00    -0.169 F 
HETATM   28  F   UNL     1      25.128  49.141  48.132  1.00  0.00    -0.169 F 
ENDBRANCH   4  25
BRANCH   6  29
HETATM   29  C   UNL     1      21.055  45.424  47.508  1.00  0.00     0.005 A 
HETATM   30  S   UNL     1      21.806  45.078  46.005  1.00  0.00    -0.104 SA
HETATM   31  C   UNL     1      20.430  44.240  45.434  1.00  0.00     0.050 A 
HETATM   32  C   UNL     1      19.415  44.220  46.365  1.00  0.00     0.008 A 
HETATM   33  C   UNL     1      19.775  44.903  47.561  1.00  0.00     0.017 A 
ENDBRANCH   6  29
TORSDOF 6
ENDMDL
MODEL 10
REMARK VINA RESULT:      -8.0      2.091      2.597
REMARK  6 active torsions:
REMARK  status: ('A' for Active; 'I' for Inactive)
REMARK    1  A    between atoms: C_2  and  O_3 
REMARK    2  A    between atoms: C_2  and  C_4 
REMARK    3  A    between atoms: C_6  and  N_7 
REMARK       I    between atoms: N_7  and  C_8 
REMARK    4  A    between atoms: C_8  and  C_9 
REMARK    5  A    between atoms: C_12  and  C_13 
REMARK    6  A    between atoms: C_18  and  C_19 
ROOT
HETATM    1  C   UNL     1      23.764  45.615  49.557  1.00  0.00     0.096 C 
HETATM    2  C   UNL     1      24.589  45.292  50.619  1.00  0.00     0.138 C 
HETATM    3  N   UNL     1      24.956  43.980  50.430  1.00  0.00    -0.240 N 
HETATM    4  C   UNL     1      25.774  43.216  51.355  1.00  0.00     0.221 C 
HETATM    5  C   UNL     1      26.505  44.156  52.333  1.00  0.00     0.067 C 
HETATM    6  C   UNL     1      25.552  45.240  52.854  1.00  0.00     0.125 C 
HETATM    7  N   UNL     1      25.019  45.994  51.705  1.00  0.00    -0.365 N 
HETATM    8  N   UNL     1      24.303  43.387  49.419  1.00  0.00    -0.181 NA
HETATM    9  C   UNL     1      23.605  44.387  48.871  1.00  0.00     0.160 C 
HETATM   10  H   UNL     1      24.438  46.774  52.023  1.00  0.00     0.162 HD
ENDROOT
BRANCH   1  11
HETATM   11  C   UNL     1      23.138  46.885  49.228  1.00  0.00     0.261 C 
HETATM   12  N   UNL     1      21.783  46.775  48.981  1.00  0.00    -0.323 N 
HETATM   13  H   UNL     1      21.375  45.872  49.195  1.00  0.00     0.169 HD
HETATM   14  O   UNL     1      23.795  47.918  49.217  1.00  0.00    -0.267 OA
BRANCH  12  15
HETATM   15  C   UNL     1      20.900  47.773  48.526  1.00  0.00     0.035 A 
HETATM   16  C   UNL     1      20.513  48.875  49.292  1.00  0.00     0.039 A 
HETATM   17  C   UNL     1      19.653  49.859  48.768  1.00  0.00    -0.028 A 
HETATM   18  C   UNL     1      19.187  49.717  47.454  1.00  0.00     0.010 A 
HETATM   19  C   UNL     1      19.564  48.618  46.685  1.00  0.00     0.003 A 
HETATM   20  C   UNL     1      20.420  47.652  47.218  1.00  0.00     0.029 A 
BRANCH  17  21
HETATM   21  C   UNL     1      19.293  51.059  49.617  1.00  0.00     0.147 C 
HETATM   22  C   UNL     1      19.101  52.306  48.762  1.00  0.00     0.044 C 
BRANCH  21  23
HETATM   23  O   UNL     1      18.094  50.813  50.351  1.00  0.00    -0.391 OA
HETATM   24  H   UNL     1      17.876  51.637  50.817  1.00  0.00     0.210 HD
ENDBRANCH  21  23
ENDBRANCH  17  21
ENDBRANCH  12  15
ENDBRANCH   1  11
BRANCH   4  25
HETATM   25  C   UNL     1      26.785  42.352  50.633  1.00  0.00     0.409 C 
HETATM   26  F   UNL     1      27.261  42.943  49.514  1.00  0.00    -0.169 F 
HETATM   27  F   UNL     1      27.858  42.138  51.443  1.00  0.00    -0.169 F 
HETATM   28  F   UNL     1      26.319  41.131  50.304  1.00  0.00    -0.169 F 
ENDBRANCH   4  25
BRANCH   6  29
HETATM   29  C   UNL     1      26.262  46.133  53.842  1.00  0.00     0.005 A 
HETATM   30  S   UNL     1      27.552  45.514  54.788  1.00  0.00    -0.104 SA
HETATM   31  C   UNL     1      27.788  47.016  55.569  1.00  0.00     0.050 A 
HETATM   32  C   UNL     1      26.905  47.974  55.123  1.00  0.00     0.008 A 
HETATM   33  C   UNL     1      26.024  47.465  54.127  1.00  0.00     0.017 A 
ENDBRANCH   6  29
TORSDOF 6
ENDMDL
