MODEL 1
REMARK VINA RESULT:      -9.0      0.000      0.000
REMARK  7 active torsions:
REMARK  status: ('A' for Active; 'I' for Inactive)
REMARK    1  A    between atoms: C_3  and  C_4 
REMARK    2  A    between atoms: C_4  and  N_5 
REMARK    3  A    between atoms: C_4  and  C_9 
REMARK       I    between atoms: N_5  and  C_6 
REMARK       I    between atoms: C_6  and  N_7 
REMARK    4  A    between atoms: C_9  and  C_10 
REMARK       I    between atoms: C_10  and  N_11 
REMARK    5  A    between atoms: N_11  and  C_12 
REMARK    6  A    between atoms: C_12  and  C_13 
REMARK    7  A    between atoms: C_13  and  N_14 
ROOT
HETATM    1  C   UNL     1      29.894  42.977  53.113  1.00  0.00     0.132 C 
ENDROOT
BRANCH   1   2
HETATM    2  C   UNL     1      29.143  43.911  54.079  1.00  0.00     0.128 C 
BRANCH   2   3
HETATM    3  C   UNL     1      29.925  44.099  55.379  1.00  0.00    -0.029 A 
HETATM    4  C   UNL     1      29.830  45.283  56.144  1.00  0.00    -0.054 A 
HETATM    5  C   UNL     1      28.961  46.442  55.733  1.00  0.00     0.049 C 
HETATM    6  C   UNL     1      30.575  45.398  57.331  1.00  0.00     0.007 A 
HETATM    7  C   UNL     1      31.391  44.359  57.772  1.00  0.00     0.001 A 
HETATM    8  C   UNL     1      31.471  43.183  57.038  1.00  0.00     0.001 A 
HETATM    9  C   UNL     1      30.742  43.052  55.856  1.00  0.00     0.010 A 
ENDBRANCH   2   3
BRANCH   2  10
HETATM   10  N   UNL     1      27.814  43.402  54.410  1.00  0.00    -0.334 N 
HETATM   11  C   UNL     1      26.670  44.122  54.277  1.00  0.00     0.314 C 
HETATM   12  N   UNL     1      25.575  43.446  54.701  1.00  0.00    -0.352 N 
HETATM   13  O   UNL     1      26.583  45.238  53.782  1.00  0.00    -0.248 OA
HETATM   14  H   UNL     1      25.671  42.767  55.444  1.00  0.00     0.160 HD
HETATM   15  H   UNL     1      24.710  43.971  54.717  1.00  0.00     0.160 HD
HETATM   16  H   UNL     1      27.763  42.520  54.900  1.00  0.00     0.165 HD
ENDBRANCH   2  10
ENDBRANCH   1   2
BRANCH   1  17
HETATM   17  C   UNL     1      29.062  41.768  52.759  1.00  0.00     0.219 C 
HETATM   18  N   UNL     1      28.666  41.689  51.446  1.00  0.00    -0.359 N 
HETATM   19  H   UNL     1      28.918  42.448  50.819  1.00  0.00     0.162 HD
HETATM   20  O   UNL     1      28.754  40.899  53.573  1.00  0.00    -0.274 OA
BRANCH  18  21
HETATM   21  C   UNL     1      27.811  40.631  50.930  1.00  0.00     0.150 C 
BRANCH  21  22
HETATM   22  C   UNL     1      26.497  41.115  50.277  1.00  0.00     0.254 C 
BRANCH  22  23
HETATM   23  N   UNL     1      26.158  42.547  50.601  1.00  0.00    -0.065 N 
HETATM   24  H   UNL     1      26.518  42.717  51.564  1.00  0.00     0.280 HD
HETATM   25  C   UNL     1      26.878  43.570  49.746  1.00  0.00     0.274 C 
HETATM   26  C   UNL     1      26.389  44.959  49.996  1.00  0.00    -0.019 A 
HETATM   27  C   UNL     1      25.226  45.216  50.696  1.00  0.00    -0.008 A 
HETATM   28  C   UNL     1      27.005  46.174  49.563  1.00  0.00     0.017 A 
HETATM   29  S   UNL     1      24.881  46.872  50.832  1.00  0.00    -0.106 SA
HETATM   30  C   UNL     1      24.359  44.162  51.308  1.00  0.00     0.074 C 
HETATM   31  C   UNL     1      26.289  47.287  49.951  1.00  0.00     0.051 A 
HETATM   32  C   UNL     1      24.661  42.800  50.663  1.00  0.00     0.240 C 
ENDBRANCH  22  23
ENDBRANCH  21  22
ENDBRANCH  18  21
ENDBRANCH   1  17
TORSDOF 7
ENDMDL
MODEL 2
REMARK VINA RESULT:      -8.8      2.246      3.336
REMARK  7 active torsions:
REMARK  status: ('A' for Active; 'I' for Inactive)
REMARK    1  A    between atoms: C_3  and  C_4 
REMARK    2  A    between atoms: C_4  and  N_5 
REMARK    3  A    between atoms: C_4  and  C_9 
REMARK       I    between atoms: N_5  and  C_6 
REMARK       I    between atoms: C_6  and  N_7 
REMARK    4  A    between atoms: C_9  and  C_10 
REMARK       I    between atoms: C_10  and  N_11 
REMARK    5  A    between atoms: N_11  and  C_12 
REMARK    6  A    between atoms: C_12  and  C_13 
REMARK    7  A    between atoms: C_13  and  N_14 
ROOT
HETATM    1  C   UNL     1      27.444  44.376  54.753  1.00  0.00     0.132 C 
ENDROOT
BRANCH   1   2
HETATM    2  C   UNL     1      28.375  45.569  55.037  1.00  0.00     0.128 C 
BRANCH   2   3
HETATM    3  C   UNL     1      29.414  45.213  56.100  1.00  0.00    -0.029 A 
HETATM    4  C   UNL     1      30.389  44.213  55.886  1.00  0.00    -0.054 A 
HETATM    5  C   UNL     1      30.470  43.425  54.606  1.00  0.00     0.049 C 
HETATM    6  C   UNL     1      31.319  43.929  56.902  1.00  0.00     0.007 A 
HETATM    7  C   UNL     1      31.304  44.628  58.107  1.00  0.00     0.001 A 
HETATM    8  C   UNL     1      30.363  45.628  58.316  1.00  0.00     0.001 A 
HETATM    9  C   UNL     1      29.431  45.922  57.320  1.00  0.00     0.010 A 
ENDBRANCH   2   3
BRANCH   2  10
HETATM   10  N   UNL     1      27.635  46.745  55.491  1.00  0.00    -0.334 N 
HETATM   11  C   UNL     1      26.896  47.539  54.675  1.00  0.00     0.314 C 
HETATM   12  N   UNL     1      26.352  48.596  55.326  1.00  0.00    -0.352 N 
HETATM   13  O   UNL     1      26.672  47.331  53.490  1.00  0.00    -0.248 OA
HETATM   14  H   UNL     1      26.837  48.987  56.122  1.00  0.00     0.160 HD
HETATM   15  H   UNL     1      25.874  49.273  54.747  1.00  0.00     0.160 HD
HETATM   16  H   UNL     1      27.804  47.064  56.436  1.00  0.00     0.165 HD
ENDBRANCH   2  10
ENDBRANCH   1   2
BRANCH   1  17
HETATM   17  C   UNL     1      27.227  44.189  53.270  1.00  0.00     0.219 C 
HETATM   18  N   UNL     1      25.920  44.266  52.852  1.00  0.00    -0.359 N 
HETATM   19  H   UNL     1      25.197  44.402  53.552  1.00  0.00     0.162 HD
HETATM   20  O   UNL     1      28.143  43.988  52.474  1.00  0.00    -0.274 OA
BRANCH  18  21
HETATM   21  C   UNL     1      25.508  44.053  51.473  1.00  0.00     0.150 C 
BRANCH  21  22
HETATM   22  C   UNL     1      24.208  44.780  51.061  1.00  0.00     0.254 C 
BRANCH  22  23
HETATM   23  N   UNL     1      24.440  46.177  50.547  1.00  0.00    -0.065 N 
HETATM   24  H   UNL     1      24.228  46.816  51.342  1.00  0.00     0.280 HD
HETATM   25  C   UNL     1      25.882  46.482  50.194  1.00  0.00     0.274 C 
HETATM   26  C   UNL     1      26.032  47.816  49.539  1.00  0.00    -0.019 A 
HETATM   27  C   UNL     1      24.950  48.526  49.057  1.00  0.00    -0.008 A 
HETATM   28  C   UNL     1      27.253  48.524  49.309  1.00  0.00     0.017 A 
HETATM   29  S   UNL     1      25.384  50.005  48.347  1.00  0.00    -0.106 SA
HETATM   30  C   UNL     1      23.528  48.075  49.165  1.00  0.00     0.074 C 
HETATM   31  C   UNL     1      27.043  49.728  48.670  1.00  0.00     0.051 A 
HETATM   32  C   UNL     1      23.482  46.562  49.433  1.00  0.00     0.240 C 
ENDBRANCH  22  23
ENDBRANCH  21  22
ENDBRANCH  18  21
ENDBRANCH   1  17
TORSDOF 7
ENDMDL
MODEL 3
REMARK VINA RESULT:      -8.8      2.629      4.034
REMARK  7 active torsions:
REMARK  status: ('A' for Active; 'I' for Inactive)
REMARK    1  A    between atoms: C_3  and  C_4 
REMARK    2  A    between atoms: C_4  and  N_5 
REMARK    3  A    between atoms: C_4  and  C_9 
REMARK       I    between atoms: N_5  and  C_6 
REMARK       I    between atoms: C_6  and  N_7 
REMARK    4  A    between atoms: C_9  and  C_10 
REMARK       I    between atoms: C_10  and  N_11 
REMARK    5  A    between atoms: N_11  and  C_12 
REMARK    6  A    between atoms: C_12  and  C_13 
REMARK    7  A    between atoms: C_13  and  N_14 
ROOT
HETATM    1  C   UNL     1      26.700  44.377  54.770  1.00  0.00     0.132 C 
ENDROOT
BRANCH   1   2
HETATM    2  C   UNL     1      27.720  45.530  54.819  1.00  0.00     0.128 C 
BRANCH   2   3
HETATM    3  C   UNL     1      28.939  45.148  55.657  1.00  0.00    -0.029 A 
HETATM    4  C   UNL     1      29.842  44.141  55.249  1.00  0.00    -0.054 A 
HETATM    5  C   UNL     1      29.666  43.371  53.967  1.00  0.00     0.049 C 
HETATM    6  C   UNL     1      30.946  43.833  56.064  1.00  0.00     0.007 A 
HETATM    7  C   UNL     1      31.171  44.515  57.257  1.00  0.00     0.001 A 
HETATM    8  C   UNL     1      30.301  45.521  57.655  1.00  0.00     0.001 A 
HETATM    9  C   UNL     1      29.199  45.839  56.861  1.00  0.00     0.010 A 
ENDBRANCH   2   3
BRANCH   2  10
HETATM   10  N   UNL     1      27.140  46.750  55.376  1.00  0.00    -0.334 N 
HETATM   11  C   UNL     1      26.522  47.705  54.635  1.00  0.00     0.314 C 
HETATM   12  N   UNL     1      26.119  48.764  55.377  1.00  0.00    -0.352 N 
HETATM   13  O   UNL     1      26.284  47.633  53.436  1.00  0.00    -0.248 OA
HETATM   14  H   UNL     1      26.644  49.015  56.204  1.00  0.00     0.160 HD
HETATM   15  H   UNL     1      25.742  49.547  54.861  1.00  0.00     0.160 HD
HETATM   16  H   UNL     1      27.341  46.959  56.345  1.00  0.00     0.165 HD
ENDBRANCH   2  10
ENDBRANCH   1   2
BRANCH   1  17
HETATM   17  C   UNL     1      25.898  44.407  53.490  1.00  0.00     0.219 C 
HETATM   18  N   UNL     1      26.593  44.794  52.370  1.00  0.00    -0.359 N 
HETATM   19  H   UNL     1      27.566  45.065  52.474  1.00  0.00     0.162 HD
HETATM   20  O   UNL     1      24.707  44.105  53.432  1.00  0.00    -0.274 OA
BRANCH  18  21
HETATM   21  C   UNL     1      25.978  44.943  51.059  1.00  0.00     0.150 C 
BRANCH  21  22
HETATM   22  C   UNL     1      26.802  45.765  50.042  1.00  0.00     0.254 C 
BRANCH  22  23
HETATM   23  N   UNL     1      26.026  46.896  49.418  1.00  0.00    -0.065 N 
HETATM   24  H   UNL     1      26.069  46.740  48.388  1.00  0.00     0.280 HD
HETATM   25  C   UNL     1      24.545  46.890  49.737  1.00  0.00     0.274 C 
HETATM   26  C   UNL     1      23.854  48.114  49.232  1.00  0.00    -0.019 A 
HETATM   27  C   UNL     1      24.549  49.227  48.801  1.00  0.00    -0.008 A 
HETATM   28  C   UNL     1      22.443  48.321  49.132  1.00  0.00     0.017 A 
HETATM   29  S   UNL     1      23.537  50.490  48.289  1.00  0.00    -0.106 SA
HETATM   30  C   UNL     1      26.041  49.325  48.753  1.00  0.00     0.074 C 
HETATM   31  C   UNL     1      22.135  49.570  48.634  1.00  0.00     0.051 A 
HETATM   32  C   UNL     1      26.662  48.254  49.663  1.00  0.00     0.240 C 
ENDBRANCH  22  23
ENDBRANCH  21  22
ENDBRANCH  18  21
ENDBRANCH   1  17
TORSDOF 7
ENDMDL
MODEL 4
REMARK VINA RESULT:      -8.5      1.881      2.462
REMARK  7 active torsions:
REMARK  status: ('A' for Active; 'I' for Inactive)
REMARK    1  A    between atoms: C_3  and  C_4 
REMARK    2  A    between atoms: C_4  and  N_5 
REMARK    3  A    between atoms: C_4  and  C_9 
REMARK       I    between atoms: N_5  and  C_6 
REMARK       I    between atoms: C_6  and  N_7 
REMARK    4  A    between atoms: C_9  and  C_10 
REMARK       I    between atoms: C_10  and  N_11 
REMARK    5  A    between atoms: N_11  and  C_12 
REMARK    6  A    between atoms: C_12  and  C_13 
REMARK    7  A    between atoms: C_13  and  N_14 
ROOT
HETATM    1  C   UNL     1      29.466  43.277  52.878  1.00  0.00     0.132 C 
ENDROOT
BRANCH   1   2
HETATM    2  C   UNL     1      28.812  44.060  54.031  1.00  0.00     0.128 C 
BRANCH   2   3
HETATM    3  C   UNL     1      29.734  44.115  55.249  1.00  0.00    -0.029 A 
HETATM    4  C   UNL     1      29.764  45.231  56.115  1.00  0.00    -0.054 A 
HETATM    5  C   UNL     1      28.900  46.444  55.897  1.00  0.00     0.049 C 
HETATM    6  C   UNL     1      30.635  45.223  57.219  1.00  0.00     0.007 A 
HETATM    7  C   UNL     1      31.454  44.128  57.481  1.00  0.00     0.001 A 
HETATM    8  C   UNL     1      31.414  43.018  56.649  1.00  0.00     0.001 A 
HETATM    9  C   UNL     1      30.559  43.008  55.547  1.00  0.00     0.010 A 
ENDBRANCH   2   3
BRANCH   2  10
HETATM   10  N   UNL     1      27.540  43.470  54.442  1.00  0.00    -0.334 N 
HETATM   11  C   UNL     1      26.374  44.161  54.524  1.00  0.00     0.314 C 
HETATM   12  N   UNL     1      25.348  43.403  54.980  1.00  0.00    -0.352 N 
HETATM   13  O   UNL     1      26.208  45.325  54.180  1.00  0.00    -0.248 OA
HETATM   14  H   UNL     1      25.542  42.645  55.620  1.00  0.00     0.160 HD
HETATM   15  H   UNL     1      24.480  43.892  55.155  1.00  0.00     0.160 HD
HETATM   16  H   UNL     1      27.563  42.535  54.824  1.00  0.00     0.165 HD
ENDBRANCH   2  10
ENDBRANCH   1   2
BRANCH   1  17
HETATM   17  C   UNL     1      28.428  42.736  51.924  1.00  0.00     0.219 C 
HETATM   18  N   UNL     1      27.822  43.673  51.122  1.00  0.00    -0.359 N 
HETATM   19  H   UNL     1      28.074  44.649  51.243  1.00  0.00     0.162 HD
HETATM   20  O   UNL     1      28.135  41.544  51.849  1.00  0.00    -0.274 OA
BRANCH  18  21
HETATM   21  C   UNL     1      26.756  43.353  50.184  1.00  0.00     0.150 C 
BRANCH  21  22
HETATM   22  C   UNL     1      25.358  43.879  50.581  1.00  0.00     0.254 C 
BRANCH  22  23
HETATM   23  N   UNL     1      25.046  45.239  50.013  1.00  0.00    -0.065 N 
HETATM   24  H   UNL     1      25.665  45.353  49.183  1.00  0.00     0.280 HD
HETATM   25  C   UNL     1      23.643  45.379  49.458  1.00  0.00     0.274 C 
HETATM   26  C   UNL     1      23.332  46.784  49.058  1.00  0.00    -0.019 A 
HETATM   27  C   UNL     1      24.126  47.850  49.435  1.00  0.00    -0.008 A 
HETATM   28  C   UNL     1      22.220  47.225  48.277  1.00  0.00     0.017 A 
HETATM   29  S   UNL     1      23.552  49.343  48.867  1.00  0.00    -0.106 SA
HETATM   30  C   UNL     1      25.382  47.725  50.236  1.00  0.00     0.074 C 
HETATM   31  C   UNL     1      22.219  48.593  48.098  1.00  0.00     0.051 A 
HETATM   32  C   UNL     1      25.405  46.371  50.962  1.00  0.00     0.240 C 
ENDBRANCH  22  23
ENDBRANCH  21  22
ENDBRANCH  18  21
ENDBRANCH   1  17
TORSDOF 7
ENDMDL
MODEL 5
REMARK VINA RESULT:      -8.3      3.338      4.644
REMARK  7 active torsions:
REMARK  status: ('A' for Active; 'I' for Inactive)
REMARK    1  A    between atoms: C_3  and  C_4 
REMARK    2  A    between atoms: C_4  and  N_5 
REMARK    3  A    between atoms: C_4  and  C_9 
REMARK       I    between atoms: N_5  and  C_6 
REMARK       I    between atoms: C_6  and  N_7 
REMARK    4  A    between atoms: C_9  and  C_10 
REMARK       I    between atoms: C_10  and  N_11 
REMARK    5  A    between atoms: N_11  and  C_12 
REMARK    6  A    between atoms: C_12  and  C_13 
REMARK    7  A    between atoms: C_13  and  N_14 
ROOT
HETATM    1  C   UNL     1      30.000  42.803  53.194  1.00  0.00     0.132 C 
ENDROOT
BRANCH   1   2
HETATM    2  C   UNL     1      29.230  43.824  54.052  1.00  0.00     0.128 C 
BRANCH   2   3
HETATM    3  C   UNL     1      29.953  44.088  55.372  1.00  0.00    -0.029 A 
HETATM    4  C   UNL     1      29.800  45.302  56.079  1.00  0.00    -0.054 A 
HETATM    5  C   UNL     1      28.922  46.419  55.582  1.00  0.00     0.049 C 
HETATM    6  C   UNL     1      30.493  45.487  57.288  1.00  0.00     0.007 A 
HETATM    7  C   UNL     1      31.315  44.489  57.807  1.00  0.00     0.001 A 
HETATM    8  C   UNL     1      31.453  43.285  57.130  1.00  0.00     0.001 A 
HETATM    9  C   UNL     1      30.775  43.084  55.927  1.00  0.00     0.010 A 
ENDBRANCH   2   3
BRANCH   2  10
HETATM   10  N   UNL     1      27.872  43.373  54.352  1.00  0.00    -0.334 N 
HETATM   11  C   UNL     1      26.750  44.030  53.961  1.00  0.00     0.314 C 
HETATM   12  N   UNL     1      25.616  43.440  54.410  1.00  0.00    -0.352 N 
HETATM   13  O   UNL     1      26.717  45.016  53.236  1.00  0.00    -0.248 OA
HETATM   14  H   UNL     1      25.636  42.934  55.285  1.00  0.00     0.160 HD
HETATM   15  H   UNL     1      24.756  43.942  54.231  1.00  0.00     0.160 HD
HETATM   16  H   UNL     1      27.770  42.612  55.010  1.00  0.00     0.165 HD
ENDBRANCH   2  10
ENDBRANCH   1   2
BRANCH   1  17
HETATM   17  C   UNL     1      29.109  41.661  52.767  1.00  0.00     0.219 C 
HETATM   18  N   UNL     1      28.801  41.624  51.429  1.00  0.00    -0.359 N 
HETATM   19  H   UNL     1      29.151  42.367  50.832  1.00  0.00     0.162 HD
HETATM   20  O   UNL     1      28.683  40.809  53.546  1.00  0.00    -0.274 OA
BRANCH  18  21
HETATM   21  C   UNL     1      27.909  40.636  50.840  1.00  0.00     0.150 C 
BRANCH  21  22
HETATM   22  C   UNL     1      27.119  41.125  49.605  1.00  0.00     0.254 C 
BRANCH  22  23
HETATM   23  N   UNL     1      27.618  40.544  48.307  1.00  0.00    -0.065 N 
HETATM   24  H   UNL     1      28.546  40.983  48.133  1.00  0.00     0.280 HD
HETATM   25  C   UNL     1      27.910  39.058  48.357  1.00  0.00     0.274 C 
HETATM   26  C   UNL     1      28.243  38.503  47.012  1.00  0.00    -0.019 A 
HETATM   27  C   UNL     1      28.013  39.208  45.846  1.00  0.00    -0.008 A 
HETATM   28  C   UNL     1      28.808  37.220  46.731  1.00  0.00     0.017 A 
HETATM   29  S   UNL     1      28.464  38.355  44.450  1.00  0.00    -0.106 SA
HETATM   30  C   UNL     1      27.454  40.593  45.794  1.00  0.00     0.074 C 
HETATM   31  C   UNL     1      28.981  37.013  45.378  1.00  0.00     0.051 A 
HETATM   32  C   UNL     1      26.747  40.919  47.120  1.00  0.00     0.240 C 
ENDBRANCH  22  23
ENDBRANCH  21  22
ENDBRANCH  18  21
ENDBRANCH   1  17
TORSDOF 7
ENDMDL
MODEL 6
REMARK VINA RESULT:      -8.2      4.661      6.253
REMARK  7 active torsions:
REMARK  status: ('A' for Active; 'I' for Inactive)
REMARK    1  A    between atoms: C_3  and  C_4 
REMARK    2  A    between atoms: C_4  and  N_5 
REMARK    3  A    between atoms: C_4  and  C_9 
REMARK       I    between atoms: N_5  and  C_6 
REMARK       I    between atoms: C_6  and  N_7 
REMARK    4  A    between atoms: C_9  and  C_10 
REMARK       I    between atoms: C_10  and  N_11 
REMARK    5  A    between atoms: N_11  and  C_12 
REMARK    6  A    between atoms: C_12  and  C_13 
REMARK    7  A    between atoms: C_13  and  N_14 
ROOT
HETATM    1  C   UNL     1      26.740  45.755  50.979  1.00  0.00     0.132 C 
ENDROOT
BRANCH   1   2
HETATM    2  C   UNL     1      26.400  44.596  51.935  1.00  0.00     0.128 C 
BRANCH   2   3
HETATM    3  C   UNL     1      27.635  44.148  52.715  1.00  0.00    -0.029 A 
HETATM    4  C   UNL     1      27.945  44.671  53.991  1.00  0.00    -0.054 A 
HETATM    5  C   UNL     1      27.089  45.709  54.667  1.00  0.00     0.049 C 
HETATM    6  C   UNL     1      29.097  44.220  54.659  1.00  0.00     0.007 A 
HETATM    7  C   UNL     1      29.926  43.255  54.093  1.00  0.00     0.001 A 
HETATM    8  C   UNL     1      29.616  42.719  52.850  1.00  0.00     0.001 A 
HETATM    9  C   UNL     1      28.479  43.156  52.170  1.00  0.00     0.010 A 
ENDBRANCH   2   3
BRANCH   2  10
HETATM   10  N   UNL     1      25.859  43.440  51.223  1.00  0.00    -0.334 N 
HETATM   11  C   UNL     1      24.550  43.296  50.893  1.00  0.00     0.314 C 
HETATM   12  N   UNL     1      24.291  42.113  50.286  1.00  0.00    -0.352 N 
HETATM   13  O   UNL     1      23.676  44.138  51.055  1.00  0.00    -0.248 OA
HETATM   14  H   UNL     1      24.854  41.306  50.517  1.00  0.00     0.160 HD
HETATM   15  H   UNL     1      23.316  41.911  50.107  1.00  0.00     0.160 HD
HETATM   16  H   UNL     1      26.468  42.642  51.102  1.00  0.00     0.165 HD
ENDBRANCH   2  10
ENDBRANCH   1   2
BRANCH   1  17
HETATM   17  C   UNL     1      25.666  46.816  50.999  1.00  0.00     0.219 C 
HETATM   18  N   UNL     1      24.996  46.996  49.813  1.00  0.00    -0.359 N 
HETATM   19  H   UNL     1      25.282  46.446  49.008  1.00  0.00     0.162 HD
HETATM   20  O   UNL     1      25.390  47.480  51.996  1.00  0.00    -0.274 OA
BRANCH  18  21
HETATM   21  C   UNL     1      23.972  48.011  49.619  1.00  0.00     0.150 C 
BRANCH  21  22
HETATM   22  C   UNL     1      22.642  47.492  49.027  1.00  0.00     0.254 C 
BRANCH  22  23
HETATM   23  N   UNL     1      21.460  48.369  49.349  1.00  0.00    -0.065 N 
HETATM   24  H   UNL     1      21.517  48.565  50.371  1.00  0.00     0.280 HD
HETATM   25  C   UNL     1      21.502  49.739  48.702  1.00  0.00     0.274 C 
HETATM   26  C   UNL     1      20.239  50.504  48.919  1.00  0.00    -0.019 A 
HETATM   27  C   UNL     1      19.086  49.906  49.391  1.00  0.00    -0.008 A 
HETATM   28  C   UNL     1      20.029  51.897  48.674  1.00  0.00     0.017 A 
HETATM   29  S   UNL     1      17.785  50.986  49.538  1.00  0.00    -0.106 SA
HETATM   30  C   UNL     1      18.979  48.463  49.770  1.00  0.00     0.074 C 
HETATM   31  C   UNL     1      18.739  52.288  48.969  1.00  0.00     0.051 A 
HETATM   32  C   UNL     1      20.129  47.670  49.130  1.00  0.00     0.240 C 
ENDBRANCH  22  23
ENDBRANCH  21  22
ENDBRANCH  18  21
ENDBRANCH   1  17
TORSDOF 7
ENDMDL
MODEL 7
REMARK VINA RESULT:      -8.2      3.733      4.976
REMARK  7 active torsions:
REMARK  status: ('A' for Active; 'I' for Inactive)
REMARK    1  A    between atoms: C_3  and  C_4 
REMARK    2  A    between atoms: C_4  and  N_5 
REMARK    3  A    between atoms: C_4  and  C_9 
REMARK       I    between atoms: N_5  and  C_6 
REMARK       I    between atoms: C_6  and  N_7 
REMARK    4  A    between atoms: C_9  and  C_10 
REMARK       I    between atoms: C_10  and  N_11 
REMARK    5  A    between atoms: N_11  and  C_12 
REMARK    6  A    between atoms: C_12  and  C_13 
REMARK    7  A    between atoms: C_13  and  N_14 
ROOT
HETATM    1  C   UNL     1      28.018  44.434  51.005  1.00  0.00     0.132 C 
ENDROOT
BRANCH   1   2
HETATM    2  C   UNL     1      27.534  43.657  52.243  1.00  0.00     0.128 C 
BRANCH   2   3
HETATM    3  C   UNL     1      28.473  43.875  53.429  1.00  0.00    -0.029 A 
HETATM    4  C   UNL     1      28.261  44.906  54.372  1.00  0.00    -0.054 A 
HETATM    5  C   UNL     1      27.103  45.863  54.273  1.00  0.00     0.049 C 
HETATM    6  C   UNL     1      29.160  45.057  55.442  1.00  0.00     0.007 A 
HETATM    7  C   UNL     1      30.246  44.199  55.596  1.00  0.00     0.001 A 
HETATM    8  C   UNL     1      30.449  43.170  54.686  1.00  0.00     0.001 A 
HETATM    9  C   UNL     1      29.569  43.005  53.617  1.00  0.00     0.010 A 
ENDBRANCH   2   3
BRANCH   2  10
HETATM   10  N   UNL     1      27.440  42.221  51.987  1.00  0.00    -0.334 N 
HETATM   11  C   UNL     1      26.368  41.622  51.409  1.00  0.00     0.314 C 
HETATM   12  N   UNL     1      26.501  40.276  51.331  1.00  0.00    -0.352 N 
HETATM   13  O   UNL     1      25.393  42.198  50.944  1.00  0.00    -0.248 OA
HETATM   14  H   UNL     1      27.044  39.792  52.034  1.00  0.00     0.160 HD
HETATM   15  H   UNL     1      25.691  39.770  50.999  1.00  0.00     0.160 HD
HETATM   16  H   UNL     1      28.151  41.629  52.395  1.00  0.00     0.165 HD
ENDBRANCH   2  10
ENDBRANCH   1   2
BRANCH   1  17
HETATM   17  C   UNL     1      26.862  45.068  50.268  1.00  0.00     0.219 C 
HETATM   18  N   UNL     1      25.709  45.217  51.000  1.00  0.00    -0.359 N 
HETATM   19  H   UNL     1      25.693  44.868  51.953  1.00  0.00     0.162 HD
HETATM   20  O   UNL     1      26.929  45.436  49.096  1.00  0.00    -0.274 OA
BRANCH  18  21
HETATM   21  C   UNL     1      24.473  45.750  50.445  1.00  0.00     0.150 C 
BRANCH  21  22
HETATM   22  C   UNL     1      24.479  47.273  50.184  1.00  0.00     0.254 C 
BRANCH  22  23
HETATM   23  N   UNL     1      23.147  47.807  49.725  1.00  0.00    -0.065 N 
HETATM   24  H   UNL     1      22.505  47.720  50.541  1.00  0.00     0.280 HD
HETATM   25  C   UNL     1      23.144  49.287  49.401  1.00  0.00     0.274 C 
HETATM   26  C   UNL     1      21.851  49.730  48.799  1.00  0.00    -0.019 A 
HETATM   27  C   UNL     1      20.911  48.833  48.331  1.00  0.00    -0.008 A 
HETATM   28  C   UNL     1      21.412  51.078  48.611  1.00  0.00     0.017 A 
HETATM   29  S   UNL     1      19.535  49.586  47.682  1.00  0.00    -0.106 SA
HETATM   30  C   UNL     1      21.052  47.347  48.405  1.00  0.00     0.074 C 
HETATM   31  C   UNL     1      20.170  51.141  48.014  1.00  0.00     0.051 A 
HETATM   32  C   UNL     1      22.528  46.974  48.615  1.00  0.00     0.240 C 
ENDBRANCH  22  23
ENDBRANCH  21  22
ENDBRANCH  18  21
ENDBRANCH   1  17
TORSDOF 7
ENDMDL
MODEL 8
REMARK VINA RESULT:      -8.1      3.024      7.701
REMARK  7 active torsions:
REMARK  status: ('A' for Active; 'I' for Inactive)
REMARK    1  A    between atoms: C_3  and  C_4 
REMARK    2  A    between atoms: C_4  and  N_5 
REMARK    3  A    between atoms: C_4  and  C_9 
REMARK       I    between atoms: N_5  and  C_6 
REMARK       I    between atoms: C_6  and  N_7 
REMARK    4  A    between atoms: C_9  and  C_10 
REMARK       I    between atoms: C_10  and  N_11 
REMARK    5  A    between atoms: N_11  and  C_12 
REMARK    6  A    between atoms: C_12  and  C_13 
REMARK    7  A    between atoms: C_13  and  N_14 
ROOT
HETATM    1  C   UNL     1      25.153  47.142  51.945  1.00  0.00     0.132 C 
ENDROOT
BRANCH   1   2
HETATM    2  C   UNL     1      24.951  46.766  50.465  1.00  0.00     0.128 C 
BRANCH   2   3
HETATM    3  C   UNL     1      24.894  48.015  49.585  1.00  0.00    -0.029 A 
HETATM    4  C   UNL     1      26.061  48.622  49.071  1.00  0.00    -0.054 A 
HETATM    5  C   UNL     1      27.441  48.090  49.357  1.00  0.00     0.049 C 
HETATM    6  C   UNL     1      25.944  49.770  48.268  1.00  0.00     0.007 A 
HETATM    7  C   UNL     1      24.697  50.307  47.958  1.00  0.00     0.001 A 
HETATM    8  C   UNL     1      23.544  49.703  48.440  1.00  0.00     0.001 A 
HETATM    9  C   UNL     1      23.640  48.565  49.241  1.00  0.00     0.010 A 
ENDBRANCH   2   3
BRANCH   2  10
HETATM   10  N   UNL     1      23.726  45.998  50.257  1.00  0.00    -0.334 N 
HETATM   11  C   UNL     1      23.701  44.673  49.961  1.00  0.00     0.314 C 
HETATM   12  N   UNL     1      22.445  44.206  49.763  1.00  0.00    -0.352 N 
HETATM   13  O   UNL     1      24.675  43.932  49.924  1.00  0.00    -0.248 OA
HETATM   14  H   UNL     1      21.739  44.828  49.393  1.00  0.00     0.160 HD
HETATM   15  H   UNL     1      22.375  43.249  49.444  1.00  0.00     0.160 HD
HETATM   16  H   UNL     1      22.860  46.515  50.186  1.00  0.00     0.165 HD
ENDBRANCH   2  10
ENDBRANCH   1   2
BRANCH   1  17
HETATM   17  C   UNL     1      25.698  45.978  52.737  1.00  0.00     0.219 C 
HETATM   18  N   UNL     1      26.492  45.106  52.032  1.00  0.00    -0.359 N 
HETATM   19  H   UNL     1      26.629  45.273  51.039  1.00  0.00     0.162 HD
HETATM   20  O   UNL     1      25.465  45.807  53.933  1.00  0.00    -0.274 OA
BRANCH  18  21
HETATM   21  C   UNL     1      27.057  43.895  52.607  1.00  0.00     0.150 C 
BRANCH  21  22
HETATM   22  C   UNL     1      28.585  43.741  52.432  1.00  0.00     0.254 C 
BRANCH  22  23
HETATM   23  N   UNL     1      29.364  44.041  53.687  1.00  0.00    -0.065 N 
HETATM   24  H   UNL     1      30.226  44.538  53.377  1.00  0.00     0.280 HD
HETATM   25  C   UNL     1      28.686  45.015  54.628  1.00  0.00     0.274 C 
HETATM   26  C   UNL     1      29.418  45.152  55.922  1.00  0.00    -0.019 A 
HETATM   27  C   UNL     1      30.411  44.271  56.303  1.00  0.00    -0.008 A 
HETATM   28  C   UNL     1      29.211  46.154  56.921  1.00  0.00     0.017 A 
HETATM   29  S   UNL     1      31.079  44.634  57.821  1.00  0.00    -0.106 SA
HETATM   30  C   UNL     1      30.888  43.124  55.471  1.00  0.00     0.074 C 
HETATM   31  C   UNL     1      30.049  45.988  58.004  1.00  0.00     0.051 A 
HETATM   32  C   UNL     1      29.837  42.786  54.401  1.00  0.00     0.240 C 
ENDBRANCH  22  23
ENDBRANCH  21  22
ENDBRANCH  18  21
ENDBRANCH   1  17
TORSDOF 7
ENDMDL
MODEL 9
REMARK VINA RESULT:      -8.0      6.295     10.493
REMARK  7 active torsions:
REMARK  status: ('A' for Active; 'I' for Inactive)
REMARK    1  A    between atoms: C_3  and  C_4 
REMARK    2  A    between atoms: C_4  and  N_5 
REMARK    3  A    between atoms: C_4  and  C_9 
REMARK       I    between atoms: N_5  and  C_6 
REMARK       I    between atoms: C_6  and  N_7 
REMARK    4  A    between atoms: C_9  and  C_10 
REMARK       I    between atoms: C_10  and  N_11 
REMARK    5  A    between atoms: N_11  and  C_12 
REMARK    6  A    between atoms: C_12  and  C_13 
REMARK    7  A    between atoms: C_13  and  N_14 
ROOT
HETATM    1  C   UNL     1      21.964  49.255  48.842  1.00  0.00     0.132 C 
ENDROOT
BRANCH   1   2
HETATM    2  C   UNL     1      20.446  49.002  48.902  1.00  0.00     0.128 C 
BRANCH   2   3
HETATM    3  C   UNL     1      19.670  50.176  48.306  1.00  0.00    -0.029 A 
HETATM    4  C   UNL     1      18.888  50.040  47.137  1.00  0.00    -0.054 A 
HETATM    5  C   UNL     1      18.769  48.735  46.394  1.00  0.00     0.049 C 
HETATM    6  C   UNL     1      18.198  51.157  46.635  1.00  0.00     0.007 A 
HETATM    7  C   UNL     1      18.259  52.390  47.280  1.00  0.00     0.001 A 
HETATM    8  C   UNL     1      19.007  52.527  48.442  1.00  0.00     0.001 A 
HETATM    9  C   UNL     1      19.701  51.430  48.953  1.00  0.00     0.010 A 
ENDBRANCH   2   3
BRANCH   2  10
HETATM   10  N   UNL     1      19.980  48.789  50.271  1.00  0.00    -0.334 N 
HETATM   11  C   UNL     1      18.754  48.299  50.588  1.00  0.00     0.314 C 
HETATM   12  N   UNL     1      18.542  48.246  51.925  1.00  0.00    -0.352 N 
HETATM   13  O   UNL     1      17.923  47.885  49.790  1.00  0.00    -0.248 OA
HETATM   14  H   UNL     1      18.996  48.923  52.524  1.00  0.00     0.160 HD
HETATM   15  H   UNL     1      17.610  47.982  52.215  1.00  0.00     0.160 HD
HETATM   16  H   UNL     1      20.547  49.164  51.019  1.00  0.00     0.165 HD
ENDBRANCH   2  10
ENDBRANCH   1   2
BRANCH   1  17
HETATM   17  C   UNL     1      22.741  47.968  48.984  1.00  0.00     0.219 C 
HETATM   18  N   UNL     1      23.678  47.955  49.989  1.00  0.00    -0.359 N 
HETATM   19  H   UNL     1      23.813  48.801  50.535  1.00  0.00     0.162 HD
HETATM   20  O   UNL     1      22.560  46.987  48.266  1.00  0.00    -0.274 OA
BRANCH  18  21
HETATM   21  C   UNL     1      24.565  46.829  50.241  1.00  0.00     0.150 C 
BRANCH  21  22
HETATM   22  C   UNL     1      25.057  46.700  51.700  1.00  0.00     0.254 C 
BRANCH  22  23
HETATM   23  N   UNL     1      25.977  45.527  51.921  1.00  0.00    -0.065 N 
HETATM   24  H   UNL     1      26.685  45.569  51.157  1.00  0.00     0.280 HD
HETATM   25  C   UNL     1      26.795  45.604  53.194  1.00  0.00     0.274 C 
HETATM   26  C   UNL     1      27.565  44.350  53.446  1.00  0.00    -0.019 A 
HETATM   27  C   UNL     1      27.313  43.179  52.757  1.00  0.00    -0.008 A 
HETATM   28  C   UNL     1      28.617  44.167  54.397  1.00  0.00     0.017 A 
HETATM   29  S   UNL     1      28.313  41.894  53.236  1.00  0.00    -0.106 SA
HETATM   30  C   UNL     1      26.291  43.040  51.674  1.00  0.00     0.074 C 
HETATM   31  C   UNL     1      29.111  42.880  54.385  1.00  0.00     0.051 A 
HETATM   32  C   UNL     1      25.274  44.189  51.768  1.00  0.00     0.240 C 
ENDBRANCH  22  23
ENDBRANCH  21  22
ENDBRANCH  18  21
ENDBRANCH   1  17
TORSDOF 7
ENDMDL
MODEL 10
REMARK VINA RESULT:      -7.9      7.294     11.304
REMARK  7 active torsions:
REMARK  status: ('A' for Active; 'I' for Inactive)
REMARK    1  A    between atoms: C_3  and  C_4 
REMARK    2  A    between atoms: C_4  and  N_5 
REMARK    3  A    between atoms: C_4  and  C_9 
REMARK       I    between atoms: N_5  and  C_6 
REMARK       I    between atoms: C_6  and  N_7 
REMARK    4  A    between atoms: C_9  and  C_10 
REMARK       I    between atoms: C_10  and  N_11 
REMARK    5  A    between atoms: N_11  and  C_12 
REMARK    6  A    between atoms: C_12  and  C_13 
REMARK    7  A    between atoms: C_13  and  N_14 
ROOT
HETATM    1  C   UNL     1      20.547  51.345  49.313  1.00  0.00     0.132 C 
ENDROOT
BRANCH   1   2
HETATM    2  C   UNL     1      19.368  50.361  49.428  1.00  0.00     0.128 C 
BRANCH   2   3
HETATM    3  C   UNL     1      18.037  51.066  49.171  1.00  0.00    -0.029 A 
HETATM    4  C   UNL     1      17.141  50.632  48.168  1.00  0.00    -0.054 A 
HETATM    5  C   UNL     1      17.435  49.452  47.280  1.00  0.00     0.049 C 
HETATM    6  C   UNL     1      15.932  51.323  47.979  1.00  0.00     0.007 A 
HETATM    7  C   UNL     1      15.596  52.417  48.773  1.00  0.00     0.001 A 
HETATM    8  C   UNL     1      16.460  52.836  49.775  1.00  0.00     0.001 A 
HETATM    9  C   UNL     1      17.666  52.165  49.977  1.00  0.00     0.010 A 
ENDBRANCH   2   3
BRANCH   2  10
HETATM   10  N   UNL     1      19.309  49.729  50.744  1.00  0.00    -0.334 N 
HETATM   11  C   UNL     1      18.629  48.583  51.007  1.00  0.00     0.314 C 
HETATM   12  N   UNL     1      18.683  48.231  52.313  1.00  0.00    -0.352 N 
HETATM   13  O   UNL     1      18.064  47.882  50.176  1.00  0.00    -0.248 OA
HETATM   14  H   UNL     1      18.762  48.953  53.016  1.00  0.00     0.160 HD
HETATM   15  H   UNL     1      18.112  47.440  52.582  1.00  0.00     0.160 HD
HETATM   16  H   UNL     1      19.673  50.253  51.528  1.00  0.00     0.165 HD
ENDBRANCH   2  10
ENDBRANCH   1   2
BRANCH   1  17
HETATM   17  C   UNL     1      21.871  50.619  49.311  1.00  0.00     0.219 C 
HETATM   18  N   UNL     1      21.940  49.524  48.484  1.00  0.00    -0.359 N 
HETATM   19  H   UNL     1      21.108  49.256  47.966  1.00  0.00     0.162 HD
HETATM   20  O   UNL     1      22.834  50.969  49.992  1.00  0.00    -0.274 OA
BRANCH  18  21
HETATM   21  C   UNL     1      23.110  48.664  48.392  1.00  0.00     0.150 C 
BRANCH  21  22
HETATM   22  C   UNL     1      22.805  47.149  48.363  1.00  0.00     0.254 C 
BRANCH  22  23
HETATM   23  N   UNL     1      23.736  46.334  49.223  1.00  0.00    -0.065 N 
HETATM   24  H   UNL     1      24.551  46.097  48.619  1.00  0.00     0.280 HD
HETATM   25  C   UNL     1      24.339  47.093  50.387  1.00  0.00     0.274 C 
HETATM   26  C   UNL     1      25.121  46.204  51.296  1.00  0.00    -0.019 A 
HETATM   27  C   UNL     1      25.039  44.826  51.229  1.00  0.00    -0.008 A 
HETATM   28  C   UNL     1      26.019  46.613  52.330  1.00  0.00     0.017 A 
HETATM   29  S   UNL     1      26.014  44.043  52.377  1.00  0.00    -0.106 SA
HETATM   30  C   UNL     1      24.208  44.077  50.238  1.00  0.00     0.074 C 
HETATM   31  C   UNL     1      26.573  45.538  52.995  1.00  0.00     0.051 A 
HETATM   32  C   UNL     1      23.133  45.007  49.652  1.00  0.00     0.240 C 
ENDBRANCH  22  23
ENDBRANCH  21  22
ENDBRANCH  18  21
ENDBRANCH   1  17
TORSDOF 7
ENDMDL
