MODEL 1
REMARK VINA RESULT:      -7.3      0.000      0.000
REMARK  9 active torsions:
REMARK  status: ('A' for Active; 'I' for Inactive)
REMARK    1  A    between atoms: C_4  and  C_5 
REMARK    2  A    between atoms: C_8  and  C_9 
REMARK       I    between atoms: C_9  and  N_10 
REMARK    3  A    between atoms: N_10  and  C_26 
REMARK    4  A    between atoms: N_10  and  C_11 
REMARK    5  A    between atoms: C_11  and  C_12 
REMARK    6  A    between atoms: C_11  and  C_21 
REMARK       I    between atoms: C_12  and  N_13 
REMARK    7  A    between atoms: N_13  and  C_14 
REMARK    8  A    between atoms: C_14  and  C_15 
REMARK    9  A    between atoms: C_26  and  C_27 
ROOT
HETATM    1  C   UNL     1      28.942  46.529  39.706  1.00  0.00     0.271 C 
HETATM    2  N   UNL     1      27.635  46.853  39.305  1.00  0.00    -0.324 N 
HETATM    3  O   UNL     1      29.248  45.357  39.932  1.00  0.00    -0.266 OA
ENDROOT
BRANCH   2   4
HETATM    4  C   UNL     1      26.689  45.737  39.198  1.00  0.00     0.173 C 
BRANCH   4   5
HETATM    5  C   UNL     1      25.907  45.537  40.460  1.00  0.00     0.000 A 
HETATM    6  S   UNL     1      24.195  45.667  40.441  1.00  0.00    -0.105 SA
HETATM    7  C   UNL     1      24.077  45.241  42.092  1.00  0.00     0.050 A 
HETATM    8  C   UNL     1      25.309  44.987  42.649  1.00  0.00     0.008 A 
HETATM    9  C   UNL     1      26.365  45.156  41.708  1.00  0.00     0.017 A 
ENDBRANCH   4   5
ENDBRANCH   2   4
BRANCH   2  10
HETATM   10  C   UNL     1      27.164  48.221  38.997  1.00  0.00     0.220 C 
BRANCH  10  11
HETATM   11  C   UNL     1      27.182  49.128  40.255  1.00  0.00     0.245 C 
HETATM   12  N   UNL     1      27.602  50.427  40.154  1.00  0.00    -0.357 N 
HETATM   13  H   UNL     1      28.123  50.706  39.330  1.00  0.00     0.162 HD
HETATM   14  O   UNL     1      26.701  48.714  41.320  1.00  0.00    -0.271 OA
BRANCH  12  15
HETATM   15  C   UNL     1      27.694  51.300  41.313  1.00  0.00     0.154 C 
BRANCH  15  16
HETATM   16  C   UNL     1      28.413  52.615  40.985  1.00  0.00     0.139 C 
HETATM   17  O   UNL     1      29.508  52.806  41.911  1.00  0.00    -0.384 OA
HETATM   18  C   UNL     1      30.629  53.284  41.162  1.00  0.00     0.168 C 
HETATM   19  C   UNL     1      30.503  52.627  39.811  1.00  0.00     0.029 C 
HETATM   20  C   UNL     1      29.010  52.642  39.580  1.00  0.00     0.035 C 
ENDBRANCH  15  16
ENDBRANCH  12  15
ENDBRANCH  10  11
BRANCH  10  21
HETATM   21  C   UNL     1      25.950  48.227  38.079  1.00  0.00     0.014 A 
HETATM   22  S   UNL     1      25.942  47.707  36.446  1.00  0.00    -0.104 SA
HETATM   23  C   UNL     1      24.285  48.054  36.248  1.00  0.00     0.050 A 
HETATM   24  C   UNL     1      23.728  48.564  37.396  1.00  0.00     0.008 A 
HETATM   25  C   UNL     1      24.683  48.664  38.445  1.00  0.00     0.017 A 
ENDBRANCH  10  21
ENDBRANCH   2  10
BRANCH   1  26
HETATM   26  C   UNL     1      29.972  47.554  39.768  1.00  0.00     0.101 C 
HETATM   27  N   UNL     1      30.682  47.972  40.873  1.00  0.00    -0.351 N 
HETATM   28  C   UNL     1      31.478  49.060  40.575  1.00  0.00     0.043 C 
HETATM   29  H   UNL     1      30.564  47.584  41.804  1.00  0.00     0.166 HD
HETATM   30  C   UNL     1      31.449  49.174  39.195  1.00  0.00     0.033 C 
HETATM   31  C   UNL     1      30.530  48.225  38.692  1.00  0.00     0.037 C 
BRANCH  28  32
HETATM   32  C   UNL     1      32.172  49.872  41.588  1.00  0.00    -0.009 A 
HETATM   33  C   UNL     1      31.590  50.171  42.829  1.00  0.00     0.013 A 
HETATM   34  C   UNL     1      32.250  50.984  43.757  1.00  0.00     0.001 A 
HETATM   35  C   UNL     1      33.505  51.510  43.461  1.00  0.00     0.000 A 
HETATM   36  C   UNL     1      34.102  51.220  42.239  1.00  0.00     0.001 A 
HETATM   37  C   UNL     1      33.440  50.408  41.312  1.00  0.00     0.013 A 
ENDBRANCH  28  32
ENDBRANCH   1  26
TORSDOF 9
ENDMDL
MODEL 2
REMARK VINA RESULT:      -7.0      9.806     13.240
REMARK  9 active torsions:
REMARK  status: ('A' for Active; 'I' for Inactive)
REMARK    1  A    between atoms: C_4  and  C_5 
REMARK    2  A    between atoms: C_8  and  C_9 
REMARK       I    between atoms: C_9  and  N_10 
REMARK    3  A    between atoms: N_10  and  C_26 
REMARK    4  A    between atoms: N_10  and  C_11 
REMARK    5  A    between atoms: C_11  and  C_12 
REMARK    6  A    between atoms: C_11  and  C_21 
REMARK       I    between atoms: C_12  and  N_13 
REMARK    7  A    between atoms: N_13  and  C_14 
REMARK    8  A    between atoms: C_14  and  C_15 
REMARK    9  A    between atoms: C_26  and  C_27 
ROOT
HETATM    1  C   UNL     1      26.900  45.369  49.868  1.00  0.00     0.271 C 
HETATM    2  N   UNL     1      26.028  46.031  50.748  1.00  0.00    -0.324 N 
HETATM    3  O   UNL     1      27.750  46.007  49.243  1.00  0.00    -0.266 OA
ENDROOT
BRANCH   2   4
HETATM    4  C   UNL     1      26.183  47.486  50.853  1.00  0.00     0.173 C 
BRANCH   4   5
HETATM    5  C   UNL     1      25.295  48.219  49.895  1.00  0.00     0.000 A 
HETATM    6  S   UNL     1      25.975  49.290  48.739  1.00  0.00    -0.105 SA
HETATM    7  C   UNL     1      24.450  49.610  48.038  1.00  0.00     0.050 A 
HETATM    8  C   UNL     1      23.441  48.906  48.654  1.00  0.00     0.008 A 
HETATM    9  C   UNL     1      23.928  48.102  49.725  1.00  0.00     0.017 A 
ENDBRANCH   4   5
ENDBRANCH   2   4
BRANCH   2  10
HETATM   10  C   UNL     1      24.981  45.366  51.554  1.00  0.00     0.220 C 
BRANCH  10  11
HETATM   11  C   UNL     1      25.550  44.817  52.889  1.00  0.00     0.245 C 
HETATM   12  N   UNL     1      26.850  45.074  53.234  1.00  0.00    -0.357 N 
HETATM   13  H   UNL     1      27.487  45.399  52.517  1.00  0.00     0.162 HD
HETATM   14  O   UNL     1      24.794  44.253  53.694  1.00  0.00    -0.271 OA
BRANCH  12  15
HETATM   15  C   UNL     1      27.447  44.532  54.445  1.00  0.00     0.154 C 
BRANCH  15  16
HETATM   16  C   UNL     1      28.970  44.720  54.466  1.00  0.00     0.139 C 
HETATM   17  O   UNL     1      29.379  45.161  55.781  1.00  0.00    -0.384 OA
HETATM   18  C   UNL     1      30.566  44.443  56.128  1.00  0.00     0.168 C 
HETATM   19  C   UNL     1      30.407  43.090  55.479  1.00  0.00     0.029 C 
HETATM   20  C   UNL     1      29.740  43.435  54.168  1.00  0.00     0.035 C 
ENDBRANCH  15  16
ENDBRANCH  12  15
ENDBRANCH  10  11
BRANCH  10  21
HETATM   21  C   UNL     1      24.060  44.496  50.711  1.00  0.00     0.014 A 
HETATM   22  S   UNL     1      23.260  44.998  49.280  1.00  0.00    -0.104 SA
HETATM   23  C   UNL     1      22.517  43.481  49.055  1.00  0.00     0.050 A 
HETATM   24  C   UNL     1      22.854  42.592  50.047  1.00  0.00     0.008 A 
HETATM   25  C   UNL     1      23.738  43.175  50.997  1.00  0.00     0.017 A 
ENDBRANCH  10  21
ENDBRANCH   2  10
BRANCH   1  26
HETATM   26  C   UNL     1      26.874  43.920  49.751  1.00  0.00     0.101 C 
HETATM   27  N   UNL     1      26.420  43.166  48.691  1.00  0.00    -0.351 N 
HETATM   28  C   UNL     1      26.426  41.819  48.995  1.00  0.00     0.043 C 
HETATM   29  H   UNL     1      26.047  43.560  47.832  1.00  0.00     0.166 HD
HETATM   30  C   UNL     1      27.127  41.711  50.185  1.00  0.00     0.033 C 
HETATM   31  C   UNL     1      27.423  43.014  50.644  1.00  0.00     0.037 C 
BRANCH  28  32
HETATM   32  C   UNL     1      25.787  40.786  48.163  1.00  0.00    -0.009 A 
HETATM   33  C   UNL     1      26.254  39.464  48.127  1.00  0.00     0.013 A 
HETATM   34  C   UNL     1      25.658  38.513  47.293  1.00  0.00     0.001 A 
HETATM   35  C   UNL     1      24.583  38.866  46.482  1.00  0.00     0.000 A 
HETATM   36  C   UNL     1      24.100  40.170  46.508  1.00  0.00     0.001 A 
HETATM   37  C   UNL     1      24.698  41.120  47.341  1.00  0.00     0.013 A 
ENDBRANCH  28  32
ENDBRANCH   1  26
TORSDOF 9
ENDMDL
MODEL 3
REMARK VINA RESULT:      -7.0     10.914     13.113
REMARK  9 active torsions:
REMARK  status: ('A' for Active; 'I' for Inactive)
REMARK    1  A    between atoms: C_4  and  C_5 
REMARK    2  A    between atoms: C_8  and  C_9 
REMARK       I    between atoms: C_9  and  N_10 
REMARK    3  A    between atoms: N_10  and  C_26 
REMARK    4  A    between atoms: N_10  and  C_11 
REMARK    5  A    between atoms: C_11  and  C_12 
REMARK    6  A    between atoms: C_11  and  C_21 
REMARK       I    between atoms: C_12  and  N_13 
REMARK    7  A    between atoms: N_13  and  C_14 
REMARK    8  A    between atoms: C_14  and  C_15 
REMARK    9  A    between atoms: C_26  and  C_27 
ROOT
HETATM    1  C   UNL     1      19.344  48.639  48.980  1.00  0.00     0.271 C 
HETATM    2  N   UNL     1      18.161  49.329  48.668  1.00  0.00    -0.324 N 
HETATM    3  O   UNL     1      19.305  47.441  49.267  1.00  0.00    -0.266 OA
ENDROOT
BRANCH   2   4
HETATM    4  C   UNL     1      16.917  48.553  48.726  1.00  0.00     0.173 C 
BRANCH   4   5
HETATM    5  C   UNL     1      16.379  48.246  47.362  1.00  0.00     0.000 A 
HETATM    6  S   UNL     1      17.190  47.120  46.351  1.00  0.00    -0.105 SA
HETATM    7  C   UNL     1      15.997  47.249  45.135  1.00  0.00     0.050 A 
HETATM    8  C   UNL     1      14.989  48.116  45.491  1.00  0.00     0.008 A 
HETATM    9  C   UNL     1      15.208  48.690  46.776  1.00  0.00     0.017 A 
ENDBRANCH   4   5
ENDBRANCH   2   4
BRANCH   2  10
HETATM   10  C   UNL     1      18.093  50.760  48.300  1.00  0.00     0.220 C 
BRANCH  10  11
HETATM   11  C   UNL     1      17.185  51.558  49.271  1.00  0.00     0.245 C 
HETATM   12  N   UNL     1      15.837  51.633  49.041  1.00  0.00    -0.357 N 
HETATM   13  H   UNL     1      15.488  51.384  48.123  1.00  0.00     0.162 HD
HETATM   14  O   UNL     1      17.661  52.020  50.319  1.00  0.00    -0.271 OA
BRANCH  12  15
HETATM   15  C   UNL     1      14.952  52.417  49.888  1.00  0.00     0.154 C 
BRANCH  15  16
HETATM   16  C   UNL     1      14.767  53.844  49.356  1.00  0.00     0.139 C 
HETATM   17  O   UNL     1      14.502  53.795  47.935  1.00  0.00    -0.384 OA
HETATM   18  C   UNL     1      13.459  54.734  47.658  1.00  0.00     0.168 C 
HETATM   19  C   UNL     1      12.585  54.720  48.888  1.00  0.00     0.029 C 
HETATM   20  C   UNL     1      13.596  54.581  50.002  1.00  0.00     0.035 C 
ENDBRANCH  15  16
ENDBRANCH  12  15
ENDBRANCH  10  11
BRANCH  10  21
HETATM   21  C   UNL     1      17.962  50.970  46.798  1.00  0.00     0.014 A 
HETATM   22  S   UNL     1      16.796  51.970  46.037  1.00  0.00    -0.104 SA
HETATM   23  C   UNL     1      17.372  51.608  44.475  1.00  0.00     0.050 A 
HETATM   24  C   UNL     1      18.434  50.736  44.509  1.00  0.00     0.008 A 
HETATM   25  C   UNL     1      18.771  50.370  45.841  1.00  0.00     0.017 A 
ENDBRANCH  10  21
ENDBRANCH   2  10
BRANCH   1  26
HETATM   26  C   UNL     1      20.634  49.301  48.879  1.00  0.00     0.101 C 
HETATM   27  N   UNL     1      21.868  48.720  48.679  1.00  0.00    -0.351 N 
HETATM   28  C   UNL     1      22.883  49.652  48.775  1.00  0.00     0.043 C 
HETATM   29  H   UNL     1      22.014  47.721  48.566  1.00  0.00     0.166 HD
HETATM   30  C   UNL     1      22.252  50.885  48.795  1.00  0.00     0.033 C 
HETATM   31  C   UNL     1      20.856  50.667  48.838  1.00  0.00     0.037 C 
BRANCH  28  32
HETATM   32  C   UNL     1      24.312  49.306  48.841  1.00  0.00    -0.009 A 
HETATM   33  C   UNL     1      24.783  48.227  49.603  1.00  0.00     0.013 A 
HETATM   34  C   UNL     1      26.152  47.948  49.687  1.00  0.00     0.001 A 
HETATM   35  C   UNL     1      27.072  48.741  49.007  1.00  0.00     0.000 A 
HETATM   36  C   UNL     1      26.625  49.811  48.240  1.00  0.00     0.001 A 
HETATM   37  C   UNL     1      25.257  50.090  48.159  1.00  0.00     0.013 A 
ENDBRANCH  28  32
ENDBRANCH   1  26
TORSDOF 9
ENDMDL
MODEL 4
REMARK VINA RESULT:      -6.9      2.164      4.663
REMARK  9 active torsions:
REMARK  status: ('A' for Active; 'I' for Inactive)
REMARK    1  A    between atoms: C_4  and  C_5 
REMARK    2  A    between atoms: C_8  and  C_9 
REMARK       I    between atoms: C_9  and  N_10 
REMARK    3  A    between atoms: N_10  and  C_26 
REMARK    4  A    between atoms: N_10  and  C_11 
REMARK    5  A    between atoms: C_11  and  C_12 
REMARK    6  A    between atoms: C_11  and  C_21 
REMARK       I    between atoms: C_12  and  N_13 
REMARK    7  A    between atoms: N_13  and  C_14 
REMARK    8  A    between atoms: C_14  and  C_15 
REMARK    9  A    between atoms: C_26  and  C_27 
ROOT
HETATM    1  C   UNL     1      26.935  48.021  37.977  1.00  0.00     0.271 C 
HETATM    2  N   UNL     1      26.927  46.830  38.722  1.00  0.00    -0.324 N 
HETATM    3  O   UNL     1      26.374  48.069  36.881  1.00  0.00    -0.266 OA
ENDROOT
BRANCH   2   4
HETATM    4  C   UNL     1      26.244  45.682  38.114  1.00  0.00     0.173 C 
BRANCH   4   5
HETATM    5  C   UNL     1      27.206  44.716  37.494  1.00  0.00     0.000 A 
HETATM    6  S   UNL     1      28.214  45.217  36.199  1.00  0.00    -0.105 SA
HETATM    7  C   UNL     1      29.006  43.704  36.140  1.00  0.00     0.050 A 
HETATM    8  C   UNL     1      28.531  42.835  37.095  1.00  0.00     0.008 A 
HETATM    9  C   UNL     1      27.493  43.419  37.878  1.00  0.00     0.017 A 
ENDBRANCH   4   5
ENDBRANCH   2   4
BRANCH   2  10
HETATM   10  C   UNL     1      27.556  46.663  40.050  1.00  0.00     0.220 C 
BRANCH  10  11
HETATM   11  C   UNL     1      29.100  46.568  39.943  1.00  0.00     0.245 C 
HETATM   12  N   UNL     1      29.883  47.583  40.424  1.00  0.00    -0.357 N 
HETATM   13  H   UNL     1      29.450  48.480  40.613  1.00  0.00     0.162 HD
HETATM   14  O   UNL     1      29.625  45.520  39.537  1.00  0.00    -0.271 OA
BRANCH  12  15
HETATM   15  C   UNL     1      31.331  47.569  40.293  1.00  0.00     0.154 C 
BRANCH  15  16
HETATM   16  C   UNL     1      32.027  48.037  41.578  1.00  0.00     0.139 C 
HETATM   17  O   UNL     1      33.026  49.028  41.247  1.00  0.00    -0.384 OA
HETATM   18  C   UNL     1      32.939  50.072  42.222  1.00  0.00     0.168 C 
HETATM   19  C   UNL     1      31.478  50.139  42.591  1.00  0.00     0.029 C 
HETATM   20  C   UNL     1      31.073  48.683  42.579  1.00  0.00     0.035 C 
ENDBRANCH  15  16
ENDBRANCH  12  15
ENDBRANCH  10  11
BRANCH  10  21
HETATM   21  C   UNL     1      26.798  45.685  40.937  1.00  0.00     0.014 A 
HETATM   22  S   UNL     1      25.224  45.937  41.568  1.00  0.00    -0.104 SA
HETATM   23  C   UNL     1      25.208  44.435  42.373  1.00  0.00     0.050 A 
HETATM   24  C   UNL     1      26.378  43.738  42.182  1.00  0.00     0.008 A 
HETATM   25  C   UNL     1      27.290  44.456  41.359  1.00  0.00     0.017 A 
ENDBRANCH  10  21
ENDBRANCH   2  10
BRANCH   1  26
HETATM   26  C   UNL     1      27.520  49.233  38.527  1.00  0.00     0.101 C 
HETATM   27  N   UNL     1      28.775  49.749  38.286  1.00  0.00    -0.351 N 
HETATM   28  C   UNL     1      29.031  50.842  39.091  1.00  0.00     0.043 C 
HETATM   29  H   UNL     1      29.454  49.324  37.661  1.00  0.00     0.166 HD
HETATM   30  C   UNL     1      27.817  51.163  39.676  1.00  0.00     0.033 C 
HETATM   31  C   UNL     1      26.874  50.176  39.309  1.00  0.00     0.037 C 
BRANCH  28  32
HETATM   32  C   UNL     1      30.357  51.464  39.234  1.00  0.00    -0.009 A 
HETATM   33  C   UNL     1      31.484  50.981  38.553  1.00  0.00     0.013 A 
HETATM   34  C   UNL     1      32.743  51.561  38.743  1.00  0.00     0.001 A 
HETATM   35  C   UNL     1      32.896  52.636  39.614  1.00  0.00     0.000 A 
HETATM   36  C   UNL     1      31.790  53.134  40.294  1.00  0.00     0.001 A 
HETATM   37  C   UNL     1      30.533  52.552  40.104  1.00  0.00     0.013 A 
ENDBRANCH  28  32
ENDBRANCH   1  26
TORSDOF 9
ENDMDL
MODEL 5
REMARK VINA RESULT:      -6.8      9.778     12.491
REMARK  9 active torsions:
REMARK  status: ('A' for Active; 'I' for Inactive)
REMARK    1  A    between atoms: C_4  and  C_5 
REMARK    2  A    between atoms: C_8  and  C_9 
REMARK       I    between atoms: C_9  and  N_10 
REMARK    3  A    between atoms: N_10  and  C_26 
REMARK    4  A    between atoms: N_10  and  C_11 
REMARK    5  A    between atoms: C_11  and  C_12 
REMARK    6  A    between atoms: C_11  and  C_21 
REMARK       I    between atoms: C_12  and  N_13 
REMARK    7  A    between atoms: N_13  and  C_14 
REMARK    8  A    between atoms: C_14  and  C_15 
REMARK    9  A    between atoms: C_26  and  C_27 
ROOT
HETATM    1  C   UNL     1      20.467  50.383  49.819  1.00  0.00     0.271 C 
HETATM    2  N   UNL     1      19.379  49.770  49.175  1.00  0.00    -0.324 N 
HETATM    3  O   UNL     1      20.317  50.905  50.926  1.00  0.00    -0.266 OA
ENDROOT
BRANCH   2   4
HETATM    4  C   UNL     1      18.094  49.811  49.880  1.00  0.00     0.173 C 
BRANCH   4   5
HETATM    5  C   UNL     1      17.294  51.027  49.528  1.00  0.00     0.000 A 
HETATM    6  S   UNL     1      15.882  50.878  48.563  1.00  0.00    -0.105 SA
HETATM    7  C   UNL     1      15.534  52.546  48.694  1.00  0.00     0.050 A 
HETATM    8  C   UNL     1      16.460  53.206  49.469  1.00  0.00     0.008 A 
HETATM    9  C   UNL     1      17.475  52.330  49.952  1.00  0.00     0.017 A 
ENDBRANCH   4   5
ENDBRANCH   2   4
BRANCH   2  10
HETATM   10  C   UNL     1      19.449  49.105  47.855  1.00  0.00     0.220 C 
BRANCH  10  11
HETATM   11  C   UNL     1      19.055  50.072  46.707  1.00  0.00     0.245 C 
HETATM   12  N   UNL     1      18.623  49.569  45.510  1.00  0.00    -0.357 N 
HETATM   13  H   UNL     1      18.798  48.593  45.302  1.00  0.00     0.162 HD
HETATM   14  O   UNL     1      19.015  51.293  46.918  1.00  0.00    -0.271 OA
BRANCH  12  15
HETATM   15  C   UNL     1      18.299  50.431  44.384  1.00  0.00     0.154 C 
BRANCH  15  16
HETATM   16  C   UNL     1      16.931  50.093  43.777  1.00  0.00     0.139 C 
HETATM   17  O   UNL     1      16.417  48.891  44.397  1.00  0.00    -0.384 OA
HETATM   18  C   UNL     1      15.024  49.099  44.652  1.00  0.00     0.168 C 
HETATM   19  C   UNL     1      14.899  50.571  44.956  1.00  0.00     0.029 C 
HETATM   20  C   UNL     1      15.889  51.187  43.994  1.00  0.00     0.035 C 
ENDBRANCH  15  16
ENDBRANCH  12  15
ENDBRANCH  10  11
BRANCH  10  21
HETATM   21  C   UNL     1      18.881  47.694  47.882  1.00  0.00     0.014 A 
HETATM   22  S   UNL     1      17.235  47.283  47.634  1.00  0.00    -0.104 SA
HETATM   23  C   UNL     1      17.526  45.616  47.833  1.00  0.00     0.050 A 
HETATM   24  C   UNL     1      18.851  45.354  48.091  1.00  0.00     0.008 A 
HETATM   25  C   UNL     1      19.627  46.546  48.120  1.00  0.00     0.017 A 
ENDBRANCH  10  21
ENDBRANCH   2  10
BRANCH   1  26
HETATM   26  C   UNL     1      21.797  50.331  49.236  1.00  0.00     0.101 C 
HETATM   27  N   UNL     1      22.772  49.377  49.440  1.00  0.00    -0.351 N 
HETATM   28  C   UNL     1      23.957  49.731  48.825  1.00  0.00     0.043 C 
HETATM   29  H   UNL     1      22.656  48.566  50.039  1.00  0.00     0.166 HD
HETATM   30  C   UNL     1      23.645  50.812  48.016  1.00  0.00     0.033 C 
HETATM   31  C   UNL     1      22.299  51.171  48.256  1.00  0.00     0.037 C 
BRANCH  28  32
HETATM   32  C   UNL     1      25.237  49.042  49.051  1.00  0.00    -0.009 A 
HETATM   33  C   UNL     1      26.464  49.607  48.673  1.00  0.00     0.013 A 
HETATM   34  C   UNL     1      27.664  48.912  48.856  1.00  0.00     0.001 A 
HETATM   35  C   UNL     1      27.658  47.640  49.423  1.00  0.00     0.000 A 
HETATM   36  C   UNL     1      26.453  47.065  49.810  1.00  0.00     0.001 A 
HETATM   37  C   UNL     1      25.255  47.761  49.625  1.00  0.00     0.013 A 
ENDBRANCH  28  32
ENDBRANCH   1  26
TORSDOF 9
ENDMDL
MODEL 6
REMARK VINA RESULT:      -6.7      9.316     11.668
REMARK  9 active torsions:
REMARK  status: ('A' for Active; 'I' for Inactive)
REMARK    1  A    between atoms: C_4  and  C_5 
REMARK    2  A    between atoms: C_8  and  C_9 
REMARK       I    between atoms: C_9  and  N_10 
REMARK    3  A    between atoms: N_10  and  C_26 
REMARK    4  A    between atoms: N_10  and  C_11 
REMARK    5  A    between atoms: C_11  and  C_12 
REMARK    6  A    between atoms: C_11  and  C_21 
REMARK       I    between atoms: C_12  and  N_13 
REMARK    7  A    between atoms: N_13  and  C_14 
REMARK    8  A    between atoms: C_14  and  C_15 
REMARK    9  A    between atoms: C_26  and  C_27 
ROOT
HETATM    1  C   UNL     1      19.919  48.963  49.159  1.00  0.00     0.271 C 
HETATM    2  N   UNL     1      19.268  48.127  48.236  1.00  0.00    -0.324 N 
HETATM    3  O   UNL     1      19.403  49.196  50.254  1.00  0.00    -0.266 OA
ENDROOT
BRANCH   2   4
HETATM    4  C   UNL     1      17.968  47.587  48.647  1.00  0.00     0.173 C 
BRANCH   4   5
HETATM    5  C   UNL     1      16.826  48.404  48.125  1.00  0.00     0.000 A 
HETATM    6  S   UNL     1      16.764  50.091  48.436  1.00  0.00    -0.105 SA
HETATM    7  C   UNL     1      15.345  50.280  47.503  1.00  0.00     0.050 A 
HETATM    8  C   UNL     1      14.930  49.091  46.949  1.00  0.00     0.008 A 
HETATM    9  C   UNL     1      15.785  48.008  47.306  1.00  0.00     0.017 A 
ENDBRANCH   4   5
ENDBRANCH   2   4
BRANCH   2  10
HETATM   10  C   UNL     1      19.800  47.770  46.903  1.00  0.00     0.220 C 
BRANCH  10  11
HETATM   11  C   UNL     1      18.820  48.174  45.770  1.00  0.00     0.245 C 
HETATM   12  N   UNL     1      18.649  49.494  45.453  1.00  0.00    -0.357 N 
HETATM   13  H   UNL     1      18.964  50.196  46.113  1.00  0.00     0.162 HD
HETATM   14  O   UNL     1      18.290  47.295  45.074  1.00  0.00    -0.271 OA
BRANCH  12  15
HETATM   15  C   UNL     1      17.698  49.927  44.441  1.00  0.00     0.154 C 
BRANCH  15  16
HETATM   16  C   UNL     1      17.799  51.433  44.167  1.00  0.00     0.139 C 
HETATM   17  O   UNL     1      16.856  51.795  43.132  1.00  0.00    -0.384 OA
HETATM   18  C   UNL     1      16.236  53.024  43.523  1.00  0.00     0.168 C 
HETATM   19  C   UNL     1      16.166  52.963  45.029  1.00  0.00     0.029 C 
HETATM   20  C   UNL     1      17.471  52.291  45.387  1.00  0.00     0.035 C 
ENDBRANCH  15  16
ENDBRANCH  12  15
ENDBRANCH  10  11
BRANCH  10  21
HETATM   21  C   UNL     1      20.453  46.396  46.883  1.00  0.00     0.014 A 
HETATM   22  S   UNL     1      19.641  44.911  47.155  1.00  0.00    -0.104 SA
HETATM   23  C   UNL     1      21.063  43.992  46.952  1.00  0.00     0.050 A 
HETATM   24  C   UNL     1      22.153  44.786  46.686  1.00  0.00     0.008 A 
HETATM   25  C   UNL     1      21.803  46.164  46.647  1.00  0.00     0.017 A 
ENDBRANCH  10  21
ENDBRANCH   2  10
BRANCH   1  26
HETATM   26  C   UNL     1      21.245  49.486  48.876  1.00  0.00     0.101 C 
HETATM   27  N   UNL     1      22.442  48.802  48.879  1.00  0.00    -0.351 N 
HETATM   28  C   UNL     1      23.510  49.658  48.697  1.00  0.00     0.043 C 
HETATM   29  H   UNL     1      22.528  47.810  49.080  1.00  0.00     0.166 HD
HETATM   30  C   UNL     1      22.953  50.872  48.330  1.00  0.00     0.033 C 
HETATM   31  C   UNL     1      21.547  50.759  48.420  1.00  0.00     0.037 C 
BRANCH  28  32
HETATM   32  C   UNL     1      24.917  49.268  48.884  1.00  0.00    -0.009 A 
HETATM   33  C   UNL     1      25.283  48.124  49.607  1.00  0.00     0.013 A 
HETATM   34  C   UNL     1      26.629  47.800  49.810  1.00  0.00     0.001 A 
HETATM   35  C   UNL     1      27.632  48.613  49.290  1.00  0.00     0.000 A 
HETATM   36  C   UNL     1      27.290  49.748  48.564  1.00  0.00     0.001 A 
HETATM   37  C   UNL     1      25.944  50.071  48.364  1.00  0.00     0.013 A 
ENDBRANCH  28  32
ENDBRANCH   1  26
TORSDOF 9
ENDMDL
MODEL 7
REMARK VINA RESULT:      -6.7      2.086      4.290
REMARK  9 active torsions:
REMARK  status: ('A' for Active; 'I' for Inactive)
REMARK    1  A    between atoms: C_4  and  C_5 
REMARK    2  A    between atoms: C_8  and  C_9 
REMARK       I    between atoms: C_9  and  N_10 
REMARK    3  A    between atoms: N_10  and  C_26 
REMARK    4  A    between atoms: N_10  and  C_11 
REMARK    5  A    between atoms: C_11  and  C_12 
REMARK    6  A    between atoms: C_11  and  C_21 
REMARK       I    between atoms: C_12  and  N_13 
REMARK    7  A    between atoms: N_13  and  C_14 
REMARK    8  A    between atoms: C_14  and  C_15 
REMARK    9  A    between atoms: C_26  and  C_27 
ROOT
HETATM    1  C   UNL     1      26.960  48.603  38.089  1.00  0.00     0.271 C 
HETATM    2  N   UNL     1      26.988  47.310  38.639  1.00  0.00    -0.324 N 
HETATM    3  O   UNL     1      26.256  48.842  37.106  1.00  0.00    -0.266 OA
ENDROOT
BRANCH   2   4
HETATM    4  C   UNL     1      26.163  46.297  37.971  1.00  0.00     0.173 C 
BRANCH   4   5
HETATM    5  C   UNL     1      24.698  46.564  38.134  1.00  0.00     0.000 A 
HETATM    6  S   UNL     1      23.613  46.215  36.851  1.00  0.00    -0.105 SA
HETATM    7  C   UNL     1      22.255  46.666  37.786  1.00  0.00     0.050 A 
HETATM    8  C   UNL     1      22.611  47.059  39.056  1.00  0.00     0.008 A 
HETATM    9  C   UNL     1      24.021  46.999  39.258  1.00  0.00     0.017 A 
ENDBRANCH   4   5
ENDBRANCH   2   4
BRANCH   2  10
HETATM   10  C   UNL     1      27.785  46.915  39.820  1.00  0.00     0.220 C 
BRANCH  10  11
HETATM   11  C   UNL     1      29.307  47.040  39.551  1.00  0.00     0.245 C 
HETATM   12  N   UNL     1      30.132  47.552  40.516  1.00  0.00    -0.357 N 
HETATM   13  H   UNL     1      29.718  48.067  41.284  1.00  0.00     0.162 HD
HETATM   14  O   UNL     1      29.789  46.562  38.513  1.00  0.00    -0.271 OA
BRANCH  12  15
HETATM   15  C   UNL     1      31.556  47.745  40.290  1.00  0.00     0.154 C 
BRANCH  15  16
HETATM   16  C   UNL     1      32.284  48.189  41.565  1.00  0.00     0.139 C 
HETATM   17  O   UNL     1      33.183  49.277  41.249  1.00  0.00    -0.384 OA
HETATM   18  C   UNL     1      33.069  50.248  42.293  1.00  0.00     0.168 C 
HETATM   19  C   UNL     1      31.630  50.174  42.739  1.00  0.00     0.029 C 
HETATM   20  C   UNL     1      31.339  48.694  42.654  1.00  0.00     0.035 C 
ENDBRANCH  15  16
ENDBRANCH  12  15
ENDBRANCH  10  11
BRANCH  10  21
HETATM   21  C   UNL     1      27.238  45.670  40.504  1.00  0.00     0.014 A 
HETATM   22  S   UNL     1      27.656  44.057  40.103  1.00  0.00    -0.104 SA
HETATM   23  C   UNL     1      26.635  43.399  41.299  1.00  0.00     0.050 A 
HETATM   24  C   UNL     1      25.972  44.376  42.001  1.00  0.00     0.008 A 
HETATM   25  C   UNL     1      26.318  45.679  41.544  1.00  0.00     0.017 A 
ENDBRANCH  10  21
ENDBRANCH   2  10
BRANCH   1  26
HETATM   26  C   UNL     1      27.684  49.692  38.723  1.00  0.00     0.101 C 
HETATM   27  N   UNL     1      28.939  50.169  38.409  1.00  0.00    -0.351 N 
HETATM   28  C   UNL     1      29.355  51.122  39.317  1.00  0.00     0.043 C 
HETATM   29  H   UNL     1      29.515  49.800  37.658  1.00  0.00     0.166 HD
HETATM   30  C   UNL     1      28.237  51.423  40.077  1.00  0.00     0.033 C 
HETATM   31  C   UNL     1      27.193  50.550  39.694  1.00  0.00     0.037 C 
BRANCH  28  32
HETATM   32  C   UNL     1      30.729  51.645  39.387  1.00  0.00    -0.009 A 
HETATM   33  C   UNL     1      31.068  52.743  40.191  1.00  0.00     0.013 A 
HETATM   34  C   UNL     1      32.372  53.251  40.204  1.00  0.00     0.001 A 
HETATM   35  C   UNL     1      33.360  52.668  39.416  1.00  0.00     0.000 A 
HETATM   36  C   UNL     1      33.046  51.574  38.616  1.00  0.00     0.001 A 
HETATM   37  C   UNL     1      31.742  51.069  38.603  1.00  0.00     0.013 A 
ENDBRANCH  28  32
ENDBRANCH   1  26
TORSDOF 9
ENDMDL
MODEL 8
REMARK VINA RESULT:      -6.6      2.258      6.834
REMARK  9 active torsions:
REMARK  status: ('A' for Active; 'I' for Inactive)
REMARK    1  A    between atoms: C_4  and  C_5 
REMARK    2  A    between atoms: C_8  and  C_9 
REMARK       I    between atoms: C_9  and  N_10 
REMARK    3  A    between atoms: N_10  and  C_26 
REMARK    4  A    between atoms: N_10  and  C_11 
REMARK    5  A    between atoms: C_11  and  C_12 
REMARK    6  A    between atoms: C_11  and  C_21 
REMARK       I    between atoms: C_12  and  N_13 
REMARK    7  A    between atoms: N_13  and  C_14 
REMARK    8  A    between atoms: C_14  and  C_15 
REMARK    9  A    between atoms: C_26  and  C_27 
ROOT
HETATM    1  C   UNL     1      27.402  49.052  38.622  1.00  0.00     0.271 C 
HETATM    2  N   UNL     1      28.668  48.836  39.190  1.00  0.00    -0.324 N 
HETATM    3  O   UNL     1      27.226  49.989  37.840  1.00  0.00    -0.266 OA
ENDROOT
BRANCH   2   4
HETATM    4  C   UNL     1      29.724  49.783  38.814  1.00  0.00     0.173 C 
BRANCH   4   5
HETATM    5  C   UNL     1      29.683  51.032  39.640  1.00  0.00     0.000 A 
HETATM    6  S   UNL     1      30.793  52.304  39.331  1.00  0.00    -0.105 SA
HETATM    7  C   UNL     1      30.083  53.304  40.521  1.00  0.00     0.050 A 
HETATM    8  C   UNL     1      29.011  52.696  41.133  1.00  0.00     0.008 A 
HETATM    9  C   UNL     1      28.779  51.386  40.624  1.00  0.00     0.017 A 
ENDBRANCH   4   5
ENDBRANCH   2   4
BRANCH   2  10
HETATM   10  C   UNL     1      28.994  47.740  40.127  1.00  0.00     0.220 C 
BRANCH  10  11
HETATM   11  C   UNL     1      30.301  48.027  40.911  1.00  0.00     0.245 C 
HETATM   12  N   UNL     1      30.241  48.606  42.150  1.00  0.00    -0.357 N 
HETATM   13  H   UNL     1      29.380  49.061  42.432  1.00  0.00     0.162 HD
HETATM   14  O   UNL     1      31.386  47.621  40.469  1.00  0.00    -0.271 OA
BRANCH  12  15
HETATM   15  C   UNL     1      31.439  48.951  42.900  1.00  0.00     0.154 C 
BRANCH  15  16
HETATM   16  C   UNL     1      31.745  50.453  42.833  1.00  0.00     0.139 C 
HETATM   17  O   UNL     1      32.072  50.934  44.157  1.00  0.00    -0.384 OA
HETATM   18  C   UNL     1      33.188  51.820  44.031  1.00  0.00     0.168 C 
HETATM   19  C   UNL     1      34.000  51.264  42.888  1.00  0.00     0.029 C 
HETATM   20  C   UNL     1      32.931  50.787  41.931  1.00  0.00     0.035 C 
ENDBRANCH  15  16
ENDBRANCH  12  15
ENDBRANCH  10  11
BRANCH  10  21
HETATM   21  C   UNL     1      28.766  46.364  39.518  1.00  0.00     0.014 A 
HETATM   22  S   UNL     1      29.277  45.875  37.957  1.00  0.00    -0.104 SA
HETATM   23  C   UNL     1      28.632  44.308  38.136  1.00  0.00     0.050 A 
HETATM   24  C   UNL     1      28.027  44.139  39.359  1.00  0.00     0.008 A 
HETATM   25  C   UNL     1      28.103  45.319  40.150  1.00  0.00     0.017 A 
ENDBRANCH  10  21
ENDBRANCH   2  10
BRANCH   1  26
HETATM   26  C   UNL     1      26.311  48.125  38.873  1.00  0.00     0.101 C 
HETATM   27  N   UNL     1      25.591  47.964  40.037  1.00  0.00    -0.351 N 
HETATM   28  C   UNL     1      24.723  46.893  39.945  1.00  0.00     0.043 C 
HETATM   29  H   UNL     1      25.745  48.508  40.880  1.00  0.00     0.166 HD
HETATM   30  C   UNL     1      24.727  46.526  38.609  1.00  0.00     0.033 C 
HETATM   31  C   UNL     1      25.697  47.306  37.940  1.00  0.00     0.037 C 
BRANCH  28  32
HETATM   32  C   UNL     1      23.993  46.327  41.091  1.00  0.00    -0.009 A 
HETATM   33  C   UNL     1      24.624  45.526  42.054  1.00  0.00     0.013 A 
HETATM   34  C   UNL     1      23.898  44.961  43.109  1.00  0.00     0.001 A 
HETATM   35  C   UNL     1      22.530  45.191  43.220  1.00  0.00     0.000 A 
HETATM   36  C   UNL     1      21.887  45.988  42.280  1.00  0.00     0.001 A 
HETATM   37  C   UNL     1      22.613  46.550  41.226  1.00  0.00     0.013 A 
ENDBRANCH  28  32
ENDBRANCH   1  26
TORSDOF 9
ENDMDL
MODEL 9
REMARK VINA RESULT:      -6.6      9.351     11.481
REMARK  9 active torsions:
REMARK  status: ('A' for Active; 'I' for Inactive)
REMARK    1  A    between atoms: C_4  and  C_5 
REMARK    2  A    between atoms: C_8  and  C_9 
REMARK       I    between atoms: C_9  and  N_10 
REMARK    3  A    between atoms: N_10  and  C_26 
REMARK    4  A    between atoms: N_10  and  C_11 
REMARK    5  A    between atoms: C_11  and  C_12 
REMARK    6  A    between atoms: C_11  and  C_21 
REMARK       I    between atoms: C_12  and  N_13 
REMARK    7  A    between atoms: N_13  and  C_14 
REMARK    8  A    between atoms: C_14  and  C_15 
REMARK    9  A    between atoms: C_26  and  C_27 
ROOT
HETATM    1  C   UNL     1      19.981  46.105  48.426  1.00  0.00     0.271 C 
HETATM    2  N   UNL     1      18.864  46.271  47.590  1.00  0.00    -0.324 N 
HETATM    3  O   UNL     1      20.232  45.000  48.912  1.00  0.00    -0.266 OA
ENDROOT
BRANCH   2   4
HETATM    4  C   UNL     1      18.035  45.082  47.362  1.00  0.00     0.173 C 
BRANCH   4   5
HETATM    5  C   UNL     1      18.505  44.282  46.186  1.00  0.00     0.000 A 
HETATM    6  S   UNL     1      17.397  43.828  44.957  1.00  0.00    -0.105 SA
HETATM    7  C   UNL     1      18.628  43.100  44.021  1.00  0.00     0.050 A 
HETATM    8  C   UNL     1      19.863  43.212  44.618  1.00  0.00     0.008 A 
HETATM    9  C   UNL     1      19.793  43.895  45.866  1.00  0.00     0.017 A 
ENDBRANCH   4   5
ENDBRANCH   2   4
BRANCH   2  10
HETATM   10  C   UNL     1      18.477  47.544  46.946  1.00  0.00     0.220 C 
BRANCH  10  11
HETATM   11  C   UNL     1      17.444  48.326  47.800  1.00  0.00     0.245 C 
HETATM   12  N   UNL     1      17.262  49.667  47.592  1.00  0.00    -0.357 N 
HETATM   13  H   UNL     1      17.965  50.177  47.069  1.00  0.00     0.162 HD
HETATM   14  O   UNL     1      16.701  47.713  48.580  1.00  0.00    -0.271 OA
BRANCH  12  15
HETATM   15  C   UNL     1      16.350  50.456  48.406  1.00  0.00     0.154 C 
BRANCH  15  16
HETATM   16  C   UNL     1      17.080  51.573  49.164  1.00  0.00     0.139 C 
HETATM   17  O   UNL     1      17.940  50.986  50.168  1.00  0.00    -0.384 OA
HETATM   18  C   UNL     1      19.181  51.698  50.143  1.00  0.00     0.168 C 
HETATM   19  C   UNL     1      19.373  52.095  48.701  1.00  0.00     0.029 C 
HETATM   20  C   UNL     1      17.966  52.433  48.266  1.00  0.00     0.035 C 
ENDBRANCH  15  16
ENDBRANCH  12  15
ENDBRANCH  10  11
BRANCH  10  21
HETATM   21  C   UNL     1      18.261  47.398  45.446  1.00  0.00     0.014 A 
HETATM   22  S   UNL     1      16.744  47.472  44.653  1.00  0.00    -0.104 SA
HETATM   23  C   UNL     1      17.433  47.223  43.114  1.00  0.00     0.050 A 
HETATM   24  C   UNL     1      18.799  47.078  43.182  1.00  0.00     0.008 A 
HETATM   25  C   UNL     1      19.273  47.177  44.520  1.00  0.00     0.017 A 
ENDBRANCH  10  21
ENDBRANCH   2  10
BRANCH   1  26
HETATM   26  C   UNL     1      20.905  47.204  48.652  1.00  0.00     0.101 C 
HETATM   27  N   UNL     1      22.246  47.257  48.340  1.00  0.00    -0.351 N 
HETATM   28  C   UNL     1      22.829  48.411  48.828  1.00  0.00     0.043 C 
HETATM   29  H   UNL     1      22.755  46.504  47.888  1.00  0.00     0.166 HD
HETATM   30  C   UNL     1      21.777  49.209  49.245  1.00  0.00     0.033 C 
HETATM   31  C   UNL     1      20.581  48.468  49.116  1.00  0.00     0.037 C 
BRANCH  28  32
HETATM   32  C   UNL     1      24.282  48.647  48.860  1.00  0.00    -0.009 A 
HETATM   33  C   UNL     1      25.146  47.868  49.644  1.00  0.00     0.013 A 
HETATM   34  C   UNL     1      26.517  48.143  49.694  1.00  0.00     0.001 A 
HETATM   35  C   UNL     1      27.048  49.199  48.958  1.00  0.00     0.000 A 
HETATM   36  C   UNL     1      26.209  49.978  48.169  1.00  0.00     0.001 A 
HETATM   37  C   UNL     1      24.839  49.703  48.122  1.00  0.00     0.013 A 
ENDBRANCH  28  32
ENDBRANCH   1  26
TORSDOF 9
ENDMDL
MODEL 10
REMARK VINA RESULT:      -6.6      5.393      9.567
REMARK  9 active torsions:
REMARK  status: ('A' for Active; 'I' for Inactive)
REMARK    1  A    between atoms: C_4  and  C_5 
REMARK    2  A    between atoms: C_8  and  C_9 
REMARK       I    between atoms: C_9  and  N_10 
REMARK    3  A    between atoms: N_10  and  C_26 
REMARK    4  A    between atoms: N_10  and  C_11 
REMARK    5  A    between atoms: C_11  and  C_12 
REMARK    6  A    between atoms: C_11  and  C_21 
REMARK       I    between atoms: C_12  and  N_13 
REMARK    7  A    between atoms: N_13  and  C_14 
REMARK    8  A    between atoms: C_14  and  C_15 
REMARK    9  A    between atoms: C_26  and  C_27 
ROOT
HETATM    1  C   UNL     1      36.508  51.242  41.465  1.00  0.00     0.271 C 
HETATM    2  N   UNL     1      36.732  52.343  40.621  1.00  0.00    -0.324 N 
HETATM    3  O   UNL     1      37.456  50.554  41.849  1.00  0.00    -0.266 OA
ENDROOT
BRANCH   2   4
HETATM    4  C   UNL     1      38.123  52.595  40.228  1.00  0.00     0.173 C 
BRANCH   4   5
HETATM    5  C   UNL     1      38.594  51.639  39.175  1.00  0.00     0.000 A 
HETATM    6  S   UNL     1      40.201  51.038  39.218  1.00  0.00    -0.105 SA
HETATM    7  C   UNL     1      39.932  50.031  37.864  1.00  0.00     0.050 A 
HETATM    8  C   UNL     1      38.642  50.131  37.394  1.00  0.00     0.008 A 
HETATM    9  C   UNL     1      37.869  51.058  38.152  1.00  0.00     0.017 A 
ENDBRANCH   4   5
ENDBRANCH   2   4
BRANCH   2  10
HETATM   10  C   UNL     1      35.673  53.241  40.111  1.00  0.00     0.220 C 
BRANCH  10  11
HETATM   11  C   UNL     1      34.486  52.442  39.512  1.00  0.00     0.245 C 
HETATM   12  N   UNL     1      33.200  52.847  39.752  1.00  0.00    -0.357 N 
HETATM   13  H   UNL     1      33.031  53.501  40.507  1.00  0.00     0.162 HD
HETATM   14  O   UNL     1      34.706  51.515  38.719  1.00  0.00    -0.271 OA
BRANCH  12  15
HETATM   15  C   UNL     1      32.052  52.099  39.264  1.00  0.00     0.154 C 
BRANCH  15  16
HETATM   16  C   UNL     1      30.727  52.710  39.736  1.00  0.00     0.139 C 
HETATM   17  O   UNL     1      29.770  51.651  39.974  1.00  0.00    -0.384 OA
HETATM   18  C   UNL     1      29.077  51.961  41.187  1.00  0.00     0.168 C 
HETATM   19  C   UNL     1      30.095  52.667  42.048  1.00  0.00     0.029 C 
HETATM   20  C   UNL     1      30.855  53.495  41.039  1.00  0.00     0.035 C 
ENDBRANCH  15  16
ENDBRANCH  12  15
ENDBRANCH  10  11
BRANCH  10  21
HETATM   21  C   UNL     1      36.235  54.437  39.357  1.00  0.00     0.014 A 
HETATM   22  S   UNL     1      36.570  55.972  40.043  1.00  0.00    -0.104 SA
HETATM   23  C   UNL     1      37.122  56.614  38.564  1.00  0.00     0.050 A 
HETATM   24  C   UNL     1      37.056  55.692  37.548  1.00  0.00     0.008 A 
HETATM   25  C   UNL     1      36.546  54.444  38.002  1.00  0.00     0.017 A 
ENDBRANCH  10  21
ENDBRANCH   2  10
BRANCH   1  26
HETATM   26  C   UNL     1      35.175  50.956  41.969  1.00  0.00     0.101 C 
HETATM   27  N   UNL     1      34.303  49.978  41.543  1.00  0.00    -0.351 N 
HETATM   28  C   UNL     1      33.075  50.096  42.164  1.00  0.00     0.043 C 
HETATM   29  H   UNL     1      34.510  49.315  40.802  1.00  0.00     0.166 HD
HETATM   30  C   UNL     1      33.261  51.019  43.180  1.00  0.00     0.033 C 
HETATM   31  C   UNL     1      34.572  51.537  43.072  1.00  0.00     0.037 C 
BRANCH  28  32
HETATM   32  C   UNL     1      31.872  49.353  41.754  1.00  0.00    -0.009 A 
HETATM   33  C   UNL     1      30.771  49.190  42.607  1.00  0.00     0.013 A 
HETATM   34  C   UNL     1      29.658  48.440  42.211  1.00  0.00     0.001 A 
HETATM   35  C   UNL     1      29.627  47.841  40.954  1.00  0.00     0.000 A 
HETATM   36  C   UNL     1      30.706  47.996  40.091  1.00  0.00     0.001 A 
HETATM   37  C   UNL     1      31.818  48.745  40.489  1.00  0.00     0.013 A 
ENDBRANCH  28  32
ENDBRANCH   1  26
TORSDOF 9
ENDMDL
