MODEL 1
REMARK VINA RESULT:     -10.8      0.000      0.000
REMARK  7 active torsions:
REMARK  status: ('A' for Active; 'I' for Inactive)
REMARK    1  A    between atoms: N_5  and  C_6 
REMARK    2  A    between atoms: C_14  and  N_15 
REMARK       I    between atoms: N_15  and  C_16 
REMARK    3  A    between atoms: C_16  and  C_17 
REMARK    4  A    between atoms: C_17  and  C_18 
REMARK    5  A    between atoms: C_18  and  C_19 
REMARK    6  A    between atoms: C_19  and  C_20 
REMARK       I    between atoms: C_20  and  N_21 
REMARK    7  A    between atoms: N_24  and  C_25 
ROOT
HETATM    1  C   UNL     1      24.422  44.985  51.340  1.00  0.00     0.112 C 
ENDROOT
BRANCH   1   2
HETATM    2  C   UNL     1      25.034  43.772  51.987  1.00  0.00     0.223 C 
HETATM    3  N   UNL     1      25.969  43.812  52.960  1.00  0.00    -0.321 N 
HETATM    4  H   UNL     1      26.196  42.844  53.208  1.00  0.00     0.169 HD
HETATM    5  O   UNL     1      24.677  42.647  51.615  1.00  0.00    -0.273 OA
BRANCH   3   6
HETATM    6  C   UNL     1      26.748  44.686  53.667  1.00  0.00     0.129 C 
HETATM    7  C   UNL     1      26.790  45.977  54.049  1.00  0.00     0.057 C 
HETATM    8  C   UNL     1      25.803  47.080  53.847  1.00  0.00     0.072 C 
HETATM    9  N   UNL     1      27.956  46.277  54.790  1.00  0.00    -0.289 N 
HETATM   10  C   UNL     1      28.650  47.560  54.688  1.00  0.00     0.178 C 
HETATM   11  N   UNL     1      28.776  45.109  54.791  1.00  0.00    -0.217 N 
HETATM   12  C   UNL     1      28.010  44.086  54.235  1.00  0.00     0.295 C 
HETATM   13  O   UNL     1      28.241  42.884  54.170  1.00  0.00    -0.264 OA
BRANCH  11  14
HETATM   14  C   UNL     1      29.638  44.885  55.897  1.00  0.00     0.060 A 
HETATM   15  C   UNL     1      29.498  45.665  57.053  1.00  0.00     0.031 A 
HETATM   16  C   UNL     1      30.365  45.499  58.135  1.00  0.00     0.002 A 
HETATM   17  C   UNL     1      31.386  44.552  58.073  1.00  0.00     0.000 A 
HETATM   18  C   UNL     1      31.546  43.782  56.924  1.00  0.00     0.002 A 
HETATM   19  C   UNL     1      30.683  43.954  55.837  1.00  0.00     0.031 A 
ENDBRANCH  11  14
ENDBRANCH   3   6
ENDBRANCH   1   2
BRANCH   1  20
HETATM   20  C   UNL     1      24.953  45.290  49.905  1.00  0.00    -0.031 C 
HETATM   21  C   UNL     1      26.363  45.891  50.067  1.00  0.00     0.016 C 
HETATM   22  C   UNL     1      25.102  43.970  49.113  1.00  0.00     0.016 C 
BRANCH  20  23
HETATM   23  C   UNL     1      24.000  46.250  49.148  1.00  0.00     0.112 C 
BRANCH  23  24
HETATM   24  C   UNL     1      23.869  47.661  49.712  1.00  0.00     0.220 C 
HETATM   25  N   UNL     1      22.885  48.501  49.212  1.00  0.00    -0.349 N 
HETATM   26  C   UNL     1      22.826  49.872  49.740  1.00  0.00     0.145 C 
HETATM   27  C   UNL     1      21.649  48.067  48.540  1.00  0.00     0.145 C 
HETATM   28  C   UNL     1      22.361  50.882  48.675  1.00  0.00     0.143 C 
HETATM   29  N   UNL     1      21.077  50.463  48.065  1.00  0.00    -0.375 N 
HETATM   30  C   UNL     1      21.131  49.095  47.514  1.00  0.00     0.143 C 
HETATM   31  O   UNL     1      24.682  48.049  50.555  1.00  0.00    -0.273 OA
BRANCH  29  32
HETATM   32  C   UNL     1      19.906  50.960  48.649  1.00  0.00     0.069 A 
HETATM   33  C   UNL     1      19.154  50.307  49.643  1.00  0.00     0.142 A 
HETATM   34  F   UNL     1      19.549  49.125  50.145  1.00  0.00    -0.204 F 
HETATM   35  C   UNL     1      17.984  50.855  50.177  1.00  0.00     0.044 A 
HETATM   36  C   UNL     1      17.510  52.078  49.715  1.00  0.00     0.003 A 
HETATM   37  C   UNL     1      18.209  52.742  48.715  1.00  0.00     0.002 A 
HETATM   38  C   UNL     1      19.384  52.187  48.192  1.00  0.00     0.032 A 
ENDBRANCH  29  32
ENDBRANCH  23  24
ENDBRANCH  20  23
ENDBRANCH   1  20
TORSDOF 7
ENDMDL
MODEL 2
REMARK VINA RESULT:     -10.2      2.807     11.126
REMARK  7 active torsions:
REMARK  status: ('A' for Active; 'I' for Inactive)
REMARK    1  A    between atoms: N_5  and  C_6 
REMARK    2  A    between atoms: C_14  and  N_15 
REMARK       I    between atoms: N_15  and  C_16 
REMARK    3  A    between atoms: C_16  and  C_17 
REMARK    4  A    between atoms: C_17  and  C_18 
REMARK    5  A    between atoms: C_18  and  C_19 
REMARK    6  A    between atoms: C_19  and  C_20 
REMARK       I    between atoms: C_20  and  N_21 
REMARK    7  A    between atoms: N_24  and  C_25 
ROOT
HETATM    1  C   UNL     1      25.346  45.991  49.571  1.00  0.00     0.112 C 
ENDROOT
BRANCH   1   2
HETATM    2  C   UNL     1      25.321  47.413  50.062  1.00  0.00     0.223 C 
HETATM    3  N   UNL     1      24.284  48.262  49.901  1.00  0.00    -0.321 N 
HETATM    4  H   UNL     1      24.545  49.152  50.335  1.00  0.00     0.169 HD
HETATM    5  O   UNL     1      26.311  47.862  50.654  1.00  0.00    -0.273 OA
BRANCH   3   6
HETATM    6  C   UNL     1      23.053  48.356  49.310  1.00  0.00     0.129 C 
HETATM    7  C   UNL     1      22.156  47.609  48.639  1.00  0.00     0.057 C 
HETATM    8  C   UNL     1      22.166  46.156  48.296  1.00  0.00     0.072 C 
HETATM    9  N   UNL     1      21.021  48.360  48.252  1.00  0.00    -0.289 N 
HETATM   10  C   UNL     1      20.318  48.136  46.990  1.00  0.00     0.178 C 
HETATM   11  N   UNL     1      21.262  49.719  48.614  1.00  0.00    -0.217 N 
HETATM   12  C   UNL     1      22.426  49.726  49.380  1.00  0.00     0.295 C 
HETATM   13  O   UNL     1      22.930  50.637  50.027  1.00  0.00    -0.264 OA
BRANCH  11  14
HETATM   14  C   UNL     1      20.150  50.544  48.930  1.00  0.00     0.060 A 
HETATM   15  C   UNL     1      19.165  50.073  49.807  1.00  0.00     0.031 A 
HETATM   16  C   UNL     1      18.037  50.845  50.096  1.00  0.00     0.002 A 
HETATM   17  C   UNL     1      17.879  52.097  49.506  1.00  0.00     0.000 A 
HETATM   18  C   UNL     1      18.843  52.571  48.619  1.00  0.00     0.002 A 
HETATM   19  C   UNL     1      19.968  51.795  48.324  1.00  0.00     0.031 A 
ENDBRANCH  11  14
ENDBRANCH   3   6
ENDBRANCH   1   2
BRANCH   1  20
HETATM   20  C   UNL     1      25.062  44.922  50.671  1.00  0.00    -0.031 C 
HETATM   21  C   UNL     1      23.707  44.273  50.327  1.00  0.00     0.016 C 
HETATM   22  C   UNL     1      26.135  43.811  50.608  1.00  0.00     0.016 C 
BRANCH  20  23
HETATM   23  C   UNL     1      25.053  45.561  52.084  1.00  0.00     0.112 C 
BRANCH  23  24
HETATM   24  C   UNL     1      25.339  44.625  53.254  1.00  0.00     0.220 C 
HETATM   25  N   UNL     1      26.626  44.560  53.768  1.00  0.00    -0.349 N 
HETATM   26  C   UNL     1      26.877  43.606  54.859  1.00  0.00     0.145 C 
HETATM   27  C   UNL     1      27.650  45.611  53.649  1.00  0.00     0.145 C 
HETATM   28  C   UNL     1      28.300  43.021  54.800  1.00  0.00     0.143 C 
HETATM   29  N   UNL     1      29.318  44.098  54.755  1.00  0.00    -0.375 N 
HETATM   30  C   UNL     1      29.087  45.051  53.652  1.00  0.00     0.143 C 
HETATM   31  O   UNL     1      24.438  43.897  53.676  1.00  0.00    -0.273 OA
BRANCH  29  32
HETATM   32  C   UNL     1      29.842  44.525  55.980  1.00  0.00     0.069 A 
HETATM   33  C   UNL     1      30.920  43.922  56.656  1.00  0.00     0.142 A 
HETATM   34  F   UNL     1      31.568  42.872  56.127  1.00  0.00    -0.204 F 
HETATM   35  C   UNL     1      31.388  44.392  57.887  1.00  0.00     0.044 A 
HETATM   36  C   UNL     1      30.774  45.479  58.500  1.00  0.00     0.003 A 
HETATM   37  C   UNL     1      29.690  46.086  57.878  1.00  0.00     0.002 A 
HETATM   38  C   UNL     1      29.233  45.610  56.642  1.00  0.00     0.032 A 
ENDBRANCH  29  32
ENDBRANCH  23  24
ENDBRANCH  20  23
ENDBRANCH   1  20
TORSDOF 7
ENDMDL
MODEL 3
REMARK VINA RESULT:     -10.2      2.162      2.800
REMARK  7 active torsions:
REMARK  status: ('A' for Active; 'I' for Inactive)
REMARK    1  A    between atoms: N_5  and  C_6 
REMARK    2  A    between atoms: C_14  and  N_15 
REMARK       I    between atoms: N_15  and  C_16 
REMARK    3  A    between atoms: C_16  and  C_17 
REMARK    4  A    between atoms: C_17  and  C_18 
REMARK    5  A    between atoms: C_18  and  C_19 
REMARK    6  A    between atoms: C_19  and  C_20 
REMARK       I    between atoms: C_20  and  N_21 
REMARK    7  A    between atoms: N_24  and  C_25 
ROOT
HETATM    1  C   UNL     1      24.264  44.941  51.246  1.00  0.00     0.112 C 
ENDROOT
BRANCH   1   2
HETATM    2  C   UNL     1      25.043  43.756  51.749  1.00  0.00     0.223 C 
HETATM    3  N   UNL     1      26.012  43.817  52.686  1.00  0.00    -0.321 N 
HETATM    4  H   UNL     1      26.361  42.865  52.830  1.00  0.00     0.169 HD
HETATM    5  O   UNL     1      24.801  42.636  51.282  1.00  0.00    -0.273 OA
BRANCH   3   6
HETATM    6  C   UNL     1      26.718  44.709  53.447  1.00  0.00     0.129 C 
HETATM    7  C   UNL     1      26.680  45.990  53.860  1.00  0.00     0.057 C 
HETATM    8  C   UNL     1      25.651  47.050  53.643  1.00  0.00     0.072 C 
HETATM    9  N   UNL     1      27.799  46.326  54.657  1.00  0.00    -0.289 N 
HETATM   10  C   UNL     1      28.433  47.643  54.615  1.00  0.00     0.178 C 
HETATM   11  N   UNL     1      28.675  45.199  54.666  1.00  0.00    -0.217 N 
HETATM   12  C   UNL     1      27.983  44.155  54.054  1.00  0.00     0.295 C 
HETATM   13  O   UNL     1      28.275  42.968  53.970  1.00  0.00    -0.264 OA
BRANCH  11  14
HETATM   14  C   UNL     1      29.499  44.989  55.802  1.00  0.00     0.060 A 
HETATM   15  C   UNL     1      29.292  45.751  56.959  1.00  0.00     0.031 A 
HETATM   16  C   UNL     1      30.121  45.598  58.073  1.00  0.00     0.002 A 
HETATM   17  C   UNL     1      31.171  44.683  58.041  1.00  0.00     0.000 A 
HETATM   18  C   UNL     1      31.398  43.930  56.892  1.00  0.00     0.002 A 
HETATM   19  C   UNL     1      30.573  44.089  55.774  1.00  0.00     0.031 A 
ENDBRANCH  11  14
ENDBRANCH   3   6
ENDBRANCH   1   2
BRANCH   1  20
HETATM   20  C   UNL     1      24.781  45.529  49.896  1.00  0.00    -0.031 C 
HETATM   21  C   UNL     1      24.564  47.053  49.957  1.00  0.00     0.016 C 
HETATM   22  C   UNL     1      26.303  45.285  49.770  1.00  0.00     0.016 C 
BRANCH  20  23
HETATM   23  C   UNL     1      24.047  44.889  48.689  1.00  0.00     0.112 C 
BRANCH  23  24
HETATM   24  C   UNL     1      22.533  44.751  48.812  1.00  0.00     0.220 C 
HETATM   25  N   UNL     1      21.726  45.821  48.456  1.00  0.00    -0.349 N 
HETATM   26  C   UNL     1      20.275  45.671  48.641  1.00  0.00     0.145 C 
HETATM   27  C   UNL     1      22.100  46.909  47.538  1.00  0.00     0.145 C 
HETATM   28  C   UNL     1      19.598  47.003  49.015  1.00  0.00     0.143 C 
HETATM   29  N   UNL     1      19.930  48.065  48.035  1.00  0.00    -0.375 N 
HETATM   30  C   UNL     1      21.385  48.237  47.857  1.00  0.00     0.143 C 
HETATM   31  O   UNL     1      22.060  43.714  49.285  1.00  0.00    -0.273 OA
BRANCH  29  32
HETATM   32  C   UNL     1      19.046  48.235  46.964  1.00  0.00     0.069 A 
HETATM   33  C   UNL     1      18.887  49.423  46.224  1.00  0.00     0.142 A 
HETATM   34  F   UNL     1      19.634  50.507  46.487  1.00  0.00    -0.204 F 
HETATM   35  C   UNL     1      17.973  49.530  45.170  1.00  0.00     0.044 A 
HETATM   36  C   UNL     1      17.166  48.451  44.832  1.00  0.00     0.003 A 
HETATM   37  C   UNL     1      17.273  47.270  45.555  1.00  0.00     0.002 A 
HETATM   38  C   UNL     1      18.196  47.170  46.605  1.00  0.00     0.032 A 
ENDBRANCH  29  32
ENDBRANCH  23  24
ENDBRANCH  20  23
ENDBRANCH   1  20
TORSDOF 7
ENDMDL
MODEL 4
REMARK VINA RESULT:     -10.1      3.708     11.062
REMARK  7 active torsions:
REMARK  status: ('A' for Active; 'I' for Inactive)
REMARK    1  A    between atoms: N_5  and  C_6 
REMARK    2  A    between atoms: C_14  and  N_15 
REMARK       I    between atoms: N_15  and  C_16 
REMARK    3  A    between atoms: C_16  and  C_17 
REMARK    4  A    between atoms: C_17  and  C_18 
REMARK    5  A    between atoms: C_18  and  C_19 
REMARK    6  A    between atoms: C_19  and  C_20 
REMARK       I    between atoms: C_20  and  N_21 
REMARK    7  A    between atoms: N_24  and  C_25 
ROOT
HETATM    1  C   UNL     1      25.587  46.074  50.054  1.00  0.00     0.112 C 
ENDROOT
BRANCH   1   2
HETATM    2  C   UNL     1      25.739  47.560  49.876  1.00  0.00     0.223 C 
HETATM    3  N   UNL     1      24.748  48.392  49.489  1.00  0.00    -0.321 N 
HETATM    4  H   UNL     1      25.137  49.339  49.456  1.00  0.00     0.169 HD
HETATM    5  O   UNL     1      26.842  48.081  50.087  1.00  0.00    -0.273 OA
BRANCH   3   6
HETATM    6  C   UNL     1      23.446  48.391  49.071  1.00  0.00     0.129 C 
HETATM    7  C   UNL     1      22.496  47.554  48.611  1.00  0.00     0.057 C 
HETATM    8  C   UNL     1      22.518  46.074  48.417  1.00  0.00     0.072 C 
HETATM    9  N   UNL     1      21.289  48.229  48.315  1.00  0.00    -0.289 N 
HETATM   10  C   UNL     1      20.428  47.856  47.193  1.00  0.00     0.178 C 
HETATM   11  N   UNL     1      21.521  49.626  48.501  1.00  0.00    -0.217 N 
HETATM   12  C   UNL     1      22.778  49.744  49.090  1.00  0.00     0.295 C 
HETATM   13  O   UNL     1      23.329  50.730  49.566  1.00  0.00    -0.264 OA
BRANCH  11  14
HETATM   14  C   UNL     1      20.430  50.449  48.887  1.00  0.00     0.060 A 
HETATM   15  C   UNL     1      19.551  50.011  49.885  1.00  0.00     0.031 A 
HETATM   16  C   UNL     1      18.442  50.780  50.247  1.00  0.00     0.002 A 
HETATM   17  C   UNL     1      18.198  51.996  49.612  1.00  0.00     0.000 A 
HETATM   18  C   UNL     1      19.056  52.436  48.607  1.00  0.00     0.002 A 
HETATM   19  C   UNL     1      20.161  51.662  48.238  1.00  0.00     0.031 A 
ENDBRANCH  11  14
ENDBRANCH   3   6
ENDBRANCH   1   2
BRANCH   1  20
HETATM   20  C   UNL     1      25.732  45.581  51.527  1.00  0.00    -0.031 C 
HETATM   21  C   UNL     1      25.442  46.791  52.436  1.00  0.00     0.016 C 
HETATM   22  C   UNL     1      24.657  44.511  51.826  1.00  0.00     0.016 C 
BRANCH  20  23
HETATM   23  C   UNL     1      27.143  44.991  51.783  1.00  0.00     0.112 C 
BRANCH  23  24
HETATM   24  C   UNL     1      27.204  43.507  52.132  1.00  0.00     0.220 C 
HETATM   25  N   UNL     1      26.997  42.569  51.131  1.00  0.00    -0.349 N 
HETATM   26  C   UNL     1      27.008  41.150  51.515  1.00  0.00     0.145 C 
HETATM   27  C   UNL     1      27.187  42.798  49.689  1.00  0.00     0.145 C 
HETATM   28  C   UNL     1      26.036  40.312  50.664  1.00  0.00     0.143 C 
HETATM   29  N   UNL     1      26.295  40.502  49.216  1.00  0.00    -0.375 N 
HETATM   30  C   UNL     1      26.266  41.922  48.816  1.00  0.00     0.143 C 
HETATM   31  O   UNL     1      27.372  43.172  53.307  1.00  0.00    -0.273 OA
BRANCH  29  32
HETATM   32  C   UNL     1      27.171  39.597  48.606  1.00  0.00     0.069 A 
HETATM   33  C   UNL     1      27.152  39.241  47.244  1.00  0.00     0.142 A 
HETATM   34  F   UNL     1      26.274  39.801  46.395  1.00  0.00    -0.204 F 
HETATM   35  C   UNL     1      28.051  38.319  46.700  1.00  0.00     0.044 A 
HETATM   36  C   UNL     1      28.994  37.699  47.511  1.00  0.00     0.003 A 
HETATM   37  C   UNL     1      29.028  38.003  48.866  1.00  0.00     0.002 A 
HETATM   38  C   UNL     1      28.127  38.933  49.400  1.00  0.00     0.032 A 
ENDBRANCH  29  32
ENDBRANCH  23  24
ENDBRANCH  20  23
ENDBRANCH   1  20
TORSDOF 7
ENDMDL
MODEL 5
REMARK VINA RESULT:     -10.1      2.566     10.686
REMARK  7 active torsions:
REMARK  status: ('A' for Active; 'I' for Inactive)
REMARK    1  A    between atoms: N_5  and  C_6 
REMARK    2  A    between atoms: C_14  and  N_15 
REMARK       I    between atoms: N_15  and  C_16 
REMARK    3  A    between atoms: C_16  and  C_17 
REMARK    4  A    between atoms: C_17  and  C_18 
REMARK    5  A    between atoms: C_18  and  C_19 
REMARK    6  A    between atoms: C_19  and  C_20 
REMARK       I    between atoms: C_20  and  N_21 
REMARK    7  A    between atoms: N_24  and  C_25 
ROOT
HETATM    1  C   UNL     1      24.474  44.020  48.479  1.00  0.00     0.112 C 
ENDROOT
BRANCH   1   2
HETATM    2  C   UNL     1      24.778  45.288  49.229  1.00  0.00     0.223 C 
HETATM    3  N   UNL     1      23.942  46.344  49.322  1.00  0.00    -0.321 N 
HETATM    4  H   UNL     1      24.408  47.057  49.891  1.00  0.00     0.169 HD
HETATM    5  O   UNL     1      25.868  45.399  49.807  1.00  0.00    -0.273 OA
BRANCH   3   6
HETATM    6  C   UNL     1      22.735  46.803  48.868  1.00  0.00     0.129 C 
HETATM    7  C   UNL     1      21.598  46.364  48.297  1.00  0.00     0.057 C 
HETATM    8  C   UNL     1      21.157  44.980  47.952  1.00  0.00     0.072 C 
HETATM    9  N   UNL     1      20.691  47.418  48.038  1.00  0.00    -0.289 N 
HETATM   10  C   UNL     1      19.826  47.444  46.859  1.00  0.00     0.178 C 
HETATM   11  N   UNL     1      21.346  48.641  48.374  1.00  0.00    -0.217 N 
HETATM   12  C   UNL     1      22.536  48.292  49.008  1.00  0.00     0.295 C 
HETATM   13  O   UNL     1      23.344  49.000  49.598  1.00  0.00    -0.264 OA
BRANCH  11  14
HETATM   14  C   UNL     1      20.555  49.736  48.810  1.00  0.00     0.060 A 
HETATM   15  C   UNL     1      19.635  49.555  49.851  1.00  0.00     0.031 A 
HETATM   16  C   UNL     1      18.810  50.604  50.265  1.00  0.00     0.002 A 
HETATM   17  C   UNL     1      18.894  51.846  49.641  1.00  0.00     0.000 A 
HETATM   18  C   UNL     1      19.793  52.036  48.594  1.00  0.00     0.002 A 
HETATM   19  C   UNL     1      20.613  50.983  48.173  1.00  0.00     0.031 A 
ENDBRANCH  11  14
ENDBRANCH   3   6
ENDBRANCH   1   2
BRANCH   1  20
HETATM   20  C   UNL     1      24.477  42.732  49.358  1.00  0.00    -0.031 C 
HETATM   21  C   UNL     1      24.018  43.149  50.769  1.00  0.00     0.016 C 
HETATM   22  C   UNL     1      23.437  41.726  48.813  1.00  0.00     0.016 C 
BRANCH  20  23
HETATM   23  C   UNL     1      25.881  42.072  49.380  1.00  0.00     0.112 C 
BRANCH  23  24
HETATM   24  C   UNL     1      26.317  41.449  50.702  1.00  0.00     0.220 C 
HETATM   25  N   UNL     1      27.337  42.047  51.427  1.00  0.00    -0.349 N 
HETATM   26  C   UNL     1      27.769  41.387  52.668  1.00  0.00     0.145 C 
HETATM   27  C   UNL     1      27.744  43.459  51.330  1.00  0.00     0.145 C 
HETATM   28  C   UNL     1      29.274  41.575  52.930  1.00  0.00     0.143 C 
HETATM   29  N   UNL     1      29.647  43.010  52.901  1.00  0.00    -0.375 N 
HETATM   30  C   UNL     1      29.236  43.677  51.651  1.00  0.00     0.143 C 
HETATM   31  O   UNL     1      25.799  40.391  51.069  1.00  0.00    -0.273 OA
BRANCH  29  32
HETATM   32  C   UNL     1      29.631  43.692  54.123  1.00  0.00     0.069 A 
HETATM   33  C   UNL     1      28.687  44.667  54.497  1.00  0.00     0.142 A 
HETATM   34  F   UNL     1      27.671  44.995  53.681  1.00  0.00    -0.204 F 
HETATM   35  C   UNL     1      28.737  45.321  55.732  1.00  0.00     0.044 A 
HETATM   36  C   UNL     1      29.754  45.035  56.635  1.00  0.00     0.003 A 
HETATM   37  C   UNL     1      30.720  44.098  56.293  1.00  0.00     0.002 A 
HETATM   38  C   UNL     1      30.659  43.444  55.056  1.00  0.00     0.032 A 
ENDBRANCH  29  32
ENDBRANCH  23  24
ENDBRANCH  20  23
ENDBRANCH   1  20
TORSDOF 7
ENDMDL
MODEL 6
REMARK VINA RESULT:     -10.0      3.010      4.439
REMARK  7 active torsions:
REMARK  status: ('A' for Active; 'I' for Inactive)
REMARK    1  A    between atoms: N_5  and  C_6 
REMARK    2  A    between atoms: C_14  and  N_15 
REMARK       I    between atoms: N_15  and  C_16 
REMARK    3  A    between atoms: C_16  and  C_17 
REMARK    4  A    between atoms: C_17  and  C_18 
REMARK    5  A    between atoms: C_18  and  C_19 
REMARK    6  A    between atoms: C_19  and  C_20 
REMARK       I    between atoms: C_20  and  N_21 
REMARK    7  A    between atoms: N_24  and  C_25 
ROOT
HETATM    1  C   UNL     1      23.364  42.666  46.997  1.00  0.00     0.112 C 
ENDROOT
BRANCH   1   2
HETATM    2  C   UNL     1      23.149  41.639  48.075  1.00  0.00     0.223 C 
HETATM    3  N   UNL     1      23.867  41.562  49.216  1.00  0.00    -0.321 N 
HETATM    4  H   UNL     1      23.500  40.773  49.758  1.00  0.00     0.169 HD
HETATM    5  O   UNL     1      22.261  40.789  47.928  1.00  0.00    -0.273 OA
BRANCH   3   6
HETATM    6  C   UNL     1      24.939  42.126  49.852  1.00  0.00     0.129 C 
HETATM    7  C   UNL     1      26.285  42.149  49.812  1.00  0.00     0.057 C 
HETATM    8  C   UNL     1      27.239  41.501  48.863  1.00  0.00     0.072 C 
HETATM    9  N   UNL     1      26.835  42.963  50.829  1.00  0.00    -0.289 N 
HETATM   10  C   UNL     1      28.083  42.635  51.516  1.00  0.00     0.178 C 
HETATM   11  N   UNL     1      25.756  43.411  51.650  1.00  0.00    -0.217 N 
HETATM   12  C   UNL     1      24.581  43.033  51.003  1.00  0.00     0.295 C 
HETATM   13  O   UNL     1      23.420  43.331  51.255  1.00  0.00    -0.264 OA
BRANCH  11  14
HETATM   14  C   UNL     1      25.880  44.663  52.310  1.00  0.00     0.060 A 
HETATM   15  C   UNL     1      25.844  44.714  53.709  1.00  0.00     0.031 A 
HETATM   16  C   UNL     1      25.913  45.938  54.380  1.00  0.00     0.002 A 
HETATM   17  C   UNL     1      26.017  47.125  53.659  1.00  0.00     0.000 A 
HETATM   18  C   UNL     1      26.038  47.089  52.267  1.00  0.00     0.002 A 
HETATM   19  C   UNL     1      25.960  45.865  51.594  1.00  0.00     0.031 A 
ENDBRANCH  11  14
ENDBRANCH   3   6
ENDBRANCH   1   2
BRANCH   1  20
HETATM   20  C   UNL     1      22.212  43.709  46.858  1.00  0.00    -0.031 C 
HETATM   21  C   UNL     1      22.725  44.823  45.926  1.00  0.00     0.016 C 
HETATM   22  C   UNL     1      20.995  43.052  46.166  1.00  0.00     0.016 C 
BRANCH  20  23
HETATM   23  C   UNL     1      21.790  44.264  48.243  1.00  0.00     0.112 C 
BRANCH  23  24
HETATM   24  C   UNL     1      22.366  45.620  48.635  1.00  0.00     0.220 C 
HETATM   25  N   UNL     1      21.667  46.772  48.306  1.00  0.00    -0.349 N 
HETATM   26  C   UNL     1      22.281  48.064  48.650  1.00  0.00     0.145 C 
HETATM   27  C   UNL     1      20.221  46.851  48.043  1.00  0.00     0.145 C 
HETATM   28  C   UNL     1      21.939  49.159  47.623  1.00  0.00     0.143 C 
HETATM   29  N   UNL     1      20.473  49.271  47.430  1.00  0.00    -0.375 N 
HETATM   30  C   UNL     1      19.850  47.984  47.065  1.00  0.00     0.143 C 
HETATM   31  O   UNL     1      23.473  45.669  49.178  1.00  0.00    -0.273 OA
BRANCH  29  32
HETATM   32  C   UNL     1      19.798  50.199  48.231  1.00  0.00     0.069 A 
HETATM   33  C   UNL     1      19.346  49.962  49.543  1.00  0.00     0.142 A 
HETATM   34  F   UNL     1      19.576  48.787  50.153  1.00  0.00    -0.204 F 
HETATM   35  C   UNL     1      18.665  50.932  50.286  1.00  0.00     0.044 A 
HETATM   36  C   UNL     1      18.393  52.176  49.729  1.00  0.00     0.003 A 
HETATM   37  C   UNL     1      18.799  52.440  48.427  1.00  0.00     0.002 A 
HETATM   38  C   UNL     1      19.485  51.463  47.694  1.00  0.00     0.032 A 
ENDBRANCH  29  32
ENDBRANCH  23  24
ENDBRANCH  20  23
ENDBRANCH   1  20
TORSDOF 7
ENDMDL
MODEL 7
REMARK VINA RESULT:      -9.6      2.795      4.336
REMARK  7 active torsions:
REMARK  status: ('A' for Active; 'I' for Inactive)
REMARK    1  A    between atoms: N_5  and  C_6 
REMARK    2  A    between atoms: C_14  and  N_15 
REMARK       I    between atoms: N_15  and  C_16 
REMARK    3  A    between atoms: C_16  and  C_17 
REMARK    4  A    between atoms: C_17  and  C_18 
REMARK    5  A    between atoms: C_18  and  C_19 
REMARK    6  A    between atoms: C_19  and  C_20 
REMARK       I    between atoms: C_20  and  N_21 
REMARK    7  A    between atoms: N_24  and  C_25 
ROOT
HETATM    1  C   UNL     1      23.194  43.586  47.652  1.00  0.00     0.112 C 
ENDROOT
BRANCH   1   2
HETATM    2  C   UNL     1      22.949  43.181  49.080  1.00  0.00     0.223 C 
HETATM    3  N   UNL     1      23.383  43.869  50.158  1.00  0.00    -0.321 N 
HETATM    4  H   UNL     1      23.069  43.363  50.992  1.00  0.00     0.169 HD
HETATM    5  O   UNL     1      22.311  42.146  49.310  1.00  0.00    -0.273 OA
BRANCH   3   6
HETATM    6  C   UNL     1      24.141  44.953  50.508  1.00  0.00     0.129 C 
HETATM    7  C   UNL     1      24.371  46.229  50.145  1.00  0.00     0.057 C 
HETATM    8  C   UNL     1      23.728  47.068  49.090  1.00  0.00     0.072 C 
HETATM    9  N   UNL     1      25.360  46.842  50.948  1.00  0.00    -0.289 N 
HETATM   10  C   UNL     1      26.322  47.807  50.418  1.00  0.00     0.178 C 
HETATM   11  N   UNL     1      25.880  45.843  51.825  1.00  0.00    -0.217 N 
HETATM   12  C   UNL     1      25.066  44.722  51.677  1.00  0.00     0.295 C 
HETATM   13  O   UNL     1      25.037  43.685  52.331  1.00  0.00    -0.264 OA
BRANCH  11  14
HETATM   14  C   UNL     1      26.379  46.246  53.092  1.00  0.00     0.060 A 
HETATM   15  C   UNL     1      25.813  47.352  53.740  1.00  0.00     0.031 A 
HETATM   16  C   UNL     1      26.319  47.799  54.963  1.00  0.00     0.002 A 
HETATM   17  C   UNL     1      27.400  47.147  55.551  1.00  0.00     0.000 A 
HETATM   18  C   UNL     1      27.983  46.056  54.910  1.00  0.00     0.002 A 
HETATM   19  C   UNL     1      27.482  45.614  53.682  1.00  0.00     0.031 A 
ENDBRANCH  11  14
ENDBRANCH   3   6
ENDBRANCH   1   2
BRANCH   1  20
HETATM   20  C   UNL     1      21.905  43.948  46.852  1.00  0.00    -0.031 C 
HETATM   21  C   UNL     1      22.302  45.027  45.825  1.00  0.00     0.016 C 
HETATM   22  C   UNL     1      21.419  42.713  46.059  1.00  0.00     0.016 C 
BRANCH  20  23
HETATM   23  C   UNL     1      20.778  44.438  47.798  1.00  0.00     0.112 C 
BRANCH  23  24
HETATM   24  C   UNL     1      19.711  45.332  47.175  1.00  0.00     0.220 C 
HETATM   25  N   UNL     1      19.291  46.462  47.861  1.00  0.00    -0.349 N 
HETATM   26  C   UNL     1      18.221  47.269  47.255  1.00  0.00     0.145 C 
HETATM   27  C   UNL     1      20.062  47.174  48.893  1.00  0.00     0.145 C 
HETATM   28  C   UNL     1      17.310  47.912  48.317  1.00  0.00     0.143 C 
HETATM   29  N   UNL     1      18.102  48.686  49.303  1.00  0.00    -0.375 N 
HETATM   30  C   UNL     1      19.167  47.880  49.931  1.00  0.00     0.143 C 
HETATM   31  O   UNL     1      19.197  44.998  46.104  1.00  0.00    -0.273 OA
BRANCH  29  32
HETATM   32  C   UNL     1      18.288  50.047  49.037  1.00  0.00     0.069 A 
HETATM   33  C   UNL     1      19.216  50.576  48.120  1.00  0.00     0.142 A 
HETATM   34  F   UNL     1      19.993  49.769  47.378  1.00  0.00    -0.204 F 
HETATM   35  C   UNL     1      19.360  51.951  47.911  1.00  0.00     0.044 A 
HETATM   36  C   UNL     1      18.589  52.853  48.635  1.00  0.00     0.003 A 
HETATM   37  C   UNL     1      17.681  52.372  49.569  1.00  0.00     0.002 A 
HETATM   38  C   UNL     1      17.540  50.992  49.767  1.00  0.00     0.032 A 
ENDBRANCH  29  32
ENDBRANCH  23  24
ENDBRANCH  20  23
ENDBRANCH   1  20
TORSDOF 7
ENDMDL
MODEL 8
REMARK VINA RESULT:      -9.6      3.498      6.032
REMARK  7 active torsions:
REMARK  status: ('A' for Active; 'I' for Inactive)
REMARK    1  A    between atoms: N_5  and  C_6 
REMARK    2  A    between atoms: C_14  and  N_15 
REMARK       I    between atoms: N_15  and  C_16 
REMARK    3  A    between atoms: C_16  and  C_17 
REMARK    4  A    between atoms: C_17  and  C_18 
REMARK    5  A    between atoms: C_18  and  C_19 
REMARK    6  A    between atoms: C_19  and  C_20 
REMARK       I    between atoms: C_20  and  N_21 
REMARK    7  A    between atoms: N_24  and  C_25 
ROOT
HETATM    1  C   UNL     1      24.544  45.190  51.557  1.00  0.00     0.112 C 
ENDROOT
BRANCH   1   2
HETATM    2  C   UNL     1      24.900  43.905  52.253  1.00  0.00     0.223 C 
HETATM    3  N   UNL     1      25.027  42.709  51.638  1.00  0.00    -0.321 N 
HETATM    4  H   UNL     1      25.276  42.020  52.354  1.00  0.00     0.169 HD
HETATM    5  O   UNL     1      25.089  43.915  53.476  1.00  0.00    -0.273 OA
BRANCH   3   6
HETATM    6  C   UNL     1      24.875  42.106  50.419  1.00  0.00     0.129 C 
HETATM    7  C   UNL     1      24.140  42.192  49.294  1.00  0.00     0.057 C 
HETATM    8  C   UNL     1      23.096  43.180  48.891  1.00  0.00     0.072 C 
HETATM    9  N   UNL     1      24.477  41.186  48.359  1.00  0.00    -0.289 N 
HETATM   10  C   UNL     1      23.487  40.546  47.495  1.00  0.00     0.178 C 
HETATM   11  N   UNL     1      25.430  40.323  48.981  1.00  0.00    -0.217 N 
HETATM   12  C   UNL     1      25.793  40.933  50.180  1.00  0.00     0.295 C 
HETATM   13  O   UNL     1      26.685  40.638  50.968  1.00  0.00    -0.264 OA
BRANCH  11  14
HETATM   14  C   UNL     1      26.377  39.655  48.161  1.00  0.00     0.060 A 
HETATM   15  C   UNL     1      27.098  40.381  47.204  1.00  0.00     0.031 A 
HETATM   16  C   UNL     1      27.999  39.738  46.351  1.00  0.00     0.002 A 
HETATM   17  C   UNL     1      28.187  38.361  46.443  1.00  0.00     0.000 A 
HETATM   18  C   UNL     1      27.465  37.625  47.379  1.00  0.00     0.002 A 
HETATM   19  C   UNL     1      26.556  38.267  48.228  1.00  0.00     0.031 A 
ENDBRANCH  11  14
ENDBRANCH   3   6
ENDBRANCH   1   2
BRANCH   1  20
HETATM   20  C   UNL     1      25.770  46.028  51.079  1.00  0.00    -0.031 C 
HETATM   21  C   UNL     1      25.962  47.167  52.099  1.00  0.00     0.016 C 
HETATM   22  C   UNL     1      27.045  45.154  51.117  1.00  0.00     0.016 C 
BRANCH  20  23
HETATM   23  C   UNL     1      25.551  46.571  49.643  1.00  0.00     0.112 C 
BRANCH  23  24
HETATM   24  C   UNL     1      25.396  48.082  49.505  1.00  0.00     0.220 C 
HETATM   25  N   UNL     1      24.214  48.597  48.995  1.00  0.00    -0.349 N 
HETATM   26  C   UNL     1      24.122  50.054  48.825  1.00  0.00     0.145 C 
HETATM   27  C   UNL     1      22.909  47.915  49.002  1.00  0.00     0.145 C 
HETATM   28  C   UNL     1      23.261  50.442  47.609  1.00  0.00     0.143 C 
HETATM   29  N   UNL     1      21.925  49.803  47.675  1.00  0.00    -0.375 N 
HETATM   30  C   UNL     1      22.005  48.337  47.826  1.00  0.00     0.143 C 
HETATM   31  O   UNL     1      26.349  48.812  49.789  1.00  0.00    -0.273 OA
BRANCH  29  32
HETATM   32  C   UNL     1      20.902  50.537  48.285  1.00  0.00     0.069 A 
HETATM   33  C   UNL     1      20.822  50.832  49.659  1.00  0.00     0.142 A 
HETATM   34  F   UNL     1      21.787  50.440  50.508  1.00  0.00    -0.204 F 
HETATM   35  C   UNL     1      19.762  51.562  50.207  1.00  0.00     0.044 A 
HETATM   36  C   UNL     1      18.727  52.008  49.395  1.00  0.00     0.003 A 
HETATM   37  C   UNL     1      18.754  51.715  48.037  1.00  0.00     0.002 A 
HETATM   38  C   UNL     1      19.823  50.988  47.498  1.00  0.00     0.032 A 
ENDBRANCH  29  32
ENDBRANCH  23  24
ENDBRANCH  20  23
ENDBRANCH   1  20
TORSDOF 7
ENDMDL
MODEL 9
REMARK VINA RESULT:      -9.4      3.647      5.585
REMARK  7 active torsions:
REMARK  status: ('A' for Active; 'I' for Inactive)
REMARK    1  A    between atoms: N_5  and  C_6 
REMARK    2  A    between atoms: C_14  and  N_15 
REMARK       I    between atoms: N_15  and  C_16 
REMARK    3  A    between atoms: C_16  and  C_17 
REMARK    4  A    between atoms: C_17  and  C_18 
REMARK    5  A    between atoms: C_18  and  C_19 
REMARK    6  A    between atoms: C_19  and  C_20 
REMARK       I    between atoms: C_20  and  N_21 
REMARK    7  A    between atoms: N_24  and  C_25 
ROOT
HETATM    1  C   UNL     1      23.451  41.097  46.288  1.00  0.00     0.112 C 
ENDROOT
BRANCH   1   2
HETATM    2  C   UNL     1      22.674  41.045  47.575  1.00  0.00     0.223 C 
HETATM    3  N   UNL     1      23.120  41.513  48.761  1.00  0.00    -0.321 N 
HETATM    4  H   UNL     1      22.384  41.347  49.453  1.00  0.00     0.169 HD
HETATM    5  O   UNL     1      21.545  40.537  47.576  1.00  0.00    -0.273 OA
BRANCH   3   6
HETATM    6  C   UNL     1      24.224  42.063  49.352  1.00  0.00     0.129 C 
HETATM    7  C   UNL     1      25.567  42.078  49.251  1.00  0.00     0.057 C 
HETATM    8  C   UNL     1      26.471  41.435  48.251  1.00  0.00     0.072 C 
HETATM    9  N   UNL     1      26.168  42.876  50.251  1.00  0.00    -0.289 N 
HETATM   10  C   UNL     1      27.445  42.533  50.875  1.00  0.00     0.178 C 
HETATM   11  N   UNL     1      25.132  43.322  51.126  1.00  0.00    -0.217 N 
HETATM   12  C   UNL     1      23.926  42.958  50.530  1.00  0.00     0.295 C 
HETATM   13  O   UNL     1      22.779  43.261  50.839  1.00  0.00    -0.264 OA
BRANCH  11  14
HETATM   14  C   UNL     1      25.295  44.564  51.794  1.00  0.00     0.060 A 
HETATM   15  C   UNL     1      25.362  45.748  51.048  1.00  0.00     0.031 A 
HETATM   16  C   UNL     1      25.572  46.977  51.678  1.00  0.00     0.002 A 
HETATM   17  C   UNL     1      25.722  47.036  53.062  1.00  0.00     0.000 A 
HETATM   18  C   UNL     1      25.674  45.865  53.814  1.00  0.00     0.002 A 
HETATM   19  C   UNL     1      25.472  44.633  53.183  1.00  0.00     0.031 A 
ENDBRANCH  11  14
ENDBRANCH   3   6
ENDBRANCH   1   2
BRANCH   1  20
HETATM   20  C   UNL     1      23.124  42.326  45.384  1.00  0.00    -0.031 C 
HETATM   21  C   UNL     1      23.961  42.174  44.100  1.00  0.00     0.016 C 
HETATM   22  C   UNL     1      21.634  42.287  44.971  1.00  0.00     0.016 C 
BRANCH  20  23
HETATM   23  C   UNL     1      23.428  43.658  46.118  1.00  0.00     0.112 C 
BRANCH  23  24
HETATM   24  C   UNL     1      22.595  44.866  45.703  1.00  0.00     0.220 C 
HETATM   25  N   UNL     1      21.731  45.440  46.624  1.00  0.00    -0.349 N 
HETATM   26  C   UNL     1      20.903  46.568  46.172  1.00  0.00     0.145 C 
HETATM   27  C   UNL     1      21.846  45.335  48.088  1.00  0.00     0.145 C 
HETATM   28  C   UNL     1      19.528  46.590  46.862  1.00  0.00     0.143 C 
HETATM   29  N   UNL     1      19.670  46.559  48.338  1.00  0.00    -0.375 N 
HETATM   30  C   UNL     1      20.483  45.419  48.804  1.00  0.00     0.143 C 
HETATM   31  O   UNL     1      22.659  45.270  44.539  1.00  0.00    -0.273 OA
BRANCH  29  32
HETATM   32  C   UNL     1      19.712  47.793  48.996  1.00  0.00     0.069 A 
HETATM   33  C   UNL     1      20.789  48.699  48.955  1.00  0.00     0.142 A 
HETATM   34  F   UNL     1      21.881  48.442  48.217  1.00  0.00    -0.204 F 
HETATM   35  C   UNL     1      20.771  49.913  49.648  1.00  0.00     0.044 A 
HETATM   36  C   UNL     1      19.674  50.256  50.430  1.00  0.00     0.003 A 
HETATM   37  C   UNL     1      18.603  49.378  50.519  1.00  0.00     0.002 A 
HETATM   38  C   UNL     1      18.628  48.166  49.816  1.00  0.00     0.032 A 
ENDBRANCH  29  32
ENDBRANCH  23  24
ENDBRANCH  20  23
ENDBRANCH   1  20
TORSDOF 7
ENDMDL
MODEL 10
REMARK VINA RESULT:      -9.3     18.525     21.966
REMARK  7 active torsions:
REMARK  status: ('A' for Active; 'I' for Inactive)
REMARK    1  A    between atoms: N_5  and  C_6 
REMARK    2  A    between atoms: C_14  and  N_15 
REMARK       I    between atoms: N_15  and  C_16 
REMARK    3  A    between atoms: C_16  and  C_17 
REMARK    4  A    between atoms: C_17  and  C_18 
REMARK    5  A    between atoms: C_18  and  C_19 
REMARK    6  A    between atoms: C_19  and  C_20 
REMARK       I    between atoms: C_20  and  N_21 
REMARK    7  A    between atoms: N_24  and  C_25 
ROOT
HETATM    1  C   UNL     1      38.644  48.555  66.274  1.00  0.00     0.112 C 
ENDROOT
BRANCH   1   2
HETATM    2  C   UNL     1      39.697  48.673  65.206  1.00  0.00     0.223 C 
HETATM    3  N   UNL     1      40.905  48.071  65.250  1.00  0.00    -0.321 N 
HETATM    4  H   UNL     1      41.407  48.326  64.394  1.00  0.00     0.169 HD
HETATM    5  O   UNL     1      39.468  49.372  64.211  1.00  0.00    -0.273 OA
BRANCH   3   6
HETATM    6  C   UNL     1      41.695  47.303  66.061  1.00  0.00     0.129 C 
HETATM    7  C   UNL     1      41.941  47.071  67.365  1.00  0.00     0.057 C 
HETATM    8  C   UNL     1      41.286  47.622  68.589  1.00  0.00     0.072 C 
HETATM    9  N   UNL     1      42.966  46.115  67.552  1.00  0.00    -0.289 N 
HETATM   10  C   UNL     1      43.932  46.196  68.646  1.00  0.00     0.178 C 
HETATM   11  N   UNL     1      43.489  45.789  66.265  1.00  0.00    -0.217 N 
HETATM   12  C   UNL     1      42.648  46.391  65.330  1.00  0.00     0.295 C 
HETATM   13  O   UNL     1      42.615  46.263  64.112  1.00  0.00    -0.264 OA
BRANCH  11  14
HETATM   14  C   UNL     1      44.033  44.493  66.061  1.00  0.00     0.060 A 
HETATM   15  C   UNL     1      43.203  43.370  66.166  1.00  0.00     0.031 A 
HETATM   16  C   UNL     1      43.723  42.082  66.020  1.00  0.00     0.002 A 
HETATM   17  C   UNL     1      45.082  41.902  65.770  1.00  0.00     0.000 A 
HETATM   18  C   UNL     1      45.921  43.010  65.679  1.00  0.00     0.002 A 
HETATM   19  C   UNL     1      45.402  44.299  65.834  1.00  0.00     0.031 A 
ENDBRANCH  11  14
ENDBRANCH   3   6
ENDBRANCH   1   2
BRANCH   1  20
HETATM   20  C   UNL     1      37.606  47.414  66.035  1.00  0.00    -0.031 C 
HETATM   21  C   UNL     1      37.913  46.306  67.060  1.00  0.00     0.016 C 
HETATM   22  C   UNL     1      36.181  47.936  66.331  1.00  0.00     0.016 C 
BRANCH  20  23
HETATM   23  C   UNL     1      37.678  46.889  64.578  1.00  0.00     0.112 C 
BRANCH  23  24
HETATM   24  C   UNL     1      37.089  45.505  64.326  1.00  0.00     0.220 C 
HETATM   25  N   UNL     1      37.941  44.450  64.033  1.00  0.00    -0.349 N 
HETATM   26  C   UNL     1      37.333  43.144  63.742  1.00  0.00     0.145 C 
HETATM   27  C   UNL     1      39.368  44.378  64.388  1.00  0.00     0.145 C 
HETATM   28  C   UNL     1      38.146  42.345  62.707  1.00  0.00     0.143 C 
HETATM   29  N   UNL     1      39.565  42.221  63.122  1.00  0.00    -0.375 N 
HETATM   30  C   UNL     1      40.190  43.529  63.398  1.00  0.00     0.143 C 
HETATM   31  O   UNL     1      35.863  45.364  64.325  1.00  0.00    -0.273 OA
BRANCH  29  32
HETATM   32  C   UNL     1      39.911  41.085  63.861  1.00  0.00     0.069 A 
HETATM   33  C   UNL     1      39.936  39.768  63.361  1.00  0.00     0.142 A 
HETATM   34  F   UNL     1      39.653  39.512  62.074  1.00  0.00    -0.204 F 
HETATM   35  C   UNL     1      40.280  38.673  64.159  1.00  0.00     0.044 A 
HETATM   36  C   UNL     1      40.593  38.855  65.501  1.00  0.00     0.003 A 
HETATM   37  C   UNL     1      40.553  40.135  66.039  1.00  0.00     0.002 A 
HETATM   38  C   UNL     1      40.213  41.227  65.230  1.00  0.00     0.032 A 
ENDBRANCH  29  32
ENDBRANCH  23  24
ENDBRANCH  20  23
ENDBRANCH   1  20
TORSDOF 7
ENDMDL
