MODEL 1
REMARK VINA RESULT:      -7.9      0.000      0.000
REMARK  5 active torsions:
REMARK  status: ('A' for Active; 'I' for Inactive)
REMARK    1  A    between atoms: C_2  and  O_3 
REMARK    2  A    between atoms: O_3  and  C_4 
REMARK    3  A    between atoms: C_8  and  C_9 
REMARK    4  A    between atoms: C_9  and  N_10 
REMARK       I    between atoms: N_10  and  C_11 
REMARK    5  A    between atoms: C_11  and  C_12 
ROOT
HETATM    1  C   UNL     1      28.524  41.186  52.914  1.00  0.00     0.161 C 
ENDROOT
BRANCH   1   2
HETATM    2  C   UNL     1      27.368  41.702  52.105  1.00  0.00    -0.035 A 
HETATM    3  C   UNL     1      26.763  40.896  51.138  1.00  0.00     0.028 A 
HETATM    4  C   UNL     1      25.721  41.423  50.394  1.00  0.00     0.120 A 
HETATM    5  N   UNL     1      25.255  42.681  50.538  1.00  0.00    -0.237 NA
HETATM    6  C   UNL     1      25.851  43.447  51.470  1.00  0.00     0.165 A 
HETATM    7  C   UNL     1      26.895  43.007  52.270  1.00  0.00     0.066 A 
BRANCH   6   8
HETATM    8  O   UNL     1      25.422  44.734  51.701  1.00  0.00    -0.324 OA
BRANCH   8   9
HETATM    9  C   UNL     1      25.644  45.757  50.713  1.00  0.00     0.058 C 
HETATM   10  C   UNL     1      24.400  46.051  49.861  1.00  0.00     0.045 C 
HETATM   11  C   UNL     1      26.888  45.481  49.855  1.00  0.00     0.045 C 
HETATM   12  C   UNL     1      25.931  47.017  51.554  1.00  0.00     0.045 C 
ENDBRANCH   8   9
ENDBRANCH   6   8
ENDBRANCH   1   2
BRANCH   1  13
HETATM   13  N   UNL     1      28.800  42.069  54.022  1.00  0.00    -0.353 N 
HETATM   14  C   UNL     1      29.894  42.902  54.007  1.00  0.00     0.253 C 
HETATM   15  O   UNL     1      30.616  43.051  53.028  1.00  0.00    -0.268 OA
HETATM   16  H   UNL     1      28.315  41.905  54.894  1.00  0.00     0.163 HD
BRANCH  14  17
HETATM   17  C   UNL     1      30.140  43.699  55.236  1.00  0.00     0.049 A 
HETATM   18  C   UNL     1      29.463  44.877  55.574  1.00  0.00     0.026 A 
HETATM   19 BR   UNL     1      28.048  45.612  54.539  1.00  0.00    -0.050 Br
HETATM   20  C   UNL     1      29.788  45.552  56.758  1.00  0.00     0.020 A 
HETATM   21  C   UNL     1      30.777  45.053  57.609  1.00  0.00     0.001 A 
HETATM   22  C   UNL     1      31.440  43.871  57.287  1.00  0.00     0.001 A 
HETATM   23  C   UNL     1      31.119  43.196  56.109  1.00  0.00     0.018 A 
ENDBRANCH  14  17
ENDBRANCH   1  13
TORSDOF 5
ENDMDL
MODEL 2
REMARK VINA RESULT:      -7.8      1.685      2.147
REMARK  5 active torsions:
REMARK  status: ('A' for Active; 'I' for Inactive)
REMARK    1  A    between atoms: C_2  and  O_3 
REMARK    2  A    between atoms: O_3  and  C_4 
REMARK    3  A    between atoms: C_8  and  C_9 
REMARK    4  A    between atoms: C_9  and  N_10 
REMARK       I    between atoms: N_10  and  C_11 
REMARK    5  A    between atoms: C_11  and  C_12 
ROOT
HETATM    1  C   UNL     1      28.029  42.292  51.283  1.00  0.00     0.161 C 
ENDROOT
BRANCH   1   2
HETATM    2  C   UNL     1      26.895  43.135  50.773  1.00  0.00    -0.035 A 
HETATM    3  C   UNL     1      25.581  42.664  50.826  1.00  0.00     0.028 A 
HETATM    4  C   UNL     1      24.571  43.462  50.317  1.00  0.00     0.120 A 
HETATM    5  N   UNL     1      24.778  44.673  49.759  1.00  0.00    -0.237 NA
HETATM    6  C   UNL     1      26.049  45.112  49.712  1.00  0.00     0.165 A 
HETATM    7  C   UNL     1      27.127  44.390  50.203  1.00  0.00     0.066 A 
BRANCH   6   8
HETATM    8  O   UNL     1      26.347  46.347  49.184  1.00  0.00    -0.324 OA
BRANCH   8   9
HETATM    9  C   UNL     1      25.995  47.544  49.903  1.00  0.00     0.058 C 
HETATM   10  C   UNL     1      26.070  47.373  51.428  1.00  0.00     0.045 C 
HETATM   11  C   UNL     1      24.650  48.126  49.446  1.00  0.00     0.045 C 
HETATM   12  C   UNL     1      27.096  48.546  49.500  1.00  0.00     0.045 C 
ENDBRANCH   8   9
ENDBRANCH   6   8
ENDBRANCH   1   2
BRANCH   1  13
HETATM   13  N   UNL     1      28.753  42.990  52.318  1.00  0.00    -0.353 N 
HETATM   14  C   UNL     1      28.424  42.829  53.643  1.00  0.00     0.253 C 
HETATM   15  O   UNL     1      27.609  42.005  54.041  1.00  0.00    -0.268 OA
HETATM   16  H   UNL     1      29.346  43.763  52.046  1.00  0.00     0.163 HD
BRANCH  14  17
HETATM   17  C   UNL     1      29.167  43.665  54.620  1.00  0.00     0.049 A 
HETATM   18  C   UNL     1      28.763  44.933  55.058  1.00  0.00     0.026 A 
HETATM   19 BR   UNL     1      27.138  45.762  54.525  1.00  0.00    -0.050 Br
HETATM   20  C   UNL     1      29.553  45.636  55.976  1.00  0.00     0.020 A 
HETATM   21  C   UNL     1      30.736  45.079  56.466  1.00  0.00     0.001 A 
HETATM   22  C   UNL     1      31.132  43.811  56.048  1.00  0.00     0.001 A 
HETATM   23  C   UNL     1      30.349  43.106  55.134  1.00  0.00     0.018 A 
ENDBRANCH  14  17
ENDBRANCH   1  13
TORSDOF 5
ENDMDL
MODEL 3
REMARK VINA RESULT:      -7.6      2.100      3.740
REMARK  5 active torsions:
REMARK  status: ('A' for Active; 'I' for Inactive)
REMARK    1  A    between atoms: C_2  and  O_3 
REMARK    2  A    between atoms: O_3  and  C_4 
REMARK    3  A    between atoms: C_8  and  C_9 
REMARK    4  A    between atoms: C_9  and  N_10 
REMARK       I    between atoms: N_10  and  C_11 
REMARK    5  A    between atoms: C_11  and  C_12 
ROOT
HETATM    1  C   UNL     1      25.980  45.802  53.767  1.00  0.00     0.161 C 
ENDROOT
BRANCH   1   2
HETATM    2  C   UNL     1      26.254  45.792  52.291  1.00  0.00    -0.035 A 
HETATM    3  C   UNL     1      26.080  46.951  51.529  1.00  0.00     0.028 A 
HETATM    4  C   UNL     1      26.315  46.888  50.166  1.00  0.00     0.120 A 
HETATM    5  N   UNL     1      26.695  45.767  49.519  1.00  0.00    -0.237 NA
HETATM    6  C   UNL     1      26.854  44.658  50.264  1.00  0.00     0.165 A 
HETATM    7  C   UNL     1      26.652  44.623  51.636  1.00  0.00     0.066 A 
BRANCH   6   8
HETATM    8  O   UNL     1      27.264  43.478  49.690  1.00  0.00    -0.324 OA
BRANCH   8   9
HETATM    9  C   UNL     1      26.319  42.413  49.473  1.00  0.00     0.058 C 
HETATM   10  C   UNL     1      24.947  42.915  48.996  1.00  0.00     0.045 C 
HETATM   11  C   UNL     1      26.209  41.474  50.684  1.00  0.00     0.045 C 
HETATM   12  C   UNL     1      26.940  41.607  48.315  1.00  0.00     0.045 C 
ENDBRANCH   8   9
ENDBRANCH   6   8
ENDBRANCH   1   2
BRANCH   1  13
HETATM   13  N   UNL     1      27.057  45.164  54.486  1.00  0.00    -0.353 N 
HETATM   14  C   UNL     1      28.173  45.873  54.863  1.00  0.00     0.253 C 
HETATM   15  O   UNL     1      28.274  47.088  54.742  1.00  0.00    -0.268 OA
HETATM   16  H   UNL     1      27.082  44.153  54.506  1.00  0.00     0.163 HD
BRANCH  14  17
HETATM   17  C   UNL     1      29.263  45.101  55.512  1.00  0.00     0.049 A 
HETATM   18  C   UNL     1      29.857  43.950  54.977  1.00  0.00     0.026 A 
HETATM   19 BR   UNL     1      29.409  43.229  53.277  1.00  0.00    -0.050 Br
HETATM   20  C   UNL     1      30.873  43.297  55.687  1.00  0.00     0.020 A 
HETATM   21  C   UNL     1      31.306  43.791  56.920  1.00  0.00     0.001 A 
HETATM   22  C   UNL     1      30.732  44.945  57.446  1.00  0.00     0.001 A 
HETATM   23  C   UNL     1      29.720  45.599  56.744  1.00  0.00     0.018 A 
ENDBRANCH  14  17
ENDBRANCH   1  13
TORSDOF 5
ENDMDL
MODEL 4
REMARK VINA RESULT:      -7.4      3.224      5.223
REMARK  5 active torsions:
REMARK  status: ('A' for Active; 'I' for Inactive)
REMARK    1  A    between atoms: C_2  and  O_3 
REMARK    2  A    between atoms: O_3  and  C_4 
REMARK    3  A    between atoms: C_8  and  C_9 
REMARK    4  A    between atoms: C_9  and  N_10 
REMARK       I    between atoms: N_10  and  C_11 
REMARK    5  A    between atoms: C_11  and  C_12 
ROOT
HETATM    1  C   UNL     1      24.798  45.887  51.606  1.00  0.00     0.161 C 
ENDROOT
BRANCH   1   2
HETATM    2  C   UNL     1      25.046  46.973  50.599  1.00  0.00    -0.035 A 
HETATM    3  C   UNL     1      26.305  47.570  50.495  1.00  0.00     0.028 A 
HETATM    4  C   UNL     1      26.480  48.588  49.573  1.00  0.00     0.120 A 
HETATM    5  N   UNL     1      25.501  49.051  48.768  1.00  0.00    -0.237 NA
HETATM    6  C   UNL     1      24.293  48.470  48.883  1.00  0.00     0.165 A 
HETATM    7  C   UNL     1      24.021  47.438  49.769  1.00  0.00     0.066 A 
BRANCH   6   8
HETATM    8  O   UNL     1      23.245  48.862  48.083  1.00  0.00    -0.324 OA
BRANCH   8   9
HETATM    9  C   UNL     1      22.138  49.587  48.649  1.00  0.00     0.058 C 
HETATM   10  C   UNL     1      22.567  50.607  49.715  1.00  0.00     0.045 C 
HETATM   11  C   UNL     1      21.023  48.656  49.148  1.00  0.00     0.045 C 
HETATM   12  C   UNL     1      21.577  50.384  47.454  1.00  0.00     0.045 C 
ENDBRANCH   8   9
ENDBRANCH   6   8
ENDBRANCH   1   2
BRANCH   1  13
HETATM   13  N   UNL     1      26.039  45.462  52.208  1.00  0.00    -0.353 N 
HETATM   14  C   UNL     1      26.046  44.683  53.341  1.00  0.00     0.253 C 
HETATM   15  O   UNL     1      25.034  44.195  53.831  1.00  0.00    -0.268 OA
HETATM   16  H   UNL     1      26.891  45.927  51.922  1.00  0.00     0.163 HD
BRANCH  14  17
HETATM   17  C   UNL     1      27.374  44.382  53.933  1.00  0.00     0.049 A 
HETATM   18  C   UNL     1      28.147  45.290  54.668  1.00  0.00     0.026 A 
HETATM   19 BR   UNL     1      27.577  47.052  55.096  1.00  0.00    -0.050 Br
HETATM   20  C   UNL     1      29.394  44.896  55.170  1.00  0.00     0.020 A 
HETATM   21  C   UNL     1      29.868  43.600  54.953  1.00  0.00     0.001 A 
HETATM   22  C   UNL     1      29.095  42.688  54.239  1.00  0.00     0.001 A 
HETATM   23  C   UNL     1      27.853  43.075  53.737  1.00  0.00     0.018 A 
ENDBRANCH  14  17
ENDBRANCH   1  13
TORSDOF 5
ENDMDL
MODEL 5
REMARK VINA RESULT:      -7.3      2.443      4.449
REMARK  5 active torsions:
REMARK  status: ('A' for Active; 'I' for Inactive)
REMARK    1  A    between atoms: C_2  and  O_3 
REMARK    2  A    between atoms: O_3  and  C_4 
REMARK    3  A    between atoms: C_8  and  C_9 
REMARK    4  A    between atoms: C_9  and  N_10 
REMARK       I    between atoms: N_10  and  C_11 
REMARK    5  A    between atoms: C_11  and  C_12 
ROOT
HETATM    1  C   UNL     1      27.303  44.134  51.000  1.00  0.00     0.161 C 
ENDROOT
BRANCH   1   2
HETATM    2  C   UNL     1      26.920  42.726  50.648  1.00  0.00    -0.035 A 
HETATM    3  C   UNL     1      25.635  42.435  50.182  1.00  0.00     0.028 A 
HETATM    4  C   UNL     1      25.316  41.118  49.898  1.00  0.00     0.120 A 
HETATM    5  N   UNL     1      26.171  40.086  50.054  1.00  0.00    -0.237 NA
HETATM    6  C   UNL     1      27.403  40.380  50.508  1.00  0.00     0.165 A 
HETATM    7  C   UNL     1      27.820  41.669  50.811  1.00  0.00     0.066 A 
BRANCH   6   8
HETATM    8  O   UNL     1      28.346  39.393  50.672  1.00  0.00    -0.324 OA
BRANCH   8   9
HETATM    9  C   UNL     1      28.652  38.499  49.586  1.00  0.00     0.058 C 
HETATM   10  C   UNL     1      28.755  39.213  48.229  1.00  0.00     0.045 C 
HETATM   11  C   UNL     1      27.705  37.291  49.539  1.00  0.00     0.045 C 
HETATM   12  C   UNL     1      30.059  37.972  49.934  1.00  0.00     0.045 C 
ENDBRANCH   8   9
ENDBRANCH   6   8
ENDBRANCH   1   2
BRANCH   1  13
HETATM   13  N   UNL     1      28.249  44.144  52.090  1.00  0.00    -0.353 N 
HETATM   14  C   UNL     1      27.824  44.230  53.394  1.00  0.00     0.253 C 
HETATM   15  O   UNL     1      26.646  44.170  53.726  1.00  0.00    -0.268 OA
HETATM   16  H   UNL     1      29.222  44.316  51.874  1.00  0.00     0.163 HD
BRANCH  14  17
HETATM   17  C   UNL     1      28.881  44.329  54.433  1.00  0.00     0.049 A 
HETATM   18  C   UNL     1      29.109  45.453  55.238  1.00  0.00     0.026 A 
HETATM   19 BR   UNL     1      28.037  47.021  55.183  1.00  0.00    -0.050 Br
HETATM   20  C   UNL     1      30.146  45.436  56.180  1.00  0.00     0.020 A 
HETATM   21  C   UNL     1      30.948  44.303  56.330  1.00  0.00     0.001 A 
HETATM   22  C   UNL     1      30.714  43.177  55.545  1.00  0.00     0.001 A 
HETATM   23  C   UNL     1      29.683  43.188  54.605  1.00  0.00     0.018 A 
ENDBRANCH  14  17
ENDBRANCH   1  13
TORSDOF 5
ENDMDL
MODEL 6
REMARK VINA RESULT:      -7.3      3.788      5.919
REMARK  5 active torsions:
REMARK  status: ('A' for Active; 'I' for Inactive)
REMARK    1  A    between atoms: C_2  and  O_3 
REMARK    2  A    between atoms: O_3  and  C_4 
REMARK    3  A    between atoms: C_8  and  C_9 
REMARK    4  A    between atoms: C_9  and  N_10 
REMARK       I    between atoms: N_10  and  C_11 
REMARK    5  A    between atoms: C_11  and  C_12 
ROOT
HETATM    1  C   UNL     1      24.688  46.004  50.666  1.00  0.00     0.161 C 
ENDROOT
BRANCH   1   2
HETATM    2  C   UNL     1      24.630  47.259  49.844  1.00  0.00    -0.035 A 
HETATM    3  C   UNL     1      25.780  48.024  49.635  1.00  0.00     0.028 A 
HETATM    4  C   UNL     1      25.674  49.190  48.895  1.00  0.00     0.120 A 
HETATM    5  N   UNL     1      24.518  49.644  48.368  1.00  0.00    -0.237 NA
HETATM    6  C   UNL     1      23.418  48.899  48.581  1.00  0.00     0.165 A 
HETATM    7  C   UNL     1      23.425  47.713  49.300  1.00  0.00     0.066 A 
BRANCH   6   8
HETATM    8  O   UNL     1      22.203  49.274  48.058  1.00  0.00    -0.324 OA
BRANCH   8   9
HETATM    9  C   UNL     1      21.235  49.944  48.887  1.00  0.00     0.058 C 
HETATM   10  C   UNL     1      21.877  50.790  49.997  1.00  0.00     0.045 C 
HETATM   11  C   UNL     1      20.166  48.983  49.429  1.00  0.00     0.045 C 
HETATM   12  C   UNL     1      20.536  50.916  47.916  1.00  0.00     0.045 C 
ENDBRANCH   8   9
ENDBRANCH   6   8
ENDBRANCH   1   2
BRANCH   1  13
HETATM   13  N   UNL     1      25.784  46.063  51.603  1.00  0.00    -0.353 N 
HETATM   14  C   UNL     1      25.713  45.423  52.817  1.00  0.00     0.253 C 
HETATM   15  O   UNL     1      24.800  44.667  53.130  1.00  0.00    -0.268 OA
HETATM   16  H   UNL     1      26.502  46.760  51.452  1.00  0.00     0.163 HD
BRANCH  14  17
HETATM   17  C   UNL     1      26.855  45.627  53.745  1.00  0.00     0.049 A 
HETATM   18  C   UNL     1      27.770  44.634  54.117  1.00  0.00     0.026 A 
HETATM   19 BR   UNL     1      27.744  42.865  53.423  1.00  0.00    -0.050 Br
HETATM   20  C   UNL     1      28.804  44.940  55.011  1.00  0.00     0.020 A 
HETATM   21  C   UNL     1      28.935  46.231  55.527  1.00  0.00     0.001 A 
HETATM   22  C   UNL     1      28.039  47.226  55.146  1.00  0.00     0.001 A 
HETATM   23  C   UNL     1      27.007  46.927  54.256  1.00  0.00     0.018 A 
ENDBRANCH  14  17
ENDBRANCH   1  13
TORSDOF 5
ENDMDL
MODEL 7
REMARK VINA RESULT:      -7.2      4.734      9.482
REMARK  5 active torsions:
REMARK  status: ('A' for Active; 'I' for Inactive)
REMARK    1  A    between atoms: C_2  and  O_3 
REMARK    2  A    between atoms: O_3  and  C_4 
REMARK    3  A    between atoms: C_8  and  C_9 
REMARK    4  A    between atoms: C_9  and  N_10 
REMARK       I    between atoms: N_10  and  C_11 
REMARK    5  A    between atoms: C_11  and  C_12 
ROOT
HETATM    1  C   UNL     1      24.730  48.083  49.577  1.00  0.00     0.161 C 
ENDROOT
BRANCH   1   2
HETATM    2  C   UNL     1      24.697  46.821  50.391  1.00  0.00    -0.035 A 
HETATM    3  C   UNL     1      24.037  45.686  49.913  1.00  0.00     0.028 A 
HETATM    4  C   UNL     1      24.006  44.554  50.709  1.00  0.00     0.120 A 
HETATM    5  N   UNL     1      24.568  44.480  51.934  1.00  0.00    -0.237 NA
HETATM    6  C   UNL     1      25.195  45.582  52.383  1.00  0.00     0.165 A 
HETATM    7  C   UNL     1      25.288  46.760  51.656  1.00  0.00     0.066 A 
BRANCH   6   8
HETATM    8  O   UNL     1      25.818  45.586  53.609  1.00  0.00    -0.324 OA
BRANCH   8   9
HETATM    9  C   UNL     1      26.944  44.722  53.850  1.00  0.00     0.058 C 
HETATM   10  C   UNL     1      27.668  44.303  52.561  1.00  0.00     0.045 C 
HETATM   11  C   UNL     1      26.580  43.519  54.733  1.00  0.00     0.045 C 
HETATM   12  C   UNL     1      27.917  45.610  54.653  1.00  0.00     0.045 C 
ENDBRANCH   8   9
ENDBRANCH   6   8
ENDBRANCH   1   2
BRANCH   1  13
HETATM   13  N   UNL     1      23.390  48.552  49.317  1.00  0.00    -0.353 N 
HETATM   14  C   UNL     1      23.131  49.410  48.275  1.00  0.00     0.253 C 
HETATM   15  O   UNL     1      23.966  49.724  47.434  1.00  0.00    -0.268 OA
HETATM   16  H   UNL     1      22.692  48.426  50.039  1.00  0.00     0.163 HD
BRANCH  14  17
HETATM   17  C   UNL     1      21.737  49.908  48.153  1.00  0.00     0.049 A 
HETATM   18  C   UNL     1      20.663  49.163  47.649  1.00  0.00     0.026 A 
HETATM   19 BR   UNL     1      20.804  47.348  47.106  1.00  0.00    -0.050 Br
HETATM   20  C   UNL     1      19.390  49.743  47.571  1.00  0.00     0.020 A 
HETATM   21  C   UNL     1      19.181  51.055  48.002  1.00  0.00     0.001 A 
HETATM   22  C   UNL     1      20.241  51.793  48.522  1.00  0.00     0.001 A 
HETATM   23  C   UNL     1      21.511  51.221  48.602  1.00  0.00     0.018 A 
ENDBRANCH  14  17
ENDBRANCH   1  13
TORSDOF 5
ENDMDL
MODEL 8
REMARK VINA RESULT:      -7.0      2.632      4.870
REMARK  5 active torsions:
REMARK  status: ('A' for Active; 'I' for Inactive)
REMARK    1  A    between atoms: C_2  and  O_3 
REMARK    2  A    between atoms: O_3  and  C_4 
REMARK    3  A    between atoms: C_8  and  C_9 
REMARK    4  A    between atoms: C_9  and  N_10 
REMARK       I    between atoms: N_10  and  C_11 
REMARK    5  A    between atoms: C_11  and  C_12 
ROOT
HETATM    1  C   UNL     1      25.035  42.939  51.079  1.00  0.00     0.161 C 
ENDROOT
BRANCH   1   2
HETATM    2  C   UNL     1      25.286  41.865  50.060  1.00  0.00    -0.035 A 
HETATM    3  C   UNL     1      24.666  41.915  48.809  1.00  0.00     0.028 A 
HETATM    4  C   UNL     1      24.903  40.888  47.911  1.00  0.00     0.120 A 
HETATM    5  N   UNL     1      25.693  39.826  48.174  1.00  0.00    -0.237 NA
HETATM    6  C   UNL     1      26.279  39.789  49.385  1.00  0.00     0.165 A 
HETATM    7  C   UNL     1      26.112  40.774  50.347  1.00  0.00     0.066 A 
BRANCH   6   8
HETATM    8  O   UNL     1      27.121  38.757  49.727  1.00  0.00    -0.324 OA
BRANCH   8   9
HETATM    9  C   UNL     1      28.481  38.746  49.253  1.00  0.00     0.058 C 
HETATM   10  C   UNL     1      29.482  38.252  50.308  1.00  0.00     0.045 C 
HETATM   11  C   UNL     1      28.896  40.091  48.639  1.00  0.00     0.045 C 
HETATM   12  C   UNL     1      28.461  37.704  48.117  1.00  0.00     0.045 C 
ENDBRANCH   8   9
ENDBRANCH   6   8
ENDBRANCH   1   2
BRANCH   1  13
HETATM   13  N   UNL     1      26.107  42.981  52.044  1.00  0.00    -0.353 N 
HETATM   14  C   UNL     1      27.193  43.803  51.859  1.00  0.00     0.253 C 
HETATM   15  O   UNL     1      27.267  44.633  50.961  1.00  0.00    -0.268 OA
HETATM   16  H   UNL     1      26.158  42.241  52.732  1.00  0.00     0.163 HD
BRANCH  14  17
HETATM   17  C   UNL     1      28.285  43.699  52.862  1.00  0.00     0.049 A 
HETATM   18  C   UNL     1      28.361  44.450  54.042  1.00  0.00     0.026 A 
HETATM   19 BR   UNL     1      27.023  45.682  54.594  1.00  0.00    -0.050 Br
HETATM   20  C   UNL     1      29.447  44.275  54.910  1.00  0.00     0.020 A 
HETATM   21  C   UNL     1      30.448  43.348  54.613  1.00  0.00     0.001 A 
HETATM   22  C   UNL     1      30.367  42.585  53.451  1.00  0.00     0.001 A 
HETATM   23  C   UNL     1      29.289  42.756  52.583  1.00  0.00     0.018 A 
ENDBRANCH  14  17
ENDBRANCH   1  13
TORSDOF 5
ENDMDL
MODEL 9
REMARK VINA RESULT:      -7.0      1.846      2.462
REMARK  5 active torsions:
REMARK  status: ('A' for Active; 'I' for Inactive)
REMARK    1  A    between atoms: C_2  and  O_3 
REMARK    2  A    between atoms: O_3  and  C_4 
REMARK    3  A    between atoms: C_8  and  C_9 
REMARK    4  A    between atoms: C_9  and  N_10 
REMARK       I    between atoms: N_10  and  C_11 
REMARK    5  A    between atoms: C_11  and  C_12 
ROOT
HETATM    1  C   UNL     1      28.525  41.102  52.808  1.00  0.00     0.161 C 
ENDROOT
BRANCH   1   2
HETATM    2  C   UNL     1      28.043  41.371  51.411  1.00  0.00    -0.035 A 
HETATM    3  C   UNL     1      28.326  40.475  50.377  1.00  0.00     0.028 A 
HETATM    4  C   UNL     1      27.888  40.779  49.099  1.00  0.00     0.120 A 
HETATM    5  N   UNL     1      27.206  41.901  48.785  1.00  0.00    -0.237 NA
HETATM    6  C   UNL     1      26.945  42.756  49.789  1.00  0.00     0.165 A 
HETATM    7  C   UNL     1      27.334  42.536  51.103  1.00  0.00     0.066 A 
BRANCH   6   8
HETATM    8  O   UNL     1      26.233  43.911  49.563  1.00  0.00    -0.324 OA
BRANCH   8   9
HETATM    9  C   UNL     1      24.801  43.918  49.713  1.00  0.00     0.058 C 
HETATM   10  C   UNL     1      24.235  42.557  50.145  1.00  0.00     0.045 C 
HETATM   11  C   UNL     1      24.087  44.481  48.475  1.00  0.00     0.045 C 
HETATM   12  C   UNL     1      24.563  44.903  50.874  1.00  0.00     0.045 C 
ENDBRANCH   8   9
ENDBRANCH   6   8
ENDBRANCH   1   2
BRANCH   1  13
HETATM   13  N   UNL     1      28.398  42.285  53.624  1.00  0.00    -0.353 N 
HETATM   14  C   UNL     1      29.480  43.096  53.868  1.00  0.00     0.253 C 
HETATM   15  O   UNL     1      30.567  42.956  53.319  1.00  0.00    -0.268 OA
HETATM   16  H   UNL     1      27.568  42.383  54.194  1.00  0.00     0.163 HD
BRANCH  14  17
HETATM   17  C   UNL     1      29.263  44.234  54.798  1.00  0.00     0.049 A 
HETATM   18  C   UNL     1      29.991  44.455  55.975  1.00  0.00     0.026 A 
HETATM   19 BR   UNL     1      31.444  43.365  56.535  1.00  0.00    -0.050 Br
HETATM   20  C   UNL     1      29.689  45.560  56.782  1.00  0.00     0.020 A 
HETATM   21  C   UNL     1      28.674  46.447  56.418  1.00  0.00     0.001 A 
HETATM   22  C   UNL     1      27.961  46.242  55.240  1.00  0.00     0.001 A 
HETATM   23  C   UNL     1      28.257  45.144  54.432  1.00  0.00     0.018 A 
ENDBRANCH  14  17
ENDBRANCH   1  13
TORSDOF 5
ENDMDL
MODEL 10
REMARK VINA RESULT:      -6.9      7.314      9.688
REMARK  5 active torsions:
REMARK  status: ('A' for Active; 'I' for Inactive)
REMARK    1  A    between atoms: C_2  and  O_3 
REMARK    2  A    between atoms: O_3  and  C_4 
REMARK    3  A    between atoms: C_8  and  C_9 
REMARK    4  A    between atoms: C_9  and  N_10 
REMARK       I    between atoms: N_10  and  C_11 
REMARK    5  A    between atoms: C_11  and  C_12 
ROOT
HETATM    1  C   UNL     1      21.879  51.169  48.943  1.00  0.00     0.161 C 
ENDROOT
BRANCH   1   2
HETATM    2  C   UNL     1      20.795  50.218  49.362  1.00  0.00    -0.035 A 
HETATM    3  C   UNL     1      19.875  50.581  50.349  1.00  0.00     0.028 A 
HETATM    4  C   UNL     1      18.911  49.661  50.727  1.00  0.00     0.120 A 
HETATM    5  N   UNL     1      18.809  48.421  50.204  1.00  0.00    -0.237 NA
HETATM    6  C   UNL     1      19.705  48.084  49.258  1.00  0.00     0.165 A 
HETATM    7  C   UNL     1      20.701  48.938  48.807  1.00  0.00     0.066 A 
BRANCH   6   8
HETATM    8  O   UNL     1      19.658  46.850  48.654  1.00  0.00    -0.324 OA
BRANCH   8   9
HETATM    9  C   UNL     1      19.017  46.696  47.373  1.00  0.00     0.058 C 
HETATM   10  C   UNL     1      20.004  46.368  46.242  1.00  0.00     0.045 C 
HETATM   11  C   UNL     1      18.108  47.886  47.029  1.00  0.00     0.045 C 
HETATM   12  C   UNL     1      18.114  45.462  47.565  1.00  0.00     0.045 C 
ENDBRANCH   8   9
ENDBRANCH   6   8
ENDBRANCH   1   2
BRANCH   1  13
HETATM   13  N   UNL     1      23.179  50.620  49.245  1.00  0.00    -0.353 N 
HETATM   14  C   UNL     1      23.969  50.088  48.254  1.00  0.00     0.253 C 
HETATM   15  O   UNL     1      23.698  50.161  47.061  1.00  0.00    -0.268 OA
HETATM   16  H   UNL     1      23.400  50.425  50.212  1.00  0.00     0.163 HD
BRANCH  14  17
HETATM   17  C   UNL     1      25.246  49.462  48.685  1.00  0.00     0.049 A 
HETATM   18  C   UNL     1      25.354  48.212  49.307  1.00  0.00     0.026 A 
HETATM   19 BR   UNL     1      23.872  47.066  49.631  1.00  0.00    -0.050 Br
HETATM   20  C   UNL     1      26.614  47.727  49.680  1.00  0.00     0.020 A 
HETATM   21  C   UNL     1      27.765  48.477  49.428  1.00  0.00     0.001 A 
HETATM   22  C   UNL     1      27.665  49.712  48.793  1.00  0.00     0.001 A 
HETATM   23  C   UNL     1      26.412  50.200  48.419  1.00  0.00     0.018 A 
ENDBRANCH  14  17
ENDBRANCH   1  13
TORSDOF 5
ENDMDL
