MODEL 1
REMARK VINA RESULT:      -9.5      0.000      0.000
REMARK  6 active torsions:
REMARK  status: ('A' for Active; 'I' for Inactive)
REMARK    1  A    between atoms: C_4  and  C_5 
REMARK    2  A    between atoms: C_14  and  C_15 
REMARK       I    between atoms: C_15  and  N_16 
REMARK    3  A    between atoms: N_16  and  C_17 
REMARK    4  A    between atoms: C_17  and  C_18 
REMARK    5  A    between atoms: C_18  and  N_19 
REMARK       I    between atoms: N_19  and  C_20 
REMARK    6  A    between atoms: C_20  and  C_21 
ROOT
HETATM    1  C   UNL     1      29.279  44.021  54.599  1.00  0.00     0.069 A 
HETATM    2  N   UNL     1      29.560  42.817  54.034  1.00  0.00    -0.230 NA
HETATM    3  C   UNL     1      28.880  42.567  52.903  1.00  0.00     0.139 A 
HETATM    4  C   UNL     1      27.947  43.376  52.271  1.00  0.00     0.027 A 
HETATM    5  C   UNL     1      27.669  44.609  52.882  1.00  0.00     0.018 A 
HETATM    6  C   UNL     1      28.351  44.920  54.063  1.00  0.00     0.033 A 
HETATM    7  N   UNL     1      29.010  41.424  52.168  1.00  0.00    -0.349 N 
HETATM    8  H   UNL     1      29.637  40.673  52.419  1.00  0.00     0.167 HD
HETATM    9  C   UNL     1      28.178  41.471  51.078  1.00  0.00     0.108 A 
HETATM   10  C   UNL     1      27.487  42.678  51.102  1.00  0.00     0.061 A 
ENDROOT
BRANCH  10  11
HETATM   11  C   UNL     1      26.493  43.163  50.144  1.00  0.00     0.254 C 
HETATM   12  N   UNL     1      25.196  42.758  50.372  1.00  0.00    -0.355 N 
HETATM   13  H   UNL     1      24.983  42.156  51.152  1.00  0.00     0.162 HD
HETATM   14  O   UNL     1      26.792  43.884  49.197  1.00  0.00    -0.268 OA
BRANCH  12  15
HETATM   15  C   UNL     1      24.108  43.180  49.508  1.00  0.00     0.142 C 
BRANCH  15  16
HETATM   16  C   UNL     1      23.455  44.486  49.979  1.00  0.00     0.142 C 
BRANCH  16  17
HETATM   17  N   UNL     1      24.141  45.664  49.477  1.00  0.00    -0.355 N 
HETATM   18  C   UNL     1      24.802  46.540  50.313  1.00  0.00     0.258 C 
HETATM   19  O   UNL     1      24.837  46.354  51.528  1.00  0.00    -0.267 OA
HETATM   20  H   UNL     1      24.096  45.874  48.490  1.00  0.00     0.162 HD
BRANCH  18  21
HETATM   21  C   UNL     1      25.435  47.685  49.672  1.00  0.00     0.072 A 
HETATM   22  S   UNL     1      24.538  48.914  48.882  1.00  0.00    -0.097 SA
HETATM   23  C   UNL     1      25.954  49.776  48.461  1.00  0.00     0.050 A 
HETATM   24  C   UNL     1      27.093  49.148  48.910  1.00  0.00     0.009 A 
HETATM   25  C   UNL     1      26.793  47.944  49.610  1.00  0.00     0.025 A 
ENDBRANCH  18  21
ENDBRANCH  16  17
ENDBRANCH  15  16
ENDBRANCH  12  15
ENDBRANCH  10  11
BRANCH   1  26
HETATM   26  C   UNL     1      30.019  44.315  55.849  1.00  0.00    -0.007 A 
HETATM   27  C   UNL     1      29.725  45.436  56.647  1.00  0.00     0.014 A 
HETATM   28  C   UNL     1      30.426  45.694  57.829  1.00  0.00     0.001 A 
HETATM   29  C   UNL     1      31.443  44.836  58.240  1.00  0.00     0.000 A 
HETATM   30  C   UNL     1      31.763  43.725  57.466  1.00  0.00     0.001 A 
HETATM   31  C   UNL     1      31.058  43.471  56.284  1.00  0.00     0.014 A 
ENDBRANCH   1  26
TORSDOF 6
ENDMDL
MODEL 2
REMARK VINA RESULT:      -9.3      3.340      3.894
REMARK  6 active torsions:
REMARK  status: ('A' for Active; 'I' for Inactive)
REMARK    1  A    between atoms: C_4  and  C_5 
REMARK    2  A    between atoms: C_14  and  C_15 
REMARK       I    between atoms: C_15  and  N_16 
REMARK    3  A    between atoms: N_16  and  C_17 
REMARK    4  A    between atoms: C_17  and  C_18 
REMARK    5  A    between atoms: C_18  and  N_19 
REMARK       I    between atoms: N_19  and  C_20 
REMARK    6  A    between atoms: C_20  and  C_21 
ROOT
HETATM    1  C   UNL     1      27.863  44.244  53.845  1.00  0.00     0.069 A 
HETATM    2  N   UNL     1      27.742  43.064  53.182  1.00  0.00    -0.230 NA
HETATM    3  C   UNL     1      26.720  43.023  52.311  1.00  0.00     0.139 A 
HETATM    4  C   UNL     1      25.800  44.022  52.027  1.00  0.00     0.027 A 
HETATM    5  C   UNL     1      25.943  45.227  52.733  1.00  0.00     0.018 A 
HETATM    6  C   UNL     1      26.993  45.323  53.653  1.00  0.00     0.033 A 
HETATM    7  N   UNL     1      26.417  41.942  51.536  1.00  0.00    -0.349 N 
HETATM    8  H   UNL     1      26.946  41.081  51.555  1.00  0.00     0.167 HD
HETATM    9  C   UNL     1      25.318  42.214  50.761  1.00  0.00     0.108 A 
HETATM   10  C   UNL     1      24.894  43.509  51.037  1.00  0.00     0.061 A 
ENDROOT
BRANCH  10  11
HETATM   11  C   UNL     1      23.761  44.226  50.452  1.00  0.00     0.254 C 
HETATM   12  N   UNL     1      24.074  45.378  49.764  1.00  0.00    -0.355 N 
HETATM   13  H   UNL     1      25.032  45.684  49.697  1.00  0.00     0.162 HD
HETATM   14  O   UNL     1      22.604  43.832  50.566  1.00  0.00    -0.268 OA
BRANCH  12  15
HETATM   15  C   UNL     1      23.047  46.178  49.119  1.00  0.00     0.142 C 
BRANCH  15  16
HETATM   16  C   UNL     1      23.275  47.684  49.297  1.00  0.00     0.142 C 
BRANCH  16  17
HETATM   17  N   UNL     1      22.033  48.437  49.318  1.00  0.00    -0.355 N 
HETATM   18  C   UNL     1      22.007  49.805  49.488  1.00  0.00     0.258 C 
HETATM   19  O   UNL     1      23.045  50.447  49.627  1.00  0.00    -0.267 OA
HETATM   20  H   UNL     1      21.156  47.938  49.252  1.00  0.00     0.162 HD
BRANCH  18  21
HETATM   21  C   UNL     1      20.688  50.425  49.501  1.00  0.00     0.072 A 
HETATM   22  S   UNL     1      19.337  49.707  50.274  1.00  0.00    -0.097 SA
HETATM   23  C   UNL     1      18.307  50.999  49.831  1.00  0.00     0.050 A 
HETATM   24  C   UNL     1      18.971  51.964  49.109  1.00  0.00     0.009 A 
HETATM   25  C   UNL     1      20.343  51.634  48.922  1.00  0.00     0.025 A 
ENDBRANCH  18  21
ENDBRANCH  16  17
ENDBRANCH  15  16
ENDBRANCH  12  15
ENDBRANCH  10  11
BRANCH   1  26
HETATM   26  C   UNL     1      28.984  44.308  54.812  1.00  0.00    -0.007 A 
HETATM   27  C   UNL     1      29.201  45.430  55.633  1.00  0.00     0.014 A 
HETATM   28  C   UNL     1      30.259  45.471  56.548  1.00  0.00     0.001 A 
HETATM   29  C   UNL     1      31.128  44.389  56.659  1.00  0.00     0.000 A 
HETATM   30  C   UNL     1      30.945  43.271  55.852  1.00  0.00     0.001 A 
HETATM   31  C   UNL     1      29.885  43.234  54.939  1.00  0.00     0.014 A 
ENDBRANCH   1  26
TORSDOF 6
ENDMDL
MODEL 3
REMARK VINA RESULT:      -9.2      3.046      3.757
REMARK  6 active torsions:
REMARK  status: ('A' for Active; 'I' for Inactive)
REMARK    1  A    between atoms: C_4  and  C_5 
REMARK    2  A    between atoms: C_14  and  C_15 
REMARK       I    between atoms: C_15  and  N_16 
REMARK    3  A    between atoms: N_16  and  C_17 
REMARK    4  A    between atoms: C_17  and  C_18 
REMARK    5  A    between atoms: C_18  and  N_19 
REMARK       I    between atoms: N_19  and  C_20 
REMARK    6  A    between atoms: C_20  and  C_21 
ROOT
HETATM    1  C   UNL     1      28.622  44.846  54.544  1.00  0.00     0.069 A 
HETATM    2  N   UNL     1      27.879  45.979  54.649  1.00  0.00    -0.230 NA
HETATM    3  C   UNL     1      26.985  46.146  53.660  1.00  0.00     0.139 A 
HETATM    4  C   UNL     1      26.749  45.316  52.573  1.00  0.00     0.027 A 
HETATM    5  C   UNL     1      27.537  44.158  52.485  1.00  0.00     0.018 A 
HETATM    6  C   UNL     1      28.484  43.935  53.490  1.00  0.00     0.033 A 
HETATM    7  N   UNL     1      26.133  47.208  53.569  1.00  0.00    -0.349 N 
HETATM    8  H   UNL     1      26.106  47.955  54.247  1.00  0.00     0.167 HD
HETATM    9  C   UNL     1      25.355  47.089  52.445  1.00  0.00     0.108 A 
HETATM   10  C   UNL     1      25.708  45.916  51.786  1.00  0.00     0.061 A 
ENDROOT
BRANCH  10  11
HETATM   11  C   UNL     1      25.148  45.380  50.545  1.00  0.00     0.254 C 
HETATM   12  N   UNL     1      23.776  45.256  50.513  1.00  0.00    -0.355 N 
HETATM   13  H   UNL     1      23.225  45.517  51.316  1.00  0.00     0.162 HD
HETATM   14  O   UNL     1      25.851  45.060  49.592  1.00  0.00    -0.268 OA
BRANCH  12  15
HETATM   15  C   UNL     1      23.088  44.754  49.337  1.00  0.00     0.142 C 
BRANCH  15  16
HETATM   16  C   UNL     1      22.777  45.859  48.320  1.00  0.00     0.142 C 
BRANCH  16  17
HETATM   17  N   UNL     1      21.910  46.889  48.865  1.00  0.00    -0.355 N 
HETATM   18  C   UNL     1      22.036  48.216  48.512  1.00  0.00     0.258 C 
HETATM   19  O   UNL     1      22.895  48.581  47.712  1.00  0.00    -0.267 OA
HETATM   20  H   UNL     1      21.222  46.633  49.560  1.00  0.00     0.162 HD
BRANCH  18  21
HETATM   21  C   UNL     1      21.107  49.140  49.147  1.00  0.00     0.072 A 
HETATM   22  S   UNL     1      19.557  48.658  49.700  1.00  0.00    -0.097 SA
HETATM   23  C   UNL     1      19.186  50.232  50.255  1.00  0.00     0.050 A 
HETATM   24  C   UNL     1      20.217  51.115  50.030  1.00  0.00     0.009 A 
HETATM   25  C   UNL     1      21.324  50.485  49.393  1.00  0.00     0.025 A 
ENDBRANCH  18  21
ENDBRANCH  16  17
ENDBRANCH  15  16
ENDBRANCH  12  15
ENDBRANCH  10  11
BRANCH   1  26
HETATM   26  C   UNL     1      29.615  44.644  55.625  1.00  0.00    -0.007 A 
HETATM   27  C   UNL     1      29.716  45.521  56.721  1.00  0.00     0.014 A 
HETATM   28  C   UNL     1      30.653  45.311  57.739  1.00  0.00     0.001 A 
HETATM   29  C   UNL     1      31.515  44.219  57.680  1.00  0.00     0.000 A 
HETATM   30  C   UNL     1      31.445  43.341  56.603  1.00  0.00     0.001 A 
HETATM   31  C   UNL     1      30.506  43.555  55.588  1.00  0.00     0.014 A 
ENDBRANCH   1  26
TORSDOF 6
ENDMDL
MODEL 4
REMARK VINA RESULT:      -9.2      1.196      1.709
REMARK  6 active torsions:
REMARK  status: ('A' for Active; 'I' for Inactive)
REMARK    1  A    between atoms: C_4  and  C_5 
REMARK    2  A    between atoms: C_14  and  C_15 
REMARK       I    between atoms: C_15  and  N_16 
REMARK    3  A    between atoms: N_16  and  C_17 
REMARK    4  A    between atoms: C_17  and  C_18 
REMARK    5  A    between atoms: C_18  and  N_19 
REMARK       I    between atoms: N_19  and  C_20 
REMARK    6  A    between atoms: C_20  and  C_21 
ROOT
HETATM    1  C   UNL     1      29.176  43.347  53.941  1.00  0.00     0.069 A 
HETATM    2  N   UNL     1      29.492  42.066  53.614  1.00  0.00    -0.230 NA
HETATM    3  C   UNL     1      28.875  41.610  52.512  1.00  0.00     0.139 A 
HETATM    4  C   UNL     1      27.974  42.281  51.697  1.00  0.00     0.027 A 
HETATM    5  C   UNL     1      27.659  43.598  52.064  1.00  0.00     0.018 A 
HETATM    6  C   UNL     1      28.274  44.124  53.205  1.00  0.00     0.033 A 
HETATM    7  N   UNL     1      29.050  40.357  52.000  1.00  0.00    -0.349 N 
HETATM    8  H   UNL     1      29.665  39.670  52.413  1.00  0.00     0.167 HD
HETATM    9  C   UNL     1      28.277  40.198  50.877  1.00  0.00     0.108 A 
HETATM   10  C   UNL     1      27.582  41.380  50.649  1.00  0.00     0.061 A 
ENDROOT
BRANCH  10  11
HETATM   11  C   UNL     1      26.639  41.674  49.569  1.00  0.00     0.254 C 
HETATM   12  N   UNL     1      25.324  41.350  49.820  1.00  0.00    -0.355 N 
HETATM   13  H   UNL     1      25.064  40.928  50.698  1.00  0.00     0.162 HD
HETATM   14  O   UNL     1      26.994  42.176  48.507  1.00  0.00    -0.268 OA
BRANCH  12  15
HETATM   15  C   UNL     1      24.281  41.603  48.840  1.00  0.00     0.142 C 
BRANCH  15  16
HETATM   16  C   UNL     1      23.296  42.687  49.296  1.00  0.00     0.142 C 
BRANCH  16  17
HETATM   17  N   UNL     1      23.857  44.024  49.201  1.00  0.00    -0.355 N 
HETATM   18  C   UNL     1      24.324  44.703  50.307  1.00  0.00     0.258 C 
HETATM   19  O   UNL     1      24.286  44.197  51.426  1.00  0.00    -0.267 OA
HETATM   20  H   UNL     1      23.863  44.490  48.305  1.00  0.00     0.162 HD
BRANCH  18  21
HETATM   21  C   UNL     1      24.847  46.041  50.064  1.00  0.00     0.072 A 
HETATM   22  S   UNL     1      23.877  47.316  49.454  1.00  0.00    -0.097 SA
HETATM   23  C   UNL     1      25.184  48.419  49.480  1.00  0.00     0.050 A 
HETATM   24  C   UNL     1      26.341  47.837  49.944  1.00  0.00     0.009 A 
HETATM   25  C   UNL     1      26.146  46.468  50.283  1.00  0.00     0.025 A 
ENDBRANCH  18  21
ENDBRANCH  16  17
ENDBRANCH  15  16
ENDBRANCH  12  15
ENDBRANCH  10  11
BRANCH   1  26
HETATM   26  C   UNL     1      29.845  43.868  55.156  1.00  0.00    -0.007 A 
HETATM   27  C   UNL     1      30.828  43.132  55.843  1.00  0.00     0.014 A 
HETATM   28  C   UNL     1      31.457  43.643  56.983  1.00  0.00     0.001 A 
HETATM   29  C   UNL     1      31.113  44.903  57.465  1.00  0.00     0.000 A 
HETATM   30  C   UNL     1      30.137  45.649  56.813  1.00  0.00     0.001 A 
HETATM   31  C   UNL     1      29.510  45.134  55.672  1.00  0.00     0.014 A 
ENDBRANCH   1  26
TORSDOF 6
ENDMDL
MODEL 5
REMARK VINA RESULT:      -8.2      3.237      8.493
REMARK  6 active torsions:
REMARK  status: ('A' for Active; 'I' for Inactive)
REMARK    1  A    between atoms: C_4  and  C_5 
REMARK    2  A    between atoms: C_14  and  C_15 
REMARK       I    between atoms: C_15  and  N_16 
REMARK    3  A    between atoms: N_16  and  C_17 
REMARK    4  A    between atoms: C_17  and  C_18 
REMARK    5  A    between atoms: C_18  and  N_19 
REMARK       I    between atoms: N_19  and  C_20 
REMARK    6  A    between atoms: C_20  and  C_21 
ROOT
HETATM    1  C   UNL     1      23.693  47.602  49.665  1.00  0.00     0.069 A 
HETATM    2  N   UNL     1      24.536  47.868  50.697  1.00  0.00    -0.230 NA
HETATM    3  C   UNL     1      25.168  46.787  51.185  1.00  0.00     0.139 A 
HETATM    4  C   UNL     1      25.053  45.469  50.766  1.00  0.00     0.027 A 
HETATM    5  C   UNL     1      24.169  45.223  49.704  1.00  0.00     0.018 A 
HETATM    6  C   UNL     1      23.485  46.315  49.158  1.00  0.00     0.033 A 
HETATM    7  N   UNL     1      26.061  46.823  52.215  1.00  0.00    -0.349 N 
HETATM    8  H   UNL     1      26.322  47.674  52.693  1.00  0.00     0.167 HD
HETATM    9  C   UNL     1      26.524  45.558  52.479  1.00  0.00     0.108 A 
HETATM   10  C   UNL     1      25.916  44.674  51.594  1.00  0.00     0.061 A 
ENDROOT
BRANCH  10  11
HETATM   11  C   UNL     1      26.101  43.225  51.503  1.00  0.00     0.254 C 
HETATM   12  N   UNL     1      27.328  42.753  51.916  1.00  0.00    -0.355 N 
HETATM   13  H   UNL     1      28.034  43.394  52.243  1.00  0.00     0.162 HD
HETATM   14  O   UNL     1      25.223  42.476  51.087  1.00  0.00    -0.268 OA
BRANCH  12  15
HETATM   15  C   UNL     1      27.640  41.334  51.895  1.00  0.00     0.142 C 
BRANCH  15  16
HETATM   16  C   UNL     1      28.620  40.930  53.003  1.00  0.00     0.142 C 
BRANCH  16  17
HETATM   17  N   UNL     1      28.792  41.972  54.001  1.00  0.00    -0.355 N 
HETATM   18  C   UNL     1      29.746  42.959  53.872  1.00  0.00     0.258 C 
HETATM   19  O   UNL     1      30.494  42.997  52.897  1.00  0.00    -0.267 OA
HETATM   20  H   UNL     1      28.226  41.948  54.838  1.00  0.00     0.162 HD
BRANCH  18  21
HETATM   21  C   UNL     1      29.814  43.932  54.955  1.00  0.00     0.072 A 
HETATM   22  S   UNL     1      31.034  43.890  56.159  1.00  0.00    -0.097 SA
HETATM   23  C   UNL     1      30.401  45.269  56.949  1.00  0.00     0.050 A 
HETATM   24  C   UNL     1      29.283  45.759  56.315  1.00  0.00     0.009 A 
HETATM   25  C   UNL     1      28.946  44.990  55.165  1.00  0.00     0.025 A 
ENDBRANCH  18  21
ENDBRANCH  16  17
ENDBRANCH  15  16
ENDBRANCH  12  15
ENDBRANCH  10  11
BRANCH   1  26
HETATM   26  C   UNL     1      22.985  48.782  49.114  1.00  0.00    -0.007 A 
HETATM   27  C   UNL     1      21.608  48.761  48.827  1.00  0.00     0.014 A 
HETATM   28  C   UNL     1      20.952  49.887  48.316  1.00  0.00     0.001 A 
HETATM   29  C   UNL     1      21.663  51.060  48.077  1.00  0.00     0.000 A 
HETATM   30  C   UNL     1      23.027  51.106  48.341  1.00  0.00     0.001 A 
HETATM   31  C   UNL     1      23.679  49.978  48.852  1.00  0.00     0.014 A 
ENDBRANCH   1  26
TORSDOF 6
ENDMDL
MODEL 6
REMARK VINA RESULT:      -8.1      4.178     10.007
REMARK  6 active torsions:
REMARK  status: ('A' for Active; 'I' for Inactive)
REMARK    1  A    between atoms: C_4  and  C_5 
REMARK    2  A    between atoms: C_14  and  C_15 
REMARK       I    between atoms: C_15  and  N_16 
REMARK    3  A    between atoms: N_16  and  C_17 
REMARK    4  A    between atoms: C_17  and  C_18 
REMARK    5  A    between atoms: C_18  and  N_19 
REMARK       I    between atoms: N_19  and  C_20 
REMARK    6  A    between atoms: C_20  and  C_21 
ROOT
HETATM    1  C   UNL     1      21.286  49.346  48.464  1.00  0.00     0.069 A 
HETATM    2  N   UNL     1      21.061  48.063  48.079  1.00  0.00    -0.230 NA
HETATM    3  C   UNL     1      22.018  47.198  48.453  1.00  0.00     0.139 A 
HETATM    4  C   UNL     1      23.180  47.466  49.164  1.00  0.00     0.027 A 
HETATM    5  C   UNL     1      23.391  48.801  49.540  1.00  0.00     0.018 A 
HETATM    6  C   UNL     1      22.423  49.743  49.176  1.00  0.00     0.033 A 
HETATM    7  N   UNL     1      21.993  45.862  48.178  1.00  0.00    -0.349 N 
HETATM    8  H   UNL     1      21.244  45.415  47.670  1.00  0.00     0.167 HD
HETATM    9  C   UNL     1      23.115  45.258  48.688  1.00  0.00     0.108 A 
HETATM   10  C   UNL     1      23.891  46.227  49.315  1.00  0.00     0.061 A 
ENDROOT
BRANCH  10  11
HETATM   11  C   UNL     1      25.173  46.048  49.996  1.00  0.00     0.254 C 
HETATM   12  N   UNL     1      25.966  45.027  49.520  1.00  0.00    -0.355 N 
HETATM   13  H   UNL     1      25.647  44.452  48.755  1.00  0.00     0.162 HD
HETATM   14  O   UNL     1      25.523  46.759  50.934  1.00  0.00    -0.268 OA
BRANCH  12  15
HETATM   15  C   UNL     1      27.272  44.750  50.094  1.00  0.00     0.142 C 
BRANCH  15  16
HETATM   16  C   UNL     1      27.239  43.593  51.100  1.00  0.00     0.142 C 
BRANCH  16  17
HETATM   17  N   UNL     1      28.210  43.757  52.168  1.00  0.00    -0.355 N 
HETATM   18  C   UNL     1      27.842  44.134  53.443  1.00  0.00     0.258 C 
HETATM   19  O   UNL     1      26.665  44.345  53.728  1.00  0.00    -0.267 OA
HETATM   20  H   UNL     1      29.192  43.637  51.961  1.00  0.00     0.162 HD
BRANCH  18  21
HETATM   21  C   UNL     1      28.923  44.271  54.409  1.00  0.00     0.072 A 
HETATM   22  S   UNL     1      29.043  45.607  55.478  1.00  0.00    -0.097 SA
HETATM   23  C   UNL     1      30.477  45.003  56.187  1.00  0.00     0.050 A 
HETATM   24  C   UNL     1      30.865  43.806  55.627  1.00  0.00     0.009 A 
HETATM   25  C   UNL     1      29.968  43.385  54.605  1.00  0.00     0.025 A 
ENDBRANCH  18  21
ENDBRANCH  16  17
ENDBRANCH  15  16
ENDBRANCH  12  15
ENDBRANCH  10  11
BRANCH   1  26
HETATM   26  C   UNL     1      20.241  50.316  48.058  1.00  0.00    -0.007 A 
HETATM   27  C   UNL     1      19.389  50.084  46.963  1.00  0.00     0.014 A 
HETATM   28  C   UNL     1      18.401  51.005  46.599  1.00  0.00     0.001 A 
HETATM   29  C   UNL     1      18.245  52.184  47.323  1.00  0.00     0.000 A 
HETATM   30  C   UNL     1      19.079  52.445  48.405  1.00  0.00     0.001 A 
HETATM   31  C   UNL     1      20.066  51.521  48.765  1.00  0.00     0.014 A 
ENDBRANCH   1  26
TORSDOF 6
ENDMDL
MODEL 7
REMARK VINA RESULT:      -8.0      5.812     11.240
REMARK  6 active torsions:
REMARK  status: ('A' for Active; 'I' for Inactive)
REMARK    1  A    between atoms: C_4  and  C_5 
REMARK    2  A    between atoms: C_14  and  C_15 
REMARK       I    between atoms: C_15  and  N_16 
REMARK    3  A    between atoms: N_16  and  C_17 
REMARK    4  A    between atoms: C_17  and  C_18 
REMARK    5  A    between atoms: C_18  and  N_19 
REMARK       I    between atoms: N_19  and  C_20 
REMARK    6  A    between atoms: C_20  and  C_21 
ROOT
HETATM    1  C   UNL     1      19.089  50.740  49.049  1.00  0.00     0.069 A 
HETATM    2  N   UNL     1      19.120  49.551  48.390  1.00  0.00    -0.230 NA
HETATM    3  C   UNL     1      20.283  48.889  48.501  1.00  0.00     0.139 A 
HETATM    4  C   UNL     1      21.424  49.277  49.190  1.00  0.00     0.027 A 
HETATM    5  C   UNL     1      21.366  50.512  49.854  1.00  0.00     0.018 A 
HETATM    6  C   UNL     1      20.177  51.243  49.771  1.00  0.00     0.033 A 
HETATM    7  N   UNL     1      20.532  47.677  47.927  1.00  0.00    -0.349 N 
HETATM    8  H   UNL     1      19.853  47.178  47.371  1.00  0.00     0.167 HD
HETATM    9  C   UNL     1      21.810  47.273  48.221  1.00  0.00     0.108 A 
HETATM   10  C   UNL     1      22.410  48.247  49.011  1.00  0.00     0.061 A 
ENDROOT
BRANCH  10  11
HETATM   11  C   UNL     1      23.765  48.248  49.562  1.00  0.00     0.254 C 
HETATM   12  N   UNL     1      24.112  47.136  50.297  1.00  0.00    -0.355 N 
HETATM   13  H   UNL     1      23.445  46.392  50.437  1.00  0.00     0.162 HD
HETATM   14  O   UNL     1      24.546  49.178  49.383  1.00  0.00    -0.268 OA
BRANCH  12  15
HETATM   15  C   UNL     1      25.432  46.998  50.887  1.00  0.00     0.142 C 
BRANCH  15  16
HETATM   16  C   UNL     1      25.392  46.957  52.419  1.00  0.00     0.142 C 
BRANCH  16  17
HETATM   17  N   UNL     1      26.590  46.368  52.992  1.00  0.00    -0.355 N 
HETATM   18  C   UNL     1      26.537  45.304  53.868  1.00  0.00     0.258 C 
HETATM   19  O   UNL     1      25.463  44.806  54.199  1.00  0.00    -0.267 OA
HETATM   20  H   UNL     1      27.488  46.779  52.779  1.00  0.00     0.162 HD
BRANCH  18  21
HETATM   21  C   UNL     1      27.817  44.824  54.372  1.00  0.00     0.072 A 
HETATM   22  S   UNL     1      28.779  45.732  55.463  1.00  0.00    -0.097 SA
HETATM   23  C   UNL     1      29.987  44.523  55.516  1.00  0.00     0.050 A 
HETATM   24  C   UNL     1      29.672  43.443  54.723  1.00  0.00     0.009 A 
HETATM   25  C   UNL     1      28.421  43.617  54.066  1.00  0.00     0.025 A 
ENDBRANCH  18  21
ENDBRANCH  16  17
ENDBRANCH  15  16
ENDBRANCH  12  15
ENDBRANCH  10  11
BRANCH   1  26
HETATM   26  C   UNL     1      17.813  51.486  48.937  1.00  0.00    -0.007 A 
HETATM   27  C   UNL     1      16.896  51.249  47.897  1.00  0.00     0.014 A 
HETATM   28  C   UNL     1      15.692  51.956  47.811  1.00  0.00     0.001 A 
HETATM   29  C   UNL     1      15.380  52.922  48.764  1.00  0.00     0.000 A 
HETATM   30  C   UNL     1      16.272  53.185  49.798  1.00  0.00     0.001 A 
HETATM   31  C   UNL     1      17.475  52.475  49.880  1.00  0.00     0.014 A 
ENDBRANCH   1  26
TORSDOF 6
ENDMDL
MODEL 8
REMARK VINA RESULT:      -7.8      4.912      6.134
REMARK  6 active torsions:
REMARK  status: ('A' for Active; 'I' for Inactive)
REMARK    1  A    between atoms: C_4  and  C_5 
REMARK    2  A    between atoms: C_14  and  C_15 
REMARK       I    between atoms: C_15  and  N_16 
REMARK    3  A    between atoms: N_16  and  C_17 
REMARK    4  A    between atoms: C_17  and  C_18 
REMARK    5  A    between atoms: C_18  and  N_19 
REMARK       I    between atoms: N_19  and  C_20 
REMARK    6  A    between atoms: C_20  and  C_21 
ROOT
HETATM    1  C   UNL     1      27.169  45.042  52.436  1.00  0.00     0.069 A 
HETATM    2  N   UNL     1      26.765  44.276  51.389  1.00  0.00    -0.230 NA
HETATM    3  C   UNL     1      25.848  44.859  50.601  1.00  0.00     0.139 A 
HETATM    4  C   UNL     1      25.281  46.118  50.737  1.00  0.00     0.027 A 
HETATM    5  C   UNL     1      25.709  46.884  51.832  1.00  0.00     0.018 A 
HETATM    6  C   UNL     1      26.665  46.323  52.686  1.00  0.00     0.033 A 
HETATM    7  N   UNL     1      25.308  44.274  49.492  1.00  0.00    -0.349 N 
HETATM    8  H   UNL     1      25.562  43.350  49.174  1.00  0.00     0.167 HD
HETATM    9  C   UNL     1      24.399  45.122  48.910  1.00  0.00     0.108 A 
HETATM   10  C   UNL     1      24.347  46.292  49.659  1.00  0.00     0.061 A 
ENDROOT
BRANCH  10  11
HETATM   11  C   UNL     1      23.520  47.475  49.419  1.00  0.00     0.254 C 
HETATM   12  N   UNL     1      22.412  47.279  48.623  1.00  0.00    -0.355 N 
HETATM   13  H   UNL     1      22.221  46.367  48.237  1.00  0.00     0.162 HD
HETATM   14  O   UNL     1      23.791  48.573  49.895  1.00  0.00    -0.268 OA
BRANCH  12  15
HETATM   15  C   UNL     1      21.496  48.364  48.318  1.00  0.00     0.142 C 
BRANCH  15  16
HETATM   16  C   UNL     1      20.484  48.614  49.444  1.00  0.00     0.142 C 
BRANCH  16  17
HETATM   17  N   UNL     1      19.409  49.503  49.038  1.00  0.00    -0.355 N 
HETATM   18  C   UNL     1      18.447  49.942  49.923  1.00  0.00     0.258 C 
HETATM   19  O   UNL     1      18.465  49.597  51.103  1.00  0.00    -0.267 OA
HETATM   20  H   UNL     1      19.335  49.772  48.066  1.00  0.00     0.162 HD
BRANCH  18  21
HETATM   21  C   UNL     1      17.422  50.819  49.374  1.00  0.00     0.072 A 
HETATM   22  S   UNL     1      17.345  52.493  49.740  1.00  0.00    -0.097 SA
HETATM   23  C   UNL     1      15.963  52.717  48.756  1.00  0.00     0.050 A 
HETATM   24  C   UNL     1      15.562  51.545  48.155  1.00  0.00     0.009 A 
HETATM   25  C   UNL     1      16.404  50.453  48.510  1.00  0.00     0.025 A 
ENDBRANCH  18  21
ENDBRANCH  16  17
ENDBRANCH  15  16
ENDBRANCH  12  15
ENDBRANCH  10  11
BRANCH   1  26
HETATM   26  C   UNL     1      28.180  44.415  53.320  1.00  0.00    -0.007 A 
HETATM   27  C   UNL     1      28.806  43.197  52.995  1.00  0.00     0.014 A 
HETATM   28  C   UNL     1      29.766  42.624  53.835  1.00  0.00     0.001 A 
HETATM   29  C   UNL     1      30.119  43.255  55.025  1.00  0.00     0.000 A 
HETATM   30  C   UNL     1      29.509  44.454  55.377  1.00  0.00     0.001 A 
HETATM   31  C   UNL     1      28.550  45.025  54.534  1.00  0.00     0.014 A 
ENDBRANCH   1  26
TORSDOF 6
ENDMDL
MODEL 9
REMARK VINA RESULT:      -7.8      5.609      7.834
REMARK  6 active torsions:
REMARK  status: ('A' for Active; 'I' for Inactive)
REMARK    1  A    between atoms: C_4  and  C_5 
REMARK    2  A    between atoms: C_14  and  C_15 
REMARK       I    between atoms: C_15  and  N_16 
REMARK    3  A    between atoms: N_16  and  C_17 
REMARK    4  A    between atoms: C_17  and  C_18 
REMARK    5  A    between atoms: C_18  and  N_19 
REMARK       I    between atoms: N_19  and  C_20 
REMARK    6  A    between atoms: C_20  and  C_21 
ROOT
HETATM    1  C   UNL     1      26.128  46.256  50.913  1.00  0.00     0.069 A 
HETATM    2  N   UNL     1      27.022  47.084  50.312  1.00  0.00    -0.230 NA
HETATM    3  C   UNL     1      26.463  48.086  49.614  1.00  0.00     0.139 A 
HETATM    4  C   UNL     1      25.113  48.357  49.441  1.00  0.00     0.027 A 
HETATM    5  C   UNL     1      24.212  47.480  50.065  1.00  0.00     0.018 A 
HETATM    6  C   UNL     1      24.742  46.418  50.805  1.00  0.00     0.033 A 
HETATM    7  N   UNL     1      27.172  49.036  48.938  1.00  0.00    -0.349 N 
HETATM    8  H   UNL     1      28.181  49.061  48.912  1.00  0.00     0.167 HD
HETATM    9  C   UNL     1      26.312  49.913  48.324  1.00  0.00     0.108 A 
HETATM   10  C   UNL     1      25.008  49.525  48.611  1.00  0.00     0.061 A 
ENDROOT
BRANCH  10  11
HETATM   11  C   UNL     1      23.765  50.159  48.170  1.00  0.00     0.254 C 
HETATM   12  N   UNL     1      22.941  50.620  49.173  1.00  0.00    -0.355 N 
HETATM   13  H   UNL     1      23.204  50.501  50.139  1.00  0.00     0.162 HD
HETATM   14  O   UNL     1      23.472  50.274  46.984  1.00  0.00    -0.268 OA
BRANCH  12  15
HETATM   15  C   UNL     1      21.684  51.285  48.876  1.00  0.00     0.142 C 
BRANCH  15  16
HETATM   16  C   UNL     1      20.610  51.016  49.937  1.00  0.00     0.142 C 
BRANCH  16  17
HETATM   17  N   UNL     1      19.369  51.719  49.663  1.00  0.00    -0.355 N 
HETATM   18  C   UNL     1      18.142  51.091  49.719  1.00  0.00     0.258 C 
HETATM   19  O   UNL     1      18.051  49.900  50.009  1.00  0.00    -0.267 OA
HETATM   20  H   UNL     1      19.407  52.688  49.377  1.00  0.00     0.162 HD
BRANCH  18  21
HETATM   21  C   UNL     1      16.983  51.917  49.408  1.00  0.00     0.072 A 
HETATM   22  S   UNL     1      16.060  51.713  47.977  1.00  0.00    -0.097 SA
HETATM   23  C   UNL     1      14.996  52.985  48.397  1.00  0.00     0.050 A 
HETATM   24  C   UNL     1      15.329  53.559  49.603  1.00  0.00     0.009 A 
HETATM   25  C   UNL     1      16.472  52.942  50.185  1.00  0.00     0.025 A 
ENDBRANCH  18  21
ENDBRANCH  16  17
ENDBRANCH  15  16
ENDBRANCH  12  15
ENDBRANCH  10  11
BRANCH   1  26
HETATM   26  C   UNL     1      26.725  45.142  51.686  1.00  0.00    -0.007 A 
HETATM   27  C   UNL     1      26.655  45.083  53.090  1.00  0.00     0.014 A 
HETATM   28  C   UNL     1      27.216  44.019  53.805  1.00  0.00     0.001 A 
HETATM   29  C   UNL     1      27.866  42.989  53.129  1.00  0.00     0.000 A 
HETATM   30  C   UNL     1      27.960  43.027  51.742  1.00  0.00     0.001 A 
HETATM   31  C   UNL     1      27.397  44.092  51.031  1.00  0.00     0.014 A 
ENDBRANCH   1  26
TORSDOF 6
ENDMDL
MODEL 10
REMARK VINA RESULT:      -7.7      3.289      5.776
REMARK  6 active torsions:
REMARK  status: ('A' for Active; 'I' for Inactive)
REMARK    1  A    between atoms: C_4  and  C_5 
REMARK    2  A    between atoms: C_14  and  C_15 
REMARK       I    between atoms: C_15  and  N_16 
REMARK    3  A    between atoms: N_16  and  C_17 
REMARK    4  A    between atoms: C_17  and  C_18 
REMARK    5  A    between atoms: C_18  and  N_19 
REMARK       I    between atoms: N_19  and  C_20 
REMARK    6  A    between atoms: C_20  and  C_21 
ROOT
HETATM    1  C   UNL     1      27.797  44.242  53.366  1.00  0.00     0.069 A 
HETATM    2  N   UNL     1      27.243  45.448  53.074  1.00  0.00    -0.230 NA
HETATM    3  C   UNL     1      26.275  45.401  52.144  1.00  0.00     0.139 A 
HETATM    4  C   UNL     1      25.798  44.289  51.465  1.00  0.00     0.027 A 
HETATM    5  C   UNL     1      26.394  43.058  51.779  1.00  0.00     0.018 A 
HETATM    6  C   UNL     1      27.408  43.051  52.742  1.00  0.00     0.033 A 
HETATM    7  N   UNL     1      25.581  46.491  51.704  1.00  0.00    -0.349 N 
HETATM    8  H   UNL     1      25.741  47.425  52.051  1.00  0.00     0.167 HD
HETATM    9  C   UNL     1      24.670  46.112  50.751  1.00  0.00     0.108 A 
HETATM   10  C   UNL     1      24.771  44.737  50.565  1.00  0.00     0.061 A 
ENDROOT
BRANCH  10  11
HETATM   11  C   UNL     1      24.000  43.896  49.650  1.00  0.00     0.254 C 
HETATM   12  N   UNL     1      24.720  43.296  48.640  1.00  0.00    -0.355 N 
HETATM   13  H   UNL     1      25.712  43.458  48.560  1.00  0.00     0.162 HD
HETATM   14  O   UNL     1      22.790  43.733  49.770  1.00  0.00    -0.268 OA
BRANCH  12  15
HETATM   15  C   UNL     1      24.083  42.422  47.671  1.00  0.00     0.142 C 
BRANCH  15  16
HETATM   16  C   UNL     1      23.964  40.977  48.171  1.00  0.00     0.142 C 
BRANCH  16  17
HETATM   17  N   UNL     1      25.230  40.446  48.645  1.00  0.00    -0.355 N 
HETATM   18  C   UNL     1      25.955  39.522  47.922  1.00  0.00     0.258 C 
HETATM   19  O   UNL     1      25.554  39.109  46.836  1.00  0.00    -0.267 OA
HETATM   20  H   UNL     1      25.570  40.727  49.555  1.00  0.00     0.162 HD
BRANCH  18  21
HETATM   21  C   UNL     1      27.201  39.068  48.526  1.00  0.00     0.072 A 
HETATM   22  S   UNL     1      28.313  38.057  47.701  1.00  0.00    -0.097 SA
HETATM   23  C   UNL     1      29.385  38.029  49.033  1.00  0.00     0.050 A 
HETATM   24  C   UNL     1      28.914  38.774  50.091  1.00  0.00     0.009 A 
HETATM   25  C   UNL     1      27.657  39.374  49.797  1.00  0.00     0.025 A 
ENDBRANCH  18  21
ENDBRANCH  16  17
ENDBRANCH  15  16
ENDBRANCH  12  15
ENDBRANCH  10  11
BRANCH   1  26
HETATM   26  C   UNL     1      28.868  44.274  54.389  1.00  0.00    -0.007 A 
HETATM   27  C   UNL     1      29.774  43.211  54.558  1.00  0.00     0.014 A 
HETATM   28  C   UNL     1      30.786  43.262  55.522  1.00  0.00     0.001 A 
HETATM   29  C   UNL     1      30.912  44.378  56.345  1.00  0.00     0.000 A 
HETATM   30  C   UNL     1      30.023  45.439  56.208  1.00  0.00     0.001 A 
HETATM   31  C   UNL     1      29.013  45.385  55.242  1.00  0.00     0.014 A 
ENDBRANCH   1  26
TORSDOF 6
ENDMDL
