MODEL 1
REMARK VINA RESULT:      -9.4      0.000      0.000
REMARK  7 active torsions:
REMARK  status: ('A' for Active; 'I' for Inactive)
REMARK    1  A    between atoms: C_3  and  O_4 
REMARK    2  A    between atoms: O_4  and  C_5 
REMARK    3  A    between atoms: C_5  and  C_6 
REMARK       I    between atoms: C_6  and  N_7 
REMARK    4  A    between atoms: N_7  and  C_8 
REMARK    5  A    between atoms: C_9  and  C_10 
REMARK       I    between atoms: C_10  and  N_11 
REMARK    6  A    between atoms: N_11  and  C_12 
REMARK    7  A    between atoms: C_12  and  C_13 
ROOT
HETATM    1  C   UNL     1      25.711  47.977  49.810  1.00  0.00     0.050 A 
HETATM    2  C   UNL     1      24.707  48.663  49.089  1.00  0.00     0.058 A 
HETATM    3  C   UNL     1      25.060  49.724  48.232  1.00  0.00     0.019 A 
HETATM    4  C   UNL     1      26.387  50.135  48.122  1.00  0.00     0.001 A 
HETATM    5  C   UNL     1      27.371  49.486  48.858  1.00  0.00     0.002 A 
HETATM    6  C   UNL     1      27.037  48.414  49.689  1.00  0.00     0.030 A 
ENDROOT
BRANCH   1   7
HETATM    7  N   UNL     1      25.366  46.841  50.587  1.00  0.00    -0.324 N 
HETATM    8  C   UNL     1      25.311  46.748  51.966  1.00  0.00     0.246 C 
HETATM    9  O   UNL     1      25.345  47.701  52.742  1.00  0.00    -0.271 OA
HETATM   10  H   UNL     1      25.137  46.007  50.040  1.00  0.00     0.169 HD
BRANCH   8  11
HETATM   11  C   UNL     1      25.198  45.310  52.477  1.00  0.00     0.278 C 
BRANCH  11  12
HETATM   12  O   UNL     1      25.745  45.300  53.791  1.00  0.00    -0.342 OA
BRANCH  12  13
HETATM   13  C   UNL     1      26.890  44.589  54.014  1.00  0.00     0.075 A 
HETATM   14  C   UNL     1      27.938  45.302  54.627  1.00  0.00    -0.029 A 
HETATM   15  C   UNL     1      27.763  46.736  55.048  1.00  0.00     0.051 C 
HETATM   16  C   UNL     1      29.144  44.645  54.913  1.00  0.00     0.009 A 
HETATM   17  C   UNL     1      29.320  43.307  54.568  1.00  0.00     0.001 A 
HETATM   18  C   UNL     1      28.291  42.612  53.939  1.00  0.00     0.003 A 
HETATM   19  C   UNL     1      27.078  43.249  53.662  1.00  0.00     0.037 A 
ENDBRANCH  12  13
ENDBRANCH  11  12
ENDBRANCH   8  11
ENDBRANCH   1   7
BRANCH   2  20
HETATM   20  C   UNL     1      23.269  48.274  49.231  1.00  0.00     0.254 C 
HETATM   21  N   UNL     1      22.378  49.295  49.463  1.00  0.00    -0.351 N 
HETATM   22  H   UNL     1      22.687  50.252  49.568  1.00  0.00     0.163 HD
HETATM   23  O   UNL     1      22.935  47.092  49.185  1.00  0.00    -0.268 OA
BRANCH  21  24
HETATM   24  C   UNL     1      20.956  49.064  49.566  1.00  0.00     0.187 C 
BRANCH  24  25
HETATM   25  C   UNL     1      20.245  50.341  49.303  1.00  0.00     0.070 A 
HETATM   26  O   UNL     1      19.206  50.653  50.137  1.00  0.00    -0.325 OA
HETATM   27  C   UNL     1      18.699  51.839  49.712  1.00  0.00     0.142 A 
HETATM   28  C   UNL     1      19.393  52.296  48.618  1.00  0.00     0.027 A 
HETATM   29  C   UNL     1      20.393  51.330  48.352  1.00  0.00     0.036 A 
ENDBRANCH  24  25
ENDBRANCH  21  24
ENDBRANCH   2  20
TORSDOF 7
ENDMDL
MODEL 2
REMARK VINA RESULT:      -9.0      3.374      5.608
REMARK  7 active torsions:
REMARK  status: ('A' for Active; 'I' for Inactive)
REMARK    1  A    between atoms: C_3  and  O_4 
REMARK    2  A    between atoms: O_4  and  C_5 
REMARK    3  A    between atoms: C_5  and  C_6 
REMARK       I    between atoms: C_6  and  N_7 
REMARK    4  A    between atoms: N_7  and  C_8 
REMARK    5  A    between atoms: C_9  and  C_10 
REMARK       I    between atoms: C_10  and  N_11 
REMARK    6  A    between atoms: N_11  and  C_12 
REMARK    7  A    between atoms: C_12  and  C_13 
ROOT
HETATM    1  C   UNL     1      25.945  42.320  51.221  1.00  0.00     0.050 A 
HETATM    2  C   UNL     1      25.028  43.169  50.560  1.00  0.00     0.058 A 
HETATM    3  C   UNL     1      24.391  42.731  49.383  1.00  0.00     0.019 A 
HETATM    4  C   UNL     1      24.691  41.484  48.837  1.00  0.00     0.001 A 
HETATM    5  C   UNL     1      25.619  40.663  49.465  1.00  0.00     0.002 A 
HETATM    6  C   UNL     1      26.236  41.075  50.649  1.00  0.00     0.030 A 
ENDROOT
BRANCH   1   7
HETATM    7  N   UNL     1      26.502  42.720  52.464  1.00  0.00    -0.324 N 
HETATM    8  C   UNL     1      27.745  43.284  52.688  1.00  0.00     0.246 C 
HETATM    9  O   UNL     1      28.488  43.730  51.816  1.00  0.00    -0.271 OA
HETATM   10  H   UNL     1      25.895  42.561  53.271  1.00  0.00     0.169 HD
BRANCH   8  11
HETATM   11  C   UNL     1      28.144  43.316  54.165  1.00  0.00     0.278 C 
BRANCH  11  12
HETATM   12  O   UNL     1      29.230  44.229  54.275  1.00  0.00    -0.342 OA
BRANCH  12  13
HETATM   13  C   UNL     1      29.949  44.250  55.436  1.00  0.00     0.075 A 
HETATM   14  C   UNL     1      29.718  45.357  56.274  1.00  0.00    -0.029 A 
HETATM   15  C   UNL     1      28.702  46.407  55.916  1.00  0.00     0.051 C 
HETATM   16  C   UNL     1      30.398  45.449  57.498  1.00  0.00     0.009 A 
HETATM   17  C   UNL     1      31.317  44.472  57.872  1.00  0.00     0.001 A 
HETATM   18  C   UNL     1      31.561  43.391  57.029  1.00  0.00     0.003 A 
HETATM   19  C   UNL     1      30.880  43.278  55.815  1.00  0.00     0.037 A 
ENDBRANCH  12  13
ENDBRANCH  11  12
ENDBRANCH   8  11
ENDBRANCH   1   7
BRANCH   2  20
HETATM   20  C   UNL     1      24.730  44.532  51.098  1.00  0.00     0.254 C 
HETATM   21  N   UNL     1      24.947  45.589  50.246  1.00  0.00    -0.351 N 
HETATM   22  H   UNL     1      25.324  45.450  49.318  1.00  0.00     0.163 HD
HETATM   23  O   UNL     1      24.356  44.677  52.260  1.00  0.00    -0.268 OA
BRANCH  21  24
HETATM   24  C   UNL     1      24.649  46.952  50.621  1.00  0.00     0.187 C 
BRANCH  24  25
HETATM   25  C   UNL     1      25.565  47.860  49.885  1.00  0.00     0.070 A 
HETATM   26  O   UNL     1      24.999  48.942  49.267  1.00  0.00    -0.325 OA
HETATM   27  C   UNL     1      26.002  49.618  48.652  1.00  0.00     0.142 A 
HETATM   28  C   UNL     1      27.207  48.990  48.862  1.00  0.00     0.027 A 
HETATM   29  C   UNL     1      26.927  47.854  49.659  1.00  0.00     0.036 A 
ENDBRANCH  24  25
ENDBRANCH  21  24
ENDBRANCH   2  20
TORSDOF 7
ENDMDL
MODEL 3
REMARK VINA RESULT:      -8.9      1.321      8.761
REMARK  7 active torsions:
REMARK  status: ('A' for Active; 'I' for Inactive)
REMARK    1  A    between atoms: C_3  and  O_4 
REMARK    2  A    between atoms: O_4  and  C_5 
REMARK    3  A    between atoms: C_5  and  C_6 
REMARK       I    between atoms: C_6  and  N_7 
REMARK    4  A    between atoms: N_7  and  C_8 
REMARK    5  A    between atoms: C_9  and  C_10 
REMARK       I    between atoms: C_10  and  N_11 
REMARK    6  A    between atoms: N_11  and  C_12 
REMARK    7  A    between atoms: C_12  and  C_13 
ROOT
HETATM    1  C   UNL     1      24.447  48.656  49.188  1.00  0.00     0.050 A 
HETATM    2  C   UNL     1      25.430  47.866  49.829  1.00  0.00     0.058 A 
HETATM    3  C   UNL     1      26.794  48.172  49.659  1.00  0.00     0.019 A 
HETATM    4  C   UNL     1      27.188  49.218  48.828  1.00  0.00     0.001 A 
HETATM    5  C   UNL     1      26.226  49.973  48.168  1.00  0.00     0.002 A 
HETATM    6  C   UNL     1      24.868  49.697  48.352  1.00  0.00     0.030 A 
ENDROOT
BRANCH   1   7
HETATM    7  N   UNL     1      23.073  48.414  49.448  1.00  0.00    -0.324 N 
HETATM    8  C   UNL     1      22.102  48.014  48.546  1.00  0.00     0.246 C 
HETATM    9  O   UNL     1      22.320  47.594  47.412  1.00  0.00    -0.271 OA
HETATM   10  H   UNL     1      22.793  48.560  50.421  1.00  0.00     0.169 HD
BRANCH   8  11
HETATM   11  C   UNL     1      20.678  48.135  49.089  1.00  0.00     0.278 C 
BRANCH  11  12
HETATM   12  O   UNL     1      20.650  49.300  49.907  1.00  0.00    -0.342 OA
BRANCH  12  13
HETATM   13  C   UNL     1      19.714  50.259  49.643  1.00  0.00     0.075 A 
HETATM   14  C   UNL     1      20.164  51.354  48.882  1.00  0.00    -0.029 A 
HETATM   15  C   UNL     1      21.574  51.414  48.361  1.00  0.00     0.051 C 
HETATM   16  C   UNL     1      19.264  52.377  48.546  1.00  0.00     0.009 A 
HETATM   17  C   UNL     1      17.943  52.329  48.984  1.00  0.00     0.001 A 
HETATM   18  C   UNL     1      17.508  51.256  49.758  1.00  0.00     0.003 A 
HETATM   19  C   UNL     1      18.389  50.223  50.088  1.00  0.00     0.037 A 
ENDBRANCH  12  13
ENDBRANCH  11  12
ENDBRANCH   8  11
ENDBRANCH   1   7
BRANCH   2  20
HETATM   20  C   UNL     1      25.033  46.705  50.684  1.00  0.00     0.254 C 
HETATM   21  N   UNL     1      25.690  46.573  51.884  1.00  0.00    -0.351 N 
HETATM   22  H   UNL     1      26.429  47.209  52.154  1.00  0.00     0.163 HD
HETATM   23  O   UNL     1      24.192  45.898  50.291  1.00  0.00    -0.268 OA
BRANCH  21  24
HETATM   24  C   UNL     1      25.365  45.529  52.827  1.00  0.00     0.187 C 
BRANCH  24  25
HETATM   25  C   UNL     1      26.628  44.947  53.348  1.00  0.00     0.070 A 
HETATM   26  O   UNL     1      27.440  44.320  52.443  1.00  0.00    -0.325 OA
HETATM   27  C   UNL     1      28.517  43.858  53.128  1.00  0.00     0.142 A 
HETATM   28  C   UNL     1      28.412  44.176  54.462  1.00  0.00     0.027 A 
HETATM   29  C   UNL     1      27.193  44.880  54.606  1.00  0.00     0.036 A 
ENDBRANCH  24  25
ENDBRANCH  21  24
ENDBRANCH   2  20
TORSDOF 7
ENDMDL
MODEL 4
REMARK VINA RESULT:      -8.9      3.167      9.633
REMARK  7 active torsions:
REMARK  status: ('A' for Active; 'I' for Inactive)
REMARK    1  A    between atoms: C_3  and  O_4 
REMARK    2  A    between atoms: O_4  and  C_5 
REMARK    3  A    between atoms: C_5  and  C_6 
REMARK       I    between atoms: C_6  and  N_7 
REMARK    4  A    between atoms: N_7  and  C_8 
REMARK    5  A    between atoms: C_9  and  C_10 
REMARK       I    between atoms: C_10  and  N_11 
REMARK    6  A    between atoms: N_11  and  C_12 
REMARK    7  A    between atoms: C_12  and  C_13 
ROOT
HETATM    1  C   UNL     1      27.081  42.626  51.665  1.00  0.00     0.050 A 
HETATM    2  C   UNL     1      27.933  42.453  52.781  1.00  0.00     0.058 A 
HETATM    3  C   UNL     1      28.775  41.327  52.851  1.00  0.00     0.019 A 
HETATM    4  C   UNL     1      28.745  40.356  51.853  1.00  0.00     0.001 A 
HETATM    5  C   UNL     1      27.883  40.505  50.773  1.00  0.00     0.002 A 
HETATM    6  C   UNL     1      27.064  41.633  50.678  1.00  0.00     0.030 A 
ENDROOT
BRANCH   1   7
HETATM    7  N   UNL     1      26.315  43.815  51.544  1.00  0.00    -0.324 N 
HETATM    8  C   UNL     1      26.564  44.898  50.719  1.00  0.00     0.246 C 
HETATM    9  O   UNL     1      27.376  44.912  49.796  1.00  0.00    -0.271 OA
HETATM   10  H   UNL     1      25.491  43.851  52.148  1.00  0.00     0.169 HD
BRANCH   8  11
HETATM   11  C   UNL     1      25.716  46.127  51.052  1.00  0.00     0.278 C 
BRANCH  11  12
HETATM   12  O   UNL     1      26.367  47.244  50.459  1.00  0.00    -0.342 OA
BRANCH  12  13
HETATM   13  C   UNL     1      25.632  48.082  49.668  1.00  0.00     0.075 A 
HETATM   14  C   UNL     1      26.364  49.074  48.990  1.00  0.00    -0.029 A 
HETATM   15  C   UNL     1      27.862  49.152  49.103  1.00  0.00     0.051 C 
HETATM   16  C   UNL     1      25.693  49.965  48.138  1.00  0.00     0.009 A 
HETATM   17  C   UNL     1      24.311  49.892  47.986  1.00  0.00     0.001 A 
HETATM   18  C   UNL     1      23.587  48.925  48.678  1.00  0.00     0.003 A 
HETATM   19  C   UNL     1      24.244  48.021  49.517  1.00  0.00     0.037 A 
ENDBRANCH  12  13
ENDBRANCH  11  12
ENDBRANCH   8  11
ENDBRANCH   1   7
BRANCH   2  20
HETATM   20  C   UNL     1      27.943  43.455  53.891  1.00  0.00     0.254 C 
HETATM   21  N   UNL     1      29.146  44.065  54.155  1.00  0.00    -0.351 N 
HETATM   22  H   UNL     1      29.986  43.818  53.649  1.00  0.00     0.163 HD
HETATM   23  O   UNL     1      26.926  43.671  54.548  1.00  0.00    -0.268 OA
BRANCH  21  24
HETATM   24  C   UNL     1      29.283  45.090  55.164  1.00  0.00     0.187 C 
BRANCH  24  25
HETATM   25  C   UNL     1      30.248  44.623  56.191  1.00  0.00     0.070 A 
HETATM   26  O   UNL     1      30.290  45.325  57.365  1.00  0.00    -0.325 OA
HETATM   27  C   UNL     1      31.237  44.742  58.144  1.00  0.00     0.142 A 
HETATM   28  C   UNL     1      31.807  43.675  57.491  1.00  0.00     0.027 A 
HETATM   29  C   UNL     1      31.170  43.596  56.230  1.00  0.00     0.036 A 
ENDBRANCH  24  25
ENDBRANCH  21  24
ENDBRANCH   2  20
TORSDOF 7
ENDMDL
MODEL 5
REMARK VINA RESULT:      -8.5      4.402      7.923
REMARK  7 active torsions:
REMARK  status: ('A' for Active; 'I' for Inactive)
REMARK    1  A    between atoms: C_3  and  O_4 
REMARK    2  A    between atoms: O_4  and  C_5 
REMARK    3  A    between atoms: C_5  and  C_6 
REMARK       I    between atoms: C_6  and  N_7 
REMARK    4  A    between atoms: N_7  and  C_8 
REMARK    5  A    between atoms: C_9  and  C_10 
REMARK       I    between atoms: C_10  and  N_11 
REMARK    6  A    between atoms: N_11  and  C_12 
REMARK    7  A    between atoms: C_12  and  C_13 
ROOT
HETATM    1  C   UNL     1      26.501  45.745  52.182  1.00  0.00     0.050 A 
HETATM    2  C   UNL     1      26.414  44.516  51.489  1.00  0.00     0.058 A 
HETATM    3  C   UNL     1      25.761  44.459  50.243  1.00  0.00     0.019 A 
HETATM    4  C   UNL     1      25.160  45.595  49.705  1.00  0.00     0.001 A 
HETATM    5  C   UNL     1      25.212  46.796  50.402  1.00  0.00     0.002 A 
HETATM    6  C   UNL     1      25.882  46.872  51.625  1.00  0.00     0.030 A 
ENDROOT
BRANCH   1   7
HETATM    7  N   UNL     1      27.253  45.822  53.384  1.00  0.00    -0.324 N 
HETATM    8  C   UNL     1      26.896  46.452  54.563  1.00  0.00     0.246 C 
HETATM    9  O   UNL     1      25.770  46.867  54.830  1.00  0.00    -0.271 OA
HETATM   10  H   UNL     1      28.160  45.351  53.348  1.00  0.00     0.169 HD
BRANCH   8  11
HETATM   11  C   UNL     1      28.053  46.599  55.552  1.00  0.00     0.278 C 
BRANCH  11  12
HETATM   12  O   UNL     1      29.095  45.746  55.091  1.00  0.00    -0.342 OA
BRANCH  12  13
HETATM   13  C   UNL     1      29.920  45.168  56.014  1.00  0.00     0.075 A 
HETATM   14  C   UNL     1      30.490  43.939  55.634  1.00  0.00    -0.029 A 
HETATM   15  C   UNL     1      30.235  43.349  54.274  1.00  0.00     0.051 C 
HETATM   16  C   UNL     1      31.368  43.285  56.512  1.00  0.00     0.009 A 
HETATM   17  C   UNL     1      31.652  43.828  57.763  1.00  0.00     0.001 A 
HETATM   18  C   UNL     1      31.066  45.031  58.145  1.00  0.00     0.003 A 
HETATM   19  C   UNL     1      30.202  45.702  57.275  1.00  0.00     0.037 A 
ENDBRANCH  12  13
ENDBRANCH  11  12
ENDBRANCH   8  11
ENDBRANCH   1   7
BRANCH   2  20
HETATM   20  C   UNL     1      27.006  43.271  52.071  1.00  0.00     0.254 C 
HETATM   21  N   UNL     1      27.663  42.438  51.198  1.00  0.00    -0.351 N 
HETATM   22  H   UNL     1      27.708  42.640  50.208  1.00  0.00     0.163 HD
HETATM   23  O   UNL     1      26.860  43.009  53.263  1.00  0.00    -0.268 OA
BRANCH  21  24
HETATM   24  C   UNL     1      28.326  41.232  51.638  1.00  0.00     0.187 C 
BRANCH  24  25
HETATM   25  C   UNL     1      28.060  40.155  50.652  1.00  0.00     0.070 A 
HETATM   26  O   UNL     1      28.972  39.136  50.587  1.00  0.00    -0.325 OA
HETATM   27  C   UNL     1      28.544  38.280  49.624  1.00  0.00     0.142 A 
HETATM   28  C   UNL     1      27.372  38.731  49.065  1.00  0.00     0.027 A 
HETATM   29  C   UNL     1      27.057  39.941  49.728  1.00  0.00     0.036 A 
ENDBRANCH  24  25
ENDBRANCH  21  24
ENDBRANCH   2  20
TORSDOF 7
ENDMDL
MODEL 6
REMARK VINA RESULT:      -8.4      4.101      7.688
REMARK  7 active torsions:
REMARK  status: ('A' for Active; 'I' for Inactive)
REMARK    1  A    between atoms: C_3  and  O_4 
REMARK    2  A    between atoms: O_4  and  C_5 
REMARK    3  A    between atoms: C_5  and  C_6 
REMARK       I    between atoms: C_6  and  N_7 
REMARK    4  A    between atoms: N_7  and  C_8 
REMARK    5  A    between atoms: C_9  and  C_10 
REMARK       I    between atoms: C_10  and  N_11 
REMARK    6  A    between atoms: N_11  and  C_12 
REMARK    7  A    between atoms: C_12  and  C_13 
ROOT
HETATM    1  C   UNL     1      29.050  43.638  54.079  1.00  0.00     0.050 A 
HETATM    2  C   UNL     1      28.442  44.741  54.722  1.00  0.00     0.058 A 
HETATM    3  C   UNL     1      29.118  45.406  55.763  1.00  0.00     0.019 A 
HETATM    4  C   UNL     1      30.363  44.958  56.198  1.00  0.00     0.001 A 
HETATM    5  C   UNL     1      30.947  43.852  55.594  1.00  0.00     0.002 A 
HETATM    6  C   UNL     1      30.299  43.202  54.540  1.00  0.00     0.030 A 
ENDROOT
BRANCH   1   7
HETATM    7  N   UNL     1      28.415  43.039  52.960  1.00  0.00    -0.324 N 
HETATM    8  C   UNL     1      27.949  41.740  52.850  1.00  0.00     0.246 C 
HETATM    9  O   UNL     1      27.817  40.954  53.786  1.00  0.00    -0.271 OA
HETATM   10  H   UNL     1      28.302  43.659  52.155  1.00  0.00     0.169 HD
BRANCH   8  11
HETATM   11  C   UNL     1      27.594  41.339  51.417  1.00  0.00     0.278 C 
BRANCH  11  12
HETATM   12  O   UNL     1      28.630  40.473  50.967  1.00  0.00    -0.342 OA
BRANCH  12  13
HETATM   13  C   UNL     1      28.504  39.891  49.737  1.00  0.00     0.075 A 
HETATM   14  C   UNL     1      29.126  38.638  49.592  1.00  0.00    -0.029 A 
HETATM   15  C   UNL     1      29.831  37.979  50.747  1.00  0.00     0.051 C 
HETATM   16  C   UNL     1      29.030  37.958  48.369  1.00  0.00     0.009 A 
HETATM   17  C   UNL     1      28.352  38.527  47.294  1.00  0.00     0.001 A 
HETATM   18  C   UNL     1      27.758  39.779  47.434  1.00  0.00     0.003 A 
HETATM   19  C   UNL     1      27.833  40.461  48.651  1.00  0.00     0.037 A 
ENDBRANCH  12  13
ENDBRANCH  11  12
ENDBRANCH   8  11
ENDBRANCH   1   7
BRANCH   2  20
HETATM   20  C   UNL     1      27.082  45.206  54.307  1.00  0.00     0.254 C 
HETATM   21  N   UNL     1      26.981  46.513  53.894  1.00  0.00    -0.351 N 
HETATM   22  H   UNL     1      27.778  47.135  53.907  1.00  0.00     0.163 HD
HETATM   23  O   UNL     1      26.113  44.453  54.384  1.00  0.00    -0.268 OA
BRANCH  21  24
HETATM   24  C   UNL     1      25.738  47.074  53.416  1.00  0.00     0.187 C 
BRANCH  24  25
HETATM   25  C   UNL     1      25.648  46.854  51.950  1.00  0.00     0.070 A 
HETATM   26  O   UNL     1      26.204  47.811  51.146  1.00  0.00    -0.325 OA
HETATM   27  C   UNL     1      25.998  47.420  49.862  1.00  0.00     0.142 A 
HETATM   28  C   UNL     1      25.317  46.227  49.825  1.00  0.00     0.027 A 
HETATM   29  C   UNL     1      25.090  45.859  51.173  1.00  0.00     0.036 A 
ENDBRANCH  24  25
ENDBRANCH  21  24
ENDBRANCH   2  20
TORSDOF 7
ENDMDL
MODEL 7
REMARK VINA RESULT:      -8.2      3.645      6.584
REMARK  7 active torsions:
REMARK  status: ('A' for Active; 'I' for Inactive)
REMARK    1  A    between atoms: C_3  and  O_4 
REMARK    2  A    between atoms: O_4  and  C_5 
REMARK    3  A    between atoms: C_5  and  C_6 
REMARK       I    between atoms: C_6  and  N_7 
REMARK    4  A    between atoms: N_7  and  C_8 
REMARK    5  A    between atoms: C_9  and  C_10 
REMARK       I    between atoms: C_10  and  N_11 
REMARK    6  A    between atoms: N_11  and  C_12 
REMARK    7  A    between atoms: C_12  and  C_13 
ROOT
HETATM    1  C   UNL     1      24.962  45.811  50.660  1.00  0.00     0.050 A 
HETATM    2  C   UNL     1      24.032  45.049  49.915  1.00  0.00     0.058 A 
HETATM    3  C   UNL     1      23.099  45.698  49.085  1.00  0.00     0.019 A 
HETATM    4  C   UNL     1      23.051  47.089  49.025  1.00  0.00     0.001 A 
HETATM    5  C   UNL     1      23.939  47.842  49.784  1.00  0.00     0.002 A 
HETATM    6  C   UNL     1      24.889  47.208  50.588  1.00  0.00     0.030 A 
ENDROOT
BRANCH   1   7
HETATM    7  N   UNL     1      25.971  45.151  51.409  1.00  0.00    -0.324 N 
HETATM    8  C   UNL     1      27.134  44.575  50.931  1.00  0.00     0.246 C 
HETATM    9  O   UNL     1      27.588  44.729  49.799  1.00  0.00    -0.271 OA
HETATM   10  H   UNL     1      25.793  45.110  52.415  1.00  0.00     0.169 HD
BRANCH   8  11
HETATM   11  C   UNL     1      27.846  43.695  51.960  1.00  0.00     0.278 C 
BRANCH  11  12
HETATM   12  O   UNL     1      27.627  44.294  53.232  1.00  0.00    -0.342 OA
BRANCH  12  13
HETATM   13  C   UNL     1      28.644  44.275  54.144  1.00  0.00     0.075 A 
HETATM   14  C   UNL     1      28.774  45.434  54.932  1.00  0.00    -0.029 A 
HETATM   15  C   UNL     1      27.811  46.582  54.795  1.00  0.00     0.051 C 
HETATM   16  C   UNL     1      29.778  45.494  55.910  1.00  0.00     0.009 A 
HETATM   17  C   UNL     1      30.661  44.431  56.084  1.00  0.00     0.001 A 
HETATM   18  C   UNL     1      30.544  43.296  55.286  1.00  0.00     0.003 A 
HETATM   19  C   UNL     1      29.539  43.216  54.318  1.00  0.00     0.037 A 
ENDBRANCH  12  13
ENDBRANCH  11  12
ENDBRANCH   8  11
ENDBRANCH   1   7
BRANCH   2  20
HETATM   20  C   UNL     1      24.030  43.555  50.004  1.00  0.00     0.254 C 
HETATM   21  N   UNL     1      24.399  42.873  48.870  1.00  0.00    -0.351 N 
HETATM   22  H   UNL     1      24.624  43.357  48.011  1.00  0.00     0.163 HD
HETATM   23  O   UNL     1      23.668  42.992  51.035  1.00  0.00    -0.268 OA
BRANCH  21  24
HETATM   24  C   UNL     1      24.492  41.431  48.836  1.00  0.00     0.187 C 
BRANCH  24  25
HETATM   25  C   UNL     1      25.895  41.037  49.119  1.00  0.00     0.070 A 
HETATM   26  O   UNL     1      26.098  40.183  50.170  1.00  0.00    -0.325 OA
HETATM   27  C   UNL     1      27.436  39.969  50.255  1.00  0.00     0.142 A 
HETATM   28  C   UNL     1      28.099  40.672  49.278  1.00  0.00     0.027 A 
HETATM   29  C   UNL     1      27.106  41.362  48.542  1.00  0.00     0.036 A 
ENDBRANCH  24  25
ENDBRANCH  21  24
ENDBRANCH   2  20
TORSDOF 7
ENDMDL
MODEL 8
REMARK VINA RESULT:      -8.1      5.503      7.526
REMARK  7 active torsions:
REMARK  status: ('A' for Active; 'I' for Inactive)
REMARK    1  A    between atoms: C_3  and  O_4 
REMARK    2  A    between atoms: O_4  and  C_5 
REMARK    3  A    between atoms: C_5  and  C_6 
REMARK       I    between atoms: C_6  and  N_7 
REMARK    4  A    between atoms: N_7  and  C_8 
REMARK    5  A    between atoms: C_9  and  C_10 
REMARK       I    between atoms: C_10  and  N_11 
REMARK    6  A    between atoms: N_11  and  C_12 
REMARK    7  A    between atoms: C_12  and  C_13 
ROOT
HETATM    1  C   UNL     1      28.354  40.790  51.425  1.00  0.00     0.050 A 
HETATM    2  C   UNL     1      27.582  41.209  50.316  1.00  0.00     0.058 A 
HETATM    3  C   UNL     1      27.544  40.420  49.151  1.00  0.00     0.019 A 
HETATM    4  C   UNL     1      28.296  39.250  49.062  1.00  0.00     0.001 A 
HETATM    5  C   UNL     1      29.084  38.855  50.136  1.00  0.00     0.002 A 
HETATM    6  C   UNL     1      29.107  39.615  51.308  1.00  0.00     0.030 A 
ENDROOT
BRANCH   1   7
HETATM    7  N   UNL     1      28.304  41.530  52.635  1.00  0.00    -0.324 N 
HETATM    8  C   UNL     1      29.196  42.494  53.071  1.00  0.00     0.246 C 
HETATM    9  O   UNL     1      30.064  43.020  52.377  1.00  0.00    -0.271 OA
HETATM   10  H   UNL     1      27.508  41.306  53.236  1.00  0.00     0.169 HD
BRANCH   8  11
HETATM   11  C   UNL     1      29.014  42.874  54.541  1.00  0.00     0.278 C 
BRANCH  11  12
HETATM   12  O   UNL     1      30.237  43.466  54.964  1.00  0.00    -0.342 OA
BRANCH  12  13
HETATM   13  C   UNL     1      30.208  44.341  56.013  1.00  0.00     0.075 A 
HETATM   14  C   UNL     1      31.097  44.056  57.066  1.00  0.00    -0.029 A 
HETATM   15  C   UNL     1      32.044  42.889  56.992  1.00  0.00     0.051 C 
HETATM   16  C   UNL     1      31.151  44.914  58.175  1.00  0.00     0.009 A 
HETATM   17  C   UNL     1      30.312  46.023  58.253  1.00  0.00     0.001 A 
HETATM   18  C   UNL     1      29.416  46.287  57.220  1.00  0.00     0.003 A 
HETATM   19  C   UNL     1      29.362  45.450  56.103  1.00  0.00     0.037 A 
ENDBRANCH  12  13
ENDBRANCH  11  12
ENDBRANCH   8  11
ENDBRANCH   1   7
BRANCH   2  20
HETATM   20  C   UNL     1      26.808  42.488  50.369  1.00  0.00     0.254 C 
HETATM   21  N   UNL     1      25.655  42.476  51.116  1.00  0.00    -0.351 N 
HETATM   22  H   UNL     1      25.330  41.635  51.574  1.00  0.00     0.163 HD
HETATM   23  O   UNL     1      27.181  43.471  49.731  1.00  0.00    -0.268 OA
BRANCH  21  24
HETATM   24  C   UNL     1      24.843  43.658  51.295  1.00  0.00     0.187 C 
BRANCH  24  25
HETATM   25  C   UNL     1      25.387  44.443  52.432  1.00  0.00     0.070 A 
HETATM   26  O   UNL     1      25.907  45.675  52.140  1.00  0.00    -0.325 OA
HETATM   27  C   UNL     1      26.353  46.204  53.308  1.00  0.00     0.142 A 
HETATM   28  C   UNL     1      26.131  45.333  54.348  1.00  0.00     0.027 A 
HETATM   29  C   UNL     1      25.506  44.195  53.785  1.00  0.00     0.036 A 
ENDBRANCH  24  25
ENDBRANCH  21  24
ENDBRANCH   2  20
TORSDOF 7
ENDMDL
MODEL 9
REMARK VINA RESULT:      -8.1      5.346      7.656
REMARK  7 active torsions:
REMARK  status: ('A' for Active; 'I' for Inactive)
REMARK    1  A    between atoms: C_3  and  O_4 
REMARK    2  A    between atoms: O_4  and  C_5 
REMARK    3  A    between atoms: C_5  and  C_6 
REMARK       I    between atoms: C_6  and  N_7 
REMARK    4  A    between atoms: N_7  and  C_8 
REMARK    5  A    between atoms: C_9  and  C_10 
REMARK       I    between atoms: C_10  and  N_11 
REMARK    6  A    between atoms: N_11  and  C_12 
REMARK    7  A    between atoms: C_12  and  C_13 
ROOT
HETATM    1  C   UNL     1      28.499  39.906  50.397  1.00  0.00     0.050 A 
HETATM    2  C   UNL     1      27.402  39.910  49.505  1.00  0.00     0.058 A 
HETATM    3  C   UNL     1      26.911  38.694  48.992  1.00  0.00     0.019 A 
HETATM    4  C   UNL     1      27.525  37.488  49.319  1.00  0.00     0.001 A 
HETATM    5  C   UNL     1      28.626  37.483  50.167  1.00  0.00     0.002 A 
HETATM    6  C   UNL     1      29.105  38.681  50.705  1.00  0.00     0.030 A 
ENDROOT
BRANCH   1   7
HETATM    7  N   UNL     1      28.921  41.121  50.997  1.00  0.00    -0.324 N 
HETATM    8  C   UNL     1      28.577  41.609  52.245  1.00  0.00     0.246 C 
HETATM    9  O   UNL     1      28.015  40.963  53.127  1.00  0.00    -0.271 OA
HETATM   10  H   UNL     1      29.551  41.682  50.419  1.00  0.00     0.169 HD
BRANCH   8  11
HETATM   11  C   UNL     1      28.964  43.074  52.455  1.00  0.00     0.278 C 
BRANCH  11  12
HETATM   12  O   UNL     1      28.389  43.474  53.694  1.00  0.00    -0.342 OA
BRANCH  12  13
HETATM   13  C   UNL     1      29.219  43.930  54.680  1.00  0.00     0.075 A 
HETATM   14  C   UNL     1      28.880  45.181  55.228  1.00  0.00    -0.029 A 
HETATM   15  C   UNL     1      27.650  45.922  54.777  1.00  0.00     0.051 C 
HETATM   16  C   UNL     1      29.664  45.717  56.260  1.00  0.00     0.009 A 
HETATM   17  C   UNL     1      30.787  45.035  56.723  1.00  0.00     0.001 A 
HETATM   18  C   UNL     1      31.133  43.809  56.161  1.00  0.00     0.003 A 
HETATM   19  C   UNL     1      30.353  43.256  55.143  1.00  0.00     0.037 A 
ENDBRANCH  12  13
ENDBRANCH  11  12
ENDBRANCH   8  11
ENDBRANCH   1   7
BRANCH   2  20
HETATM   20  C   UNL     1      26.759  41.198  49.097  1.00  0.00     0.254 C 
HETATM   21  N   UNL     1      25.453  41.380  49.481  1.00  0.00    -0.351 N 
HETATM   22  H   UNL     1      24.943  40.662  49.980  1.00  0.00     0.163 HD
HETATM   23  O   UNL     1      27.375  42.015  48.415  1.00  0.00    -0.268 OA
BRANCH  21  24
HETATM   24  C   UNL     1      24.732  42.600  49.200  1.00  0.00     0.187 C 
BRANCH  24  25
HETATM   25  C   UNL     1      24.789  43.475  50.398  1.00  0.00     0.070 A 
HETATM   26  O   UNL     1      25.447  42.983  51.492  1.00  0.00    -0.325 OA
HETATM   27  C   UNL     1      25.367  43.929  52.462  1.00  0.00     0.142 A 
HETATM   28  C   UNL     1      24.668  45.024  52.012  1.00  0.00     0.027 A 
HETATM   29  C   UNL     1      24.294  44.733  50.678  1.00  0.00     0.036 A 
ENDBRANCH  24  25
ENDBRANCH  21  24
ENDBRANCH   2  20
TORSDOF 7
ENDMDL
MODEL 10
REMARK VINA RESULT:      -8.1     11.543     14.622
REMARK  7 active torsions:
REMARK  status: ('A' for Active; 'I' for Inactive)
REMARK    1  A    between atoms: C_3  and  O_4 
REMARK    2  A    between atoms: O_4  and  C_5 
REMARK    3  A    between atoms: C_5  and  C_6 
REMARK       I    between atoms: C_6  and  N_7 
REMARK    4  A    between atoms: N_7  and  C_8 
REMARK    5  A    between atoms: C_9  and  C_10 
REMARK       I    between atoms: C_10  and  N_11 
REMARK    6  A    between atoms: N_11  and  C_12 
REMARK    7  A    between atoms: C_12  and  C_13 
ROOT
HETATM    1  C   UNL     1      35.268  50.814  40.632  1.00  0.00     0.050 A 
HETATM    2  C   UNL     1      35.143  51.098  42.012  1.00  0.00     0.058 A 
HETATM    3  C   UNL     1      36.289  51.399  42.772  1.00  0.00     0.019 A 
HETATM    4  C   UNL     1      37.553  51.376  42.188  1.00  0.00     0.001 A 
HETATM    5  C   UNL     1      37.684  51.061  40.841  1.00  0.00     0.002 A 
HETATM    6  C   UNL     1      36.551  50.789  40.069  1.00  0.00     0.030 A 
ENDROOT
BRANCH   1   7
HETATM    7  N   UNL     1      34.102  50.619  39.846  1.00  0.00    -0.324 N 
HETATM    8  C   UNL     1      33.416  51.566  39.107  1.00  0.00     0.246 C 
HETATM    9  O   UNL     1      33.831  52.691  38.838  1.00  0.00    -0.271 OA
HETATM   10  H   UNL     1      33.749  49.659  39.844  1.00  0.00     0.169 HD
BRANCH   8  11
HETATM   11  C   UNL     1      32.045  51.088  38.626  1.00  0.00     0.278 C 
BRANCH  11  12
HETATM   12  O   UNL     1      31.143  52.172  38.820  1.00  0.00    -0.342 OA
BRANCH  12  13
HETATM   13  C   UNL     1      29.951  51.925  39.441  1.00  0.00     0.075 A 
HETATM   14  C   UNL     1      29.829  52.436  40.746  1.00  0.00    -0.029 A 
HETATM   15  C   UNL     1      30.932  53.245  41.373  1.00  0.00     0.051 C 
HETATM   16  C   UNL     1      28.631  52.248  41.451  1.00  0.00     0.009 A 
HETATM   17  C   UNL     1      27.579  51.536  40.881  1.00  0.00     0.001 A 
HETATM   18  C   UNL     1      27.713  51.009  39.599  1.00  0.00     0.003 A 
HETATM   19  C   UNL     1      28.895  51.202  38.879  1.00  0.00     0.037 A 
ENDBRANCH  12  13
ENDBRANCH  11  12
ENDBRANCH   8  11
ENDBRANCH   1   7
BRANCH   2  20
HETATM   20  C   UNL     1      33.801  51.077  42.672  1.00  0.00     0.254 C 
HETATM   21  N   UNL     1      33.029  49.960  42.457  1.00  0.00    -0.351 N 
HETATM   22  H   UNL     1      33.340  49.211  41.853  1.00  0.00     0.163 HD
HETATM   23  O   UNL     1      33.413  52.040  43.331  1.00  0.00    -0.268 OA
BRANCH  21  24
HETATM   24  C   UNL     1      31.737  49.788  43.080  1.00  0.00     0.187 C 
BRANCH  24  25
HETATM   25  C   UNL     1      30.849  49.057  42.141  1.00  0.00     0.070 A 
HETATM   26  O   UNL     1      31.391  48.683  40.941  1.00  0.00    -0.325 OA
HETATM   27  C   UNL     1      30.413  48.050  40.244  1.00  0.00     0.142 A 
HETATM   28  C   UNL     1      29.249  48.010  40.973  1.00  0.00     0.027 A 
HETATM   29  C   UNL     1      29.528  48.660  42.199  1.00  0.00     0.036 A 
ENDBRANCH  24  25
ENDBRANCH  21  24
ENDBRANCH   2  20
TORSDOF 7
ENDMDL
