MODEL 1
REMARK VINA RESULT:      -9.8      0.000      0.000
REMARK  6 active torsions:
REMARK  status: ('A' for Active; 'I' for Inactive)
REMARK    1  A    between atoms: O_2  and  C_3 
REMARK    2  A    between atoms: C_4  and  C_5 
REMARK    3  A    between atoms: N_7  and  C_8 
REMARK    4  A    between atoms: C_15  and  C_16 
REMARK       I    between atoms: C_16  and  N_17 
REMARK    5  A    between atoms: N_17  and  N_18 
REMARK       I    between atoms: N_18  and  C_19 
REMARK    6  A    between atoms: C_19  and  C_20 
ROOT
HETATM    1  C   UNL     1      27.245  44.504  53.211  1.00  0.00     0.107 A 
HETATM    2  N   UNL     1      28.218  44.020  53.996  1.00  0.00    -0.166 NA
HETATM    3  N   UNL     1      28.599  45.043  54.786  1.00  0.00    -0.244 N 
HETATM    4  C   UNL     1      27.948  46.205  54.443  1.00  0.00     0.138 A 
HETATM    5  C   UNL     1      27.051  45.902  53.431  1.00  0.00     0.082 A 
ENDROOT
BRANCH   5   6
HETATM    6  C   UNL     1      26.121  46.809  52.770  1.00  0.00     0.274 C 
HETATM    7  N   UNL     1      26.146  46.776  51.387  1.00  0.00    -0.263 N 
HETATM    8  H   UNL     1      26.694  46.116  50.843  1.00  0.00     0.190 HD
HETATM    9  O   UNL     1      25.345  47.547  53.371  1.00  0.00    -0.266 OA
BRANCH   7  10
HETATM   10  N   UNL     1      25.202  47.529  50.678  1.00  0.00    -0.262 N 
HETATM   11  C   UNL     1      25.629  48.280  49.602  1.00  0.00     0.286 C 
HETATM   12  O   UNL     1      26.820  48.348  49.299  1.00  0.00    -0.264 OA
HETATM   13  H   UNL     1      24.225  47.393  50.922  1.00  0.00     0.190 HD
BRANCH  11  14
HETATM   14  C   UNL     1      24.593  48.969  48.866  1.00  0.00     0.102 A 
HETATM   15  N   UNL     1      23.315  48.455  48.776  1.00  0.00    -0.361 N 
HETATM   16  H   UNL     1      23.028  47.584  49.208  1.00  0.00     0.165 HD
HETATM   17  C   UNL     1      22.521  49.281  48.029  1.00  0.00     0.088 A 
HETATM   18  C   UNL     1      23.286  50.350  47.627  1.00  0.00     0.019 A 
HETATM   19  C   UNL     1      24.589  50.156  48.151  1.00  0.00     0.036 A 
ENDBRANCH  11  14
ENDBRANCH   7  10
ENDBRANCH   5   6
BRANCH   1  20
HETATM   20  C   UNL     1      26.562  43.617  52.270  1.00  0.00     0.029 A 
HETATM   21  C   UNL     1      27.252  42.600  51.588  1.00  0.00     0.080 A 
HETATM   22  C   UNL     1      26.578  41.749  50.705  1.00  0.00     0.037 A 
HETATM   23  C   UNL     1      25.216  41.929  50.467  1.00  0.00     0.003 A 
HETATM   24  C   UNL     1      24.527  42.951  51.116  1.00  0.00     0.001 A 
HETATM   25  C   UNL     1      25.195  43.791  52.012  1.00  0.00     0.017 A 
BRANCH  21  26
HETATM   26  O   UNL     1      28.583  42.367  51.833  1.00  0.00    -0.355 OA
HETATM   27  C   UNL     1      28.785  40.995  52.177  1.00  0.00     0.210 C 
ENDBRANCH  21  26
ENDBRANCH   1  20
BRANCH   3  28
HETATM   28  C   UNL     1      29.560  44.848  55.820  1.00  0.00     0.058 A 
HETATM   29  C   UNL     1      30.455  43.769  55.732  1.00  0.00     0.031 A 
HETATM   30  C   UNL     1      31.393  43.547  56.741  1.00  0.00     0.002 A 
HETATM   31  C   UNL     1      31.448  44.398  57.843  1.00  0.00     0.000 A 
HETATM   32  C   UNL     1      30.566  45.473  57.937  1.00  0.00     0.002 A 
HETATM   33  C   UNL     1      29.622  45.701  56.932  1.00  0.00     0.031 A 
ENDBRANCH   3  28
TORSDOF 6
ENDMDL
MODEL 2
REMARK VINA RESULT:      -9.8      3.448      6.447
REMARK  6 active torsions:
REMARK  status: ('A' for Active; 'I' for Inactive)
REMARK    1  A    between atoms: O_2  and  C_3 
REMARK    2  A    between atoms: C_4  and  C_5 
REMARK    3  A    between atoms: N_7  and  C_8 
REMARK    4  A    between atoms: C_15  and  C_16 
REMARK       I    between atoms: C_16  and  N_17 
REMARK    5  A    between atoms: N_17  and  N_18 
REMARK       I    between atoms: N_18  and  C_19 
REMARK    6  A    between atoms: C_19  and  C_20 
ROOT
HETATM    1  C   UNL     1      27.726  43.686  52.593  1.00  0.00     0.107 A 
HETATM    2  N   UNL     1      28.228  44.336  53.653  1.00  0.00    -0.166 NA
HETATM    3  N   UNL     1      29.077  43.474  54.247  1.00  0.00    -0.244 N 
HETATM    4  C   UNL     1      29.044  42.243  53.634  1.00  0.00     0.138 A 
HETATM    5  C   UNL     1      28.188  42.335  52.548  1.00  0.00     0.082 A 
ENDROOT
BRANCH   5   6
HETATM    6  C   UNL     1      27.861  41.292  51.585  1.00  0.00     0.274 C 
HETATM    7  N   UNL     1      28.881  40.950  50.716  1.00  0.00    -0.263 N 
HETATM    8  H   UNL     1      29.827  41.315  50.776  1.00  0.00     0.190 HD
HETATM    9  O   UNL     1      26.772  40.724  51.537  1.00  0.00    -0.266 OA
BRANCH   7  10
HETATM   10  N   UNL     1      28.688  39.876  49.838  1.00  0.00    -0.262 N 
HETATM   11  C   UNL     1      28.395  40.145  48.517  1.00  0.00     0.286 C 
HETATM   12  O   UNL     1      28.242  41.299  48.116  1.00  0.00    -0.264 OA
HETATM   13  H   UNL     1      28.886  38.946  50.196  1.00  0.00     0.190 HD
BRANCH  11  14
HETATM   14  C   UNL     1      28.288  38.994  47.650  1.00  0.00     0.102 A 
HETATM   15  N   UNL     1      27.493  39.019  46.521  1.00  0.00    -0.361 N 
HETATM   16  H   UNL     1      26.948  39.825  46.236  1.00  0.00     0.165 HD
HETATM   17  C   UNL     1      27.553  37.818  45.870  1.00  0.00     0.088 A 
HETATM   18  C   UNL     1      28.399  36.997  46.577  1.00  0.00     0.019 A 
HETATM   19  C   UNL     1      28.862  37.733  47.697  1.00  0.00     0.036 A 
ENDBRANCH  11  14
ENDBRANCH   7  10
ENDBRANCH   5   6
BRANCH   1  20
HETATM   20  C   UNL     1      26.809  44.377  51.686  1.00  0.00     0.029 A 
HETATM   21  C   UNL     1      25.439  44.492  51.975  1.00  0.00     0.080 A 
HETATM   22  C   UNL     1      24.581  45.173  51.104  1.00  0.00     0.037 A 
HETATM   23  C   UNL     1      25.077  45.711  49.918  1.00  0.00     0.003 A 
HETATM   24  C   UNL     1      26.428  45.580  49.607  1.00  0.00     0.001 A 
HETATM   25  C   UNL     1      27.290  44.916  50.485  1.00  0.00     0.017 A 
BRANCH  21  26
HETATM   26  O   UNL     1      24.927  44.012  53.155  1.00  0.00    -0.355 OA
HETATM   27  C   UNL     1      24.964  45.031  54.156  1.00  0.00     0.210 C 
ENDBRANCH  21  26
ENDBRANCH   1  20
BRANCH   3  28
HETATM   28  C   UNL     1      29.866  43.878  55.362  1.00  0.00     0.058 A 
HETATM   29  C   UNL     1      30.849  43.008  55.860  1.00  0.00     0.031 A 
HETATM   30  C   UNL     1      31.623  43.375  56.962  1.00  0.00     0.002 A 
HETATM   31  C   UNL     1      31.425  44.611  57.574  1.00  0.00     0.000 A 
HETATM   32  C   UNL     1      30.453  45.482  57.085  1.00  0.00     0.002 A 
HETATM   33  C   UNL     1      29.673  45.122  55.982  1.00  0.00     0.031 A 
ENDBRANCH   3  28
TORSDOF 6
ENDMDL
MODEL 3
REMARK VINA RESULT:      -9.7      1.405      1.905
REMARK  6 active torsions:
REMARK  status: ('A' for Active; 'I' for Inactive)
REMARK    1  A    between atoms: O_2  and  C_3 
REMARK    2  A    between atoms: C_4  and  C_5 
REMARK    3  A    between atoms: N_7  and  C_8 
REMARK    4  A    between atoms: C_15  and  C_16 
REMARK       I    between atoms: C_16  and  N_17 
REMARK    5  A    between atoms: N_17  and  N_18 
REMARK       I    between atoms: N_18  and  C_19 
REMARK    6  A    between atoms: C_19  and  C_20 
ROOT
HETATM    1  C   UNL     1      27.677  43.724  52.961  1.00  0.00     0.107 A 
HETATM    2  N   UNL     1      28.742  43.634  53.771  1.00  0.00    -0.166 NA
HETATM    3  N   UNL     1      28.582  44.599  54.698  1.00  0.00    -0.244 N 
HETATM    4  C   UNL     1      27.477  45.372  54.426  1.00  0.00     0.138 A 
HETATM    5  C   UNL     1      26.852  44.836  53.312  1.00  0.00     0.082 A 
ENDROOT
BRANCH   5   6
HETATM    6  C   UNL     1      25.627  45.300  52.673  1.00  0.00     0.274 C 
HETATM    7  N   UNL     1      25.688  46.569  52.129  1.00  0.00    -0.263 N 
HETATM    8  H   UNL     1      26.535  47.128  52.081  1.00  0.00     0.190 HD
HETATM    9  O   UNL     1      24.603  44.625  52.592  1.00  0.00    -0.266 OA
BRANCH   7  10
HETATM   10  N   UNL     1      24.594  47.043  51.395  1.00  0.00    -0.262 N 
HETATM   11  C   UNL     1      24.829  47.866  50.313  1.00  0.00     0.286 C 
HETATM   12  O   UNL     1      25.967  48.236  50.024  1.00  0.00    -0.264 OA
HETATM   13  H   UNL     1      23.681  46.662  51.630  1.00  0.00     0.190 HD
BRANCH  11  14
HETATM   14  C   UNL     1      23.663  48.253  49.553  1.00  0.00     0.102 A 
HETATM   15  N   UNL     1      22.548  47.442  49.487  1.00  0.00    -0.361 N 
HETATM   16  H   UNL     1      22.477  46.546  49.955  1.00  0.00     0.165 HD
HETATM   17  C   UNL     1      21.583  48.021  48.710  1.00  0.00     0.088 A 
HETATM   18  C   UNL     1      22.070  49.226  48.263  1.00  0.00     0.019 A 
HETATM   19  C   UNL     1      23.377  49.375  48.790  1.00  0.00     0.036 A 
ENDBRANCH  11  14
ENDBRANCH   7  10
ENDBRANCH   5   6
BRANCH   1  20
HETATM   20  C   UNL     1      27.511  42.761  51.872  1.00  0.00     0.029 A 
HETATM   21  C   UNL     1      27.251  43.178  50.556  1.00  0.00     0.080 A 
HETATM   22  C   UNL     1      27.114  42.242  49.525  1.00  0.00     0.037 A 
HETATM   23  C   UNL     1      27.197  40.879  49.806  1.00  0.00     0.003 A 
HETATM   24  C   UNL     1      27.427  40.452  51.111  1.00  0.00     0.001 A 
HETATM   25  C   UNL     1      27.583  41.387  52.140  1.00  0.00     0.017 A 
BRANCH  21  26
HETATM   26  O   UNL     1      27.207  44.513  50.238  1.00  0.00    -0.355 OA
HETATM   27  C   UNL     1      26.215  44.746  49.236  1.00  0.00     0.210 C 
ENDBRANCH  21  26
ENDBRANCH   1  20
BRANCH   3  28
HETATM   28  C   UNL     1      29.494  44.724  55.786  1.00  0.00     0.058 A 
HETATM   29  C   UNL     1      30.543  43.798  55.914  1.00  0.00     0.031 A 
HETATM   30  C   UNL     1      31.438  43.889  56.980  1.00  0.00     0.002 A 
HETATM   31  C   UNL     1      31.297  44.903  57.925  1.00  0.00     0.000 A 
HETATM   32  C   UNL     1      30.261  45.828  57.805  1.00  0.00     0.002 A 
HETATM   33  C   UNL     1      29.359  45.743  56.741  1.00  0.00     0.031 A 
ENDBRANCH   3  28
TORSDOF 6
ENDMDL
MODEL 4
REMARK VINA RESULT:      -9.6      3.593      6.296
REMARK  6 active torsions:
REMARK  status: ('A' for Active; 'I' for Inactive)
REMARK    1  A    between atoms: O_2  and  C_3 
REMARK    2  A    between atoms: C_4  and  C_5 
REMARK    3  A    between atoms: N_7  and  C_8 
REMARK    4  A    between atoms: C_15  and  C_16 
REMARK       I    between atoms: C_16  and  N_17 
REMARK    5  A    between atoms: N_17  and  N_18 
REMARK       I    between atoms: N_18  and  C_19 
REMARK    6  A    between atoms: C_19  and  C_20 
ROOT
HETATM    1  C   UNL     1      24.703  47.210  50.437  1.00  0.00     0.107 A 
HETATM    2  N   UNL     1      25.434  47.431  51.540  1.00  0.00    -0.166 NA
HETATM    3  N   UNL     1      25.636  46.221  52.097  1.00  0.00    -0.244 N 
HETATM    4  C   UNL     1      24.953  45.239  51.416  1.00  0.00     0.138 A 
HETATM    5  C   UNL     1      24.341  45.833  50.324  1.00  0.00     0.082 A 
ENDROOT
BRANCH   5   6
HETATM    6  C   UNL     1      23.534  45.184  49.299  1.00  0.00     0.274 C 
HETATM    7  N   UNL     1      22.170  45.191  49.527  1.00  0.00    -0.263 N 
HETATM    8  H   UNL     1      21.724  45.682  50.297  1.00  0.00     0.190 HD
HETATM    9  O   UNL     1      24.002  44.675  48.283  1.00  0.00    -0.266 OA
BRANCH   7  10
HETATM   10  N   UNL     1      21.317  44.693  48.535  1.00  0.00    -0.262 N 
HETATM   11  C   UNL     1      20.146  45.372  48.269  1.00  0.00     0.286 C 
HETATM   12  O   UNL     1      19.813  46.360  48.923  1.00  0.00    -0.264 OA
HETATM   13  H   UNL     1      21.660  43.915  47.979  1.00  0.00     0.190 HD
BRANCH  11  14
HETATM   14  C   UNL     1      19.351  44.851  47.180  1.00  0.00     0.102 A 
HETATM   15  N   UNL     1      17.975  44.968  47.177  1.00  0.00    -0.361 N 
HETATM   16  H   UNL     1      17.448  45.415  47.918  1.00  0.00     0.165 HD
HETATM   17  C   UNL     1      17.451  44.399  46.049  1.00  0.00     0.088 A 
HETATM   18  C   UNL     1      18.495  43.905  45.303  1.00  0.00     0.019 A 
HETATM   19  C   UNL     1      19.690  44.186  46.011  1.00  0.00     0.036 A 
ENDBRANCH  11  14
ENDBRANCH   7  10
ENDBRANCH   5   6
BRANCH   1  20
HETATM   20  C   UNL     1      24.364  48.327  49.556  1.00  0.00     0.029 A 
HETATM   21  C   UNL     1      25.341  48.975  48.781  1.00  0.00     0.080 A 
HETATM   22  C   UNL     1      24.993  50.029  47.930  1.00  0.00     0.037 A 
HETATM   23  C   UNL     1      23.672  50.473  47.875  1.00  0.00     0.003 A 
HETATM   24  C   UNL     1      22.699  49.857  48.659  1.00  0.00     0.001 A 
HETATM   25  C   UNL     1      23.042  48.791  49.495  1.00  0.00     0.017 A 
BRANCH  21  26
HETATM   26  O   UNL     1      26.641  48.534  48.779  1.00  0.00    -0.355 OA
HETATM   27  C   UNL     1      27.534  49.643  48.897  1.00  0.00     0.210 C 
ENDBRANCH  21  26
ENDBRANCH   1  20
BRANCH   3  28
HETATM   28  C   UNL     1      26.467  46.076  53.245  1.00  0.00     0.058 A 
HETATM   29  C   UNL     1      26.677  47.181  54.086  1.00  0.00     0.031 A 
HETATM   30  C   UNL     1      27.501  47.069  55.206  1.00  0.00     0.002 A 
HETATM   31  C   UNL     1      28.121  45.856  55.498  1.00  0.00     0.000 A 
HETATM   32  C   UNL     1      27.916  44.753  54.671  1.00  0.00     0.002 A 
HETATM   33  C   UNL     1      27.093  44.857  53.546  1.00  0.00     0.031 A 
ENDBRANCH   3  28
TORSDOF 6
ENDMDL
MODEL 5
REMARK VINA RESULT:      -9.5      2.638      5.608
REMARK  6 active torsions:
REMARK  status: ('A' for Active; 'I' for Inactive)
REMARK    1  A    between atoms: O_2  and  C_3 
REMARK    2  A    between atoms: C_4  and  C_5 
REMARK    3  A    between atoms: N_7  and  C_8 
REMARK    4  A    between atoms: C_15  and  C_16 
REMARK       I    between atoms: C_16  and  N_17 
REMARK    5  A    between atoms: N_17  and  N_18 
REMARK       I    between atoms: N_18  and  C_19 
REMARK    6  A    between atoms: C_19  and  C_20 
ROOT
HETATM    1  C   UNL     1      27.137  43.128  51.262  1.00  0.00     0.107 A 
HETATM    2  N   UNL     1      27.301  41.801  51.159  1.00  0.00    -0.166 NA
HETATM    3  N   UNL     1      27.188  41.516  49.847  1.00  0.00    -0.244 N 
HETATM    4  C   UNL     1      26.851  42.635  49.123  1.00  0.00     0.138 A 
HETATM    5  C   UNL     1      26.815  43.708  49.998  1.00  0.00     0.082 A 
ENDROOT
BRANCH   5   6
HETATM    6  C   UNL     1      26.531  45.102  49.681  1.00  0.00     0.274 C 
HETATM    7  N   UNL     1      25.233  45.511  49.920  1.00  0.00    -0.263 N 
HETATM    8  H   UNL     1      24.527  44.934  50.369  1.00  0.00     0.190 HD
HETATM    9  O   UNL     1      27.372  45.887  49.247  1.00  0.00    -0.266 OA
BRANCH   7  10
HETATM   10  N   UNL     1      24.909  46.863  49.754  1.00  0.00    -0.262 N 
HETATM   11  C   UNL     1      23.714  47.188  49.147  1.00  0.00     0.286 C 
HETATM   12  O   UNL     1      22.964  46.319  48.699  1.00  0.00    -0.264 OA
HETATM   13  H   UNL     1      25.524  47.543  50.194  1.00  0.00     0.190 HD
BRANCH  11  14
HETATM   14  C   UNL     1      23.405  48.598  49.079  1.00  0.00     0.102 A 
HETATM   15  N   UNL     1      22.344  49.134  49.781  1.00  0.00    -0.361 N 
HETATM   16  H   UNL     1      21.729  48.588  50.374  1.00  0.00     0.165 HD
HETATM   17  C   UNL     1      22.255  50.480  49.554  1.00  0.00     0.088 A 
HETATM   18  C   UNL     1      23.270  50.831  48.696  1.00  0.00     0.019 A 
HETATM   19  C   UNL     1      23.994  49.650  48.395  1.00  0.00     0.036 A 
ENDBRANCH  11  14
ENDBRANCH   7  10
ENDBRANCH   5   6
BRANCH   1  20
HETATM   20  C   UNL     1      27.268  43.776  52.567  1.00  0.00     0.029 A 
HETATM   21  C   UNL     1      28.519  43.926  53.189  1.00  0.00     0.080 A 
HETATM   22  C   UNL     1      28.627  44.565  54.429  1.00  0.00     0.037 A 
HETATM   23  C   UNL     1      27.482  45.026  55.077  1.00  0.00     0.003 A 
HETATM   24  C   UNL     1      26.233  44.859  54.483  1.00  0.00     0.001 A 
HETATM   25  C   UNL     1      26.125  44.237  53.236  1.00  0.00     0.017 A 
BRANCH  21  26
HETATM   26  O   UNL     1      29.670  43.523  52.559  1.00  0.00    -0.355 OA
HETATM   27  C   UNL     1      30.411  42.642  53.406  1.00  0.00     0.210 C 
ENDBRANCH  21  26
ENDBRANCH   1  20
BRANCH   3  28
HETATM   28  C   UNL     1      27.410  40.193  49.366  1.00  0.00     0.058 A 
HETATM   29  C   UNL     1      26.628  39.139  49.866  1.00  0.00     0.031 A 
HETATM   30  C   UNL     1      26.838  37.833  49.424  1.00  0.00     0.002 A 
HETATM   31  C   UNL     1      27.827  37.566  48.480  1.00  0.00     0.000 A 
HETATM   32  C   UNL     1      28.607  38.606  47.976  1.00  0.00     0.002 A 
HETATM   33  C   UNL     1      28.403  39.917  48.415  1.00  0.00     0.031 A 
ENDBRANCH   3  28
TORSDOF 6
ENDMDL
MODEL 6
REMARK VINA RESULT:      -9.4      3.435      6.751
REMARK  6 active torsions:
REMARK  status: ('A' for Active; 'I' for Inactive)
REMARK    1  A    between atoms: O_2  and  C_3 
REMARK    2  A    between atoms: C_4  and  C_5 
REMARK    3  A    between atoms: N_7  and  C_8 
REMARK    4  A    between atoms: C_15  and  C_16 
REMARK       I    between atoms: C_16  and  N_17 
REMARK    5  A    between atoms: N_17  and  N_18 
REMARK       I    between atoms: N_18  and  C_19 
REMARK    6  A    between atoms: C_19  and  C_20 
ROOT
HETATM    1  C   UNL     1      27.041  44.158  52.006  1.00  0.00     0.107 A 
HETATM    2  N   UNL     1      27.579  44.697  53.110  1.00  0.00    -0.166 NA
HETATM    3  N   UNL     1      28.424  43.769  53.600  1.00  0.00    -0.244 N 
HETATM    4  C   UNL     1      28.354  42.601  52.875  1.00  0.00     0.138 A 
HETATM    5  C   UNL     1      27.476  42.810  51.824  1.00  0.00     0.082 A 
ENDROOT
BRANCH   5   6
HETATM    6  C   UNL     1      27.108  41.867  50.776  1.00  0.00     0.274 C 
HETATM    7  N   UNL     1      26.742  40.608  51.214  1.00  0.00    -0.263 N 
HETATM    8  H   UNL     1      26.639  40.353  52.192  1.00  0.00     0.190 HD
HETATM    9  O   UNL     1      27.096  42.149  49.579  1.00  0.00    -0.266 OA
BRANCH   7  10
HETATM   10  N   UNL     1      26.262  39.681  50.281  1.00  0.00    -0.262 N 
HETATM   11  C   UNL     1      27.150  38.791  49.715  1.00  0.00     0.286 C 
HETATM   12  O   UNL     1      28.355  38.838  49.968  1.00  0.00    -0.264 OA
HETATM   13  H   UNL     1      25.255  39.636  50.151  1.00  0.00     0.190 HD
BRANCH  11  14
HETATM   14  C   UNL     1      26.576  37.811  48.822  1.00  0.00     0.102 A 
HETATM   15  N   UNL     1      25.659  38.173  47.855  1.00  0.00    -0.361 N 
HETATM   16  H   UNL     1      25.338  39.123  47.713  1.00  0.00     0.165 HD
HETATM   17  C   UNL     1      25.262  37.076  47.142  1.00  0.00     0.088 A 
HETATM   18  C   UNL     1      25.928  35.983  47.644  1.00  0.00     0.019 A 
HETATM   19  C   UNL     1      26.754  36.441  48.701  1.00  0.00     0.036 A 
ENDBRANCH  11  14
ENDBRANCH   7  10
ENDBRANCH   5   6
BRANCH   1  20
HETATM   20  C   UNL     1      26.117  44.946  51.191  1.00  0.00     0.029 A 
HETATM   21  C   UNL     1      24.789  44.538  50.983  1.00  0.00     0.080 A 
HETATM   22  C   UNL     1      23.915  45.315  50.216  1.00  0.00     0.037 A 
HETATM   23  C   UNL     1      24.370  46.488  49.615  1.00  0.00     0.003 A 
HETATM   24  C   UNL     1      25.692  46.890  49.791  1.00  0.00     0.001 A 
HETATM   25  C   UNL     1      26.562  46.124  50.573  1.00  0.00     0.017 A 
BRANCH  21  26
HETATM   26  O   UNL     1      24.297  43.412  51.596  1.00  0.00    -0.355 OA
HETATM   27  C   UNL     1      23.597  42.604  50.648  1.00  0.00     0.210 C 
ENDBRANCH  21  26
ENDBRANCH   1  20
BRANCH   3  28
HETATM   28  C   UNL     1      29.246  44.053  54.728  1.00  0.00     0.058 A 
HETATM   29  C   UNL     1      29.001  45.212  55.483  1.00  0.00     0.031 A 
HETATM   30  C   UNL     1      29.804  45.521  56.582  1.00  0.00     0.002 A 
HETATM   31  C   UNL     1      30.855  44.679  56.938  1.00  0.00     0.000 A 
HETATM   32  C   UNL     1      31.104  43.525  56.196  1.00  0.00     0.002 A 
HETATM   33  C   UNL     1      30.306  43.209  55.093  1.00  0.00     0.031 A 
ENDBRANCH   3  28
TORSDOF 6
ENDMDL
MODEL 7
REMARK VINA RESULT:      -9.4      1.926      7.906
REMARK  6 active torsions:
REMARK  status: ('A' for Active; 'I' for Inactive)
REMARK    1  A    between atoms: O_2  and  C_3 
REMARK    2  A    between atoms: C_4  and  C_5 
REMARK    3  A    between atoms: N_7  and  C_8 
REMARK    4  A    between atoms: C_15  and  C_16 
REMARK       I    between atoms: C_16  and  N_17 
REMARK    5  A    between atoms: N_17  and  N_18 
REMARK       I    between atoms: N_18  and  C_19 
REMARK    6  A    between atoms: C_19  and  C_20 
ROOT
HETATM    1  C   UNL     1      25.553  45.047  50.793  1.00  0.00     0.107 A 
HETATM    2  N   UNL     1      24.953  45.760  49.828  1.00  0.00    -0.166 NA
HETATM    3  N   UNL     1      24.840  47.013  50.311  1.00  0.00    -0.244 N 
HETATM    4  C   UNL     1      25.271  47.083  51.616  1.00  0.00     0.138 A 
HETATM    5  C   UNL     1      25.751  45.833  51.969  1.00  0.00     0.082 A 
ENDROOT
BRANCH   5   6
HETATM    6  C   UNL     1      26.337  45.435  53.243  1.00  0.00     0.274 C 
HETATM    7  N   UNL     1      27.709  45.265  53.235  1.00  0.00    -0.263 N 
HETATM    8  H   UNL     1      28.305  45.481  52.442  1.00  0.00     0.190 HD
HETATM    9  O   UNL     1      25.685  45.274  54.272  1.00  0.00    -0.266 OA
BRANCH   7  10
HETATM   10  N   UNL     1      28.363  44.999  54.445  1.00  0.00    -0.262 N 
HETATM   11  C   UNL     1      28.840  46.060  55.186  1.00  0.00     0.286 C 
HETATM   12  O   UNL     1      28.756  47.218  54.777  1.00  0.00    -0.264 OA
HETATM   13  H   UNL     1      28.353  44.037  54.773  1.00  0.00     0.190 HD
BRANCH  11  14
HETATM   14  C   UNL     1      29.433  45.721  56.460  1.00  0.00     0.102 A 
HETATM   15  N   UNL     1      30.517  44.870  56.542  1.00  0.00    -0.361 N 
HETATM   16  H   UNL     1      30.955  44.439  55.736  1.00  0.00     0.165 HD
HETATM   17  C   UNL     1      30.893  44.703  57.846  1.00  0.00     0.088 A 
HETATM   18  C   UNL     1      30.047  45.454  58.628  1.00  0.00     0.019 A 
HETATM   19  C   UNL     1      29.128  46.094  57.759  1.00  0.00     0.036 A 
ENDBRANCH  11  14
ENDBRANCH   7  10
ENDBRANCH   5   6
BRANCH   1  20
HETATM   20  C   UNL     1      25.885  43.643  50.557  1.00  0.00     0.029 A 
HETATM   21  C   UNL     1      24.928  42.626  50.709  1.00  0.00     0.080 A 
HETATM   22  C   UNL     1      25.260  41.290  50.459  1.00  0.00     0.037 A 
HETATM   23  C   UNL     1      26.563  40.953  50.094  1.00  0.00     0.003 A 
HETATM   24  C   UNL     1      27.528  41.948  49.967  1.00  0.00     0.001 A 
HETATM   25  C   UNL     1      27.193  43.286  50.197  1.00  0.00     0.017 A 
BRANCH  21  26
HETATM   26  O   UNL     1      23.626  42.928  51.024  1.00  0.00    -0.355 OA
HETATM   27  C   UNL     1      22.797  42.789  49.868  1.00  0.00     0.210 C 
ENDBRANCH  21  26
ENDBRANCH   1  20
BRANCH   3  28
HETATM   28  C   UNL     1      24.330  48.065  49.498  1.00  0.00     0.058 A 
HETATM   29  C   UNL     1      22.953  48.119  49.226  1.00  0.00     0.031 A 
HETATM   30  C   UNL     1      22.432  49.130  48.417  1.00  0.00     0.002 A 
HETATM   31  C   UNL     1      23.277  50.095  47.875  1.00  0.00     0.000 A 
HETATM   32  C   UNL     1      24.645  50.051  48.141  1.00  0.00     0.002 A 
HETATM   33  C   UNL     1      25.175  49.041  48.948  1.00  0.00     0.031 A 
ENDBRANCH   3  28
TORSDOF 6
ENDMDL
MODEL 8
REMARK VINA RESULT:      -9.4      3.853      6.744
REMARK  6 active torsions:
REMARK  status: ('A' for Active; 'I' for Inactive)
REMARK    1  A    between atoms: O_2  and  C_3 
REMARK    2  A    between atoms: C_4  and  C_5 
REMARK    3  A    between atoms: N_7  and  C_8 
REMARK    4  A    between atoms: C_15  and  C_16 
REMARK       I    between atoms: C_16  and  N_17 
REMARK    5  A    between atoms: N_17  and  N_18 
REMARK       I    between atoms: N_18  and  C_19 
REMARK    6  A    between atoms: C_19  and  C_20 
ROOT
HETATM    1  C   UNL     1      26.859  43.312  51.811  1.00  0.00     0.107 A 
HETATM    2  N   UNL     1      27.284  44.053  52.845  1.00  0.00    -0.166 NA
HETATM    3  N   UNL     1      28.327  43.383  53.375  1.00  0.00    -0.244 N 
HETATM    4  C   UNL     1      28.508  42.171  52.750  1.00  0.00     0.138 A 
HETATM    5  C   UNL     1      27.584  42.084  51.722  1.00  0.00     0.082 A 
ENDROOT
BRANCH   5   6
HETATM    6  C   UNL     1      27.417  40.995  50.769  1.00  0.00     0.274 C 
HETATM    7  N   UNL     1      28.482  40.791  49.911  1.00  0.00    -0.263 N 
HETATM    8  H   UNL     1      29.366  41.288  49.973  1.00  0.00     0.190 HD
HETATM    9  O   UNL     1      26.420  40.278  50.720  1.00  0.00    -0.266 OA
BRANCH   7  10
HETATM   10  N   UNL     1      28.451  39.691  49.045  1.00  0.00    -0.262 N 
HETATM   11  C   UNL     1      28.314  39.919  47.692  1.00  0.00     0.286 C 
HETATM   12  O   UNL     1      28.158  41.055  47.244  1.00  0.00    -0.264 OA
HETATM   13  H   UNL     1      28.647  38.780  49.450  1.00  0.00     0.190 HD
BRANCH  11  14
HETATM   14  C   UNL     1      28.370  38.746  46.848  1.00  0.00     0.102 A 
HETATM   15  N   UNL     1      27.919  38.780  45.544  1.00  0.00    -0.361 N 
HETATM   16  H   UNL     1      27.530  39.606  45.105  1.00  0.00     0.165 HD
HETATM   17  C   UNL     1      28.074  37.555  44.955  1.00  0.00     0.088 A 
HETATM   18  C   UNL     1      28.634  36.709  45.883  1.00  0.00     0.019 A 
HETATM   19  C   UNL     1      28.820  37.455  47.075  1.00  0.00     0.036 A 
ENDBRANCH  11  14
ENDBRANCH   7  10
ENDBRANCH   5   6
BRANCH   1  20
HETATM   20  C   UNL     1      25.765  43.799  50.972  1.00  0.00     0.029 A 
HETATM   21  C   UNL     1      25.993  44.694  49.913  1.00  0.00     0.080 A 
HETATM   22  C   UNL     1      24.935  45.133  49.109  1.00  0.00     0.037 A 
HETATM   23  C   UNL     1      23.634  44.713  49.380  1.00  0.00     0.003 A 
HETATM   24  C   UNL     1      23.390  43.848  50.444  1.00  0.00     0.001 A 
HETATM   25  C   UNL     1      24.449  43.393  51.236  1.00  0.00     0.017 A 
BRANCH  21  26
HETATM   26  O   UNL     1      27.267  45.091  49.592  1.00  0.00    -0.355 OA
HETATM   27  C   UNL     1      27.336  46.517  49.533  1.00  0.00     0.210 C 
ENDBRANCH  21  26
ENDBRANCH   1  20
BRANCH   3  28
HETATM   28  C   UNL     1      29.086  43.943  54.442  1.00  0.00     0.058 A 
HETATM   29  C   UNL     1      28.707  45.184  54.980  1.00  0.00     0.031 A 
HETATM   30  C   UNL     1      29.445  45.760  56.014  1.00  0.00     0.002 A 
HETATM   31  C   UNL     1      30.565  45.105  56.522  1.00  0.00     0.000 A 
HETATM   32  C   UNL     1      30.948  43.872  55.996  1.00  0.00     0.002 A 
HETATM   33  C   UNL     1      30.215  43.289  54.959  1.00  0.00     0.031 A 
ENDBRANCH   3  28
TORSDOF 6
ENDMDL
MODEL 9
REMARK VINA RESULT:      -9.3      6.670      9.982
REMARK  6 active torsions:
REMARK  status: ('A' for Active; 'I' for Inactive)
REMARK    1  A    between atoms: O_2  and  C_3 
REMARK    2  A    between atoms: C_4  and  C_5 
REMARK    3  A    between atoms: N_7  and  C_8 
REMARK    4  A    between atoms: C_15  and  C_16 
REMARK       I    between atoms: C_16  and  N_17 
REMARK    5  A    between atoms: N_17  and  N_18 
REMARK       I    between atoms: N_18  and  C_19 
REMARK    6  A    between atoms: C_19  and  C_20 
ROOT
HETATM    1  C   UNL     1      20.738  48.693  48.589  1.00  0.00     0.107 A 
HETATM    2  N   UNL     1      22.005  48.398  48.261  1.00  0.00    -0.166 NA
HETATM    3  N   UNL     1      22.777  49.231  48.988  1.00  0.00    -0.244 N 
HETATM    4  C   UNL     1      22.011  50.124  49.700  1.00  0.00     0.138 A 
HETATM    5  C   UNL     1      20.680  49.808  49.480  1.00  0.00     0.082 A 
ENDROOT
BRANCH   5   6
HETATM    6  C   UNL     1      19.508  50.460  50.049  1.00  0.00     0.274 C 
HETATM    7  N   UNL     1      19.243  51.728  49.565  1.00  0.00    -0.263 N 
HETATM    8  H   UNL     1      19.754  52.165  48.803  1.00  0.00     0.190 HD
HETATM    9  O   UNL     1      18.777  49.938  50.888  1.00  0.00    -0.266 OA
BRANCH   7  10
HETATM   10  N   UNL     1      18.070  52.374  49.973  1.00  0.00    -0.262 N 
HETATM   11  C   UNL     1      17.035  52.500  49.069  1.00  0.00     0.286 C 
HETATM   12  O   UNL     1      17.148  52.113  47.905  1.00  0.00    -0.264 OA
HETATM   13  H   UNL     1      17.996  52.620  50.956  1.00  0.00     0.190 HD
BRANCH  11  14
HETATM   14  C   UNL     1      15.826  53.106  49.578  1.00  0.00     0.102 A 
HETATM   15  N   UNL     1      15.590  54.459  49.443  1.00  0.00    -0.361 N 
HETATM   16  H   UNL     1      16.234  55.099  48.991  1.00  0.00     0.165 HD
HETATM   17  C   UNL     1      14.388  54.792  50.003  1.00  0.00     0.088 A 
HETATM   18  C   UNL     1      13.827  53.643  50.508  1.00  0.00     0.019 A 
HETATM   19  C   UNL     1      14.728  52.581  50.243  1.00  0.00     0.036 A 
ENDBRANCH  11  14
ENDBRANCH   7  10
ENDBRANCH   5   6
BRANCH   1  20
HETATM   20  C   UNL     1      19.641  47.913  48.017  1.00  0.00     0.029 A 
HETATM   21  C   UNL     1      18.860  48.410  46.960  1.00  0.00     0.080 A 
HETATM   22  C   UNL     1      17.827  47.642  46.413  1.00  0.00     0.037 A 
HETATM   23  C   UNL     1      17.538  46.385  46.943  1.00  0.00     0.003 A 
HETATM   24  C   UNL     1      18.286  45.893  48.010  1.00  0.00     0.001 A 
HETATM   25  C   UNL     1      19.331  46.652  48.545  1.00  0.00     0.017 A 
BRANCH  21  26
HETATM   26  O   UNL     1      19.147  49.624  46.385  1.00  0.00    -0.355 OA
HETATM   27  C   UNL     1      18.288  49.852  45.267  1.00  0.00     0.210 C 
ENDBRANCH  21  26
ENDBRANCH   1  20
BRANCH   3  28
HETATM   28  C   UNL     1      24.197  49.121  48.957  1.00  0.00     0.058 A 
HETATM   29  C   UNL     1      24.939  50.018  48.170  1.00  0.00     0.031 A 
HETATM   30  C   UNL     1      26.330  49.919  48.110  1.00  0.00     0.002 A 
HETATM   31  C   UNL     1      26.991  48.929  48.833  1.00  0.00     0.000 A 
HETATM   32  C   UNL     1      26.263  48.037  49.618  1.00  0.00     0.002 A 
HETATM   33  C   UNL     1      24.870  48.128  49.683  1.00  0.00     0.031 A 
ENDBRANCH   3  28
TORSDOF 6
ENDMDL
MODEL 10
REMARK VINA RESULT:      -9.1      1.989      3.005
REMARK  6 active torsions:
REMARK  status: ('A' for Active; 'I' for Inactive)
REMARK    1  A    between atoms: O_2  and  C_3 
REMARK    2  A    between atoms: C_4  and  C_5 
REMARK    3  A    between atoms: N_7  and  C_8 
REMARK    4  A    between atoms: C_15  and  C_16 
REMARK       I    between atoms: C_16  and  N_17 
REMARK    5  A    between atoms: N_17  and  N_18 
REMARK       I    between atoms: N_18  and  C_19 
REMARK    6  A    between atoms: C_19  and  C_20 
ROOT
HETATM    1  C   UNL     1      26.766  43.349  50.714  1.00  0.00     0.107 A 
HETATM    2  N   UNL     1      27.731  43.064  51.601  1.00  0.00    -0.166 NA
HETATM    3  N   UNL     1      27.825  44.142  52.404  1.00  0.00    -0.244 N 
HETATM    4  C   UNL     1      26.999  45.155  51.974  1.00  0.00     0.138 A 
HETATM    5  C   UNL     1      26.285  44.683  50.885  1.00  0.00     0.082 A 
ENDROOT
BRANCH   5   6
HETATM    6  C   UNL     1      25.269  45.391  50.116  1.00  0.00     0.274 C 
HETATM    7  N   UNL     1      24.498  46.284  50.837  1.00  0.00    -0.263 N 
HETATM    8  H   UNL     1      24.661  46.520  51.812  1.00  0.00     0.190 HD
HETATM    9  O   UNL     1      25.099  45.240  48.909  1.00  0.00    -0.266 OA
BRANCH   7  10
HETATM   10  N   UNL     1      23.580  47.090  50.152  1.00  0.00    -0.262 N 
HETATM   11  C   UNL     1      24.022  48.275  49.601  1.00  0.00     0.286 C 
HETATM   12  O   UNL     1      25.182  48.660  49.752  1.00  0.00    -0.264 OA
HETATM   13  H   UNL     1      22.653  46.704  49.997  1.00  0.00     0.190 HD
BRANCH  11  14
HETATM   14  C   UNL     1      23.044  49.018  48.840  1.00  0.00     0.102 A 
HETATM   15  N   UNL     1      21.804  48.484  48.551  1.00  0.00    -0.361 N 
HETATM   16  H   UNL     1      21.508  47.560  48.845  1.00  0.00     0.165 HD
HETATM   17  C   UNL     1      21.062  49.372  47.823  1.00  0.00     0.088 A 
HETATM   18  C   UNL     1      21.821  50.502  47.635  1.00  0.00     0.019 A 
HETATM   19  C   UNL     1      23.068  50.282  48.272  1.00  0.00     0.036 A 
ENDBRANCH  11  14
ENDBRANCH   7  10
ENDBRANCH   5   6
BRANCH   1  20
HETATM   20  C   UNL     1      26.367  42.345  49.729  1.00  0.00     0.029 A 
HETATM   21  C   UNL     1      25.066  41.813  49.708  1.00  0.00     0.080 A 
HETATM   22  C   UNL     1      24.697  40.867  48.745  1.00  0.00     0.037 A 
HETATM   23  C   UNL     1      25.636  40.414  47.819  1.00  0.00     0.003 A 
HETATM   24  C   UNL     1      26.936  40.912  47.847  1.00  0.00     0.001 A 
HETATM   25  C   UNL     1      27.301  41.872  48.796  1.00  0.00     0.017 A 
BRANCH  21  26
HETATM   26  O   UNL     1      24.106  42.271  50.576  1.00  0.00    -0.355 OA
HETATM   27  C   UNL     1      22.935  42.657  49.854  1.00  0.00     0.210 C 
ENDBRANCH  21  26
ENDBRANCH   1  20
BRANCH   3  28
HETATM   28  C   UNL     1      28.696  44.138  53.531  1.00  0.00     0.058 A 
HETATM   29  C   UNL     1      29.698  43.159  53.622  1.00  0.00     0.031 A 
HETATM   30  C   UNL     1      30.552  43.124  54.726  1.00  0.00     0.002 A 
HETATM   31  C   UNL     1      30.415  44.064  55.744  1.00  0.00     0.000 A 
HETATM   32  C   UNL     1      29.425  45.042  55.661  1.00  0.00     0.002 A 
HETATM   33  C   UNL     1      28.565  45.083  54.560  1.00  0.00     0.031 A 
ENDBRANCH   3  28
TORSDOF 6
ENDMDL
