MODEL 1
REMARK VINA RESULT:      -8.0      0.000      0.000
REMARK  7 active torsions:
REMARK  status: ('A' for Active; 'I' for Inactive)
REMARK    1  A    between atoms: C_2  and  N_3 
REMARK    2  A    between atoms: C_8  and  C_9 
REMARK    3  A    between atoms: C_9  and  N_10 
REMARK       I    between atoms: N_10  and  C_11 
REMARK       I    between atoms: C_11  and  N_12 
REMARK    4  A    between atoms: N_12  and  C_13 
REMARK    5  A    between atoms: C_14  and  O_15 
REMARK    6  A    between atoms: C_18  and  O_19 
REMARK    7  A    between atoms: C_26  and  N_27 
ROOT
HETATM    1  C   UNL     1      25.260  47.333  50.669  1.00  0.00     0.118 C 
HETATM    2  C   UNL     1      26.456  47.814  49.849  1.00  0.00     0.037 C 
ENDROOT
BRANCH   1   3
HETATM    3  C   UNL     1      25.464  45.933  51.233  1.00  0.00     0.006 C 
HETATM    4  C   UNL     1      25.241  44.693  50.494  1.00  0.00    -0.031 C 
HETATM    5  C   UNL     1      25.362  43.580  51.304  1.00  0.00     0.017 C 
HETATM    6  C   UNL     1      24.953  44.529  49.023  1.00  0.00     0.068 C 
HETATM    7  C   UNL     1      25.179  42.166  50.870  1.00  0.00     0.281 C 
HETATM    8  S   UNL     1      25.736  43.969  52.903  1.00  0.00    -0.074 SA
HETATM    9  N   UNL     1      25.343  42.036  49.360  1.00  0.00    -0.067 N 
HETATM   10  H   UNL     1      24.940  41.126  49.103  1.00  0.00     0.280 HD
HETATM   11  C   UNL     1      24.491  43.102  48.665  1.00  0.00     0.240 C 
HETATM   12  C   UNL     1      25.873  45.627  52.532  1.00  0.00     0.089 C 
BRANCH   9  13
HETATM   13  C   UNL     1      26.781  42.036  48.886  1.00  0.00     0.231 C 
HETATM   14  C   UNL     1      27.627  41.070  49.696  1.00  0.00     0.034 C 
ENDBRANCH   9  13
BRANCH  12  15
HETATM   15  N   UNL     1      26.408  46.462  53.538  1.00  0.00    -0.327 N 
HETATM   16  C   UNL     1      25.826  47.595  54.092  1.00  0.00     0.097 A 
HETATM   17  C   UNL     1      26.639  48.105  55.079  1.00  0.00     0.019 A 
HETATM   18  C   UNL     1      27.753  47.254  55.176  1.00  0.00     0.019 A 
HETATM   19  C   UNL     1      27.582  46.254  54.244  1.00  0.00     0.097 A 
ENDBRANCH  12  15
ENDBRANCH   1   3
BRANCH   1  20
HETATM   20  N   UNL     1      24.042  47.343  49.868  1.00  0.00    -0.334 N 
HETATM   21  C   UNL     1      23.581  48.529  49.344  1.00  0.00     0.321 C 
HETATM   22  N   UNL     1      22.612  48.406  48.387  1.00  0.00    -0.306 N 
HETATM   23  O   UNL     1      24.062  49.622  49.614  1.00  0.00    -0.247 OA
HETATM   24  H   UNL     1      22.582  49.184  47.732  1.00  0.00     0.171 HD
HETATM   25  H   UNL     1      23.949  46.590  49.201  1.00  0.00     0.165 HD
BRANCH  22  26
HETATM   26  C   UNL     1      21.690  47.370  48.146  1.00  0.00     0.071 A 
HETATM   27  C   UNL     1      20.427  47.434  48.759  1.00  0.00     0.097 A 
HETATM   28  C   UNL     1      19.494  46.410  48.548  1.00  0.00     0.077 A 
HETATM   29  C   UNL     1      19.808  45.320  47.722  1.00  0.00     0.092 A 
HETATM   30  C   UNL     1      21.083  45.256  47.142  1.00  0.00     0.069 A 
HETATM   31 CL   UNL     1      21.567  43.936  46.131  1.00  0.00    -0.081 Cl
HETATM   32  C   UNL     1      22.019  46.266  47.363  1.00  0.00     0.059 A 
BRANCH  27  33
HETATM   33  O   UNL     1      20.202  48.539  49.543  1.00  0.00    -0.354 OA
HETATM   34  C   UNL     1      18.961  48.576  50.242  1.00  0.00     0.210 C 
ENDBRANCH  27  33
BRANCH  29  35
HETATM   35  O   UNL     1      18.957  44.284  47.444  1.00  0.00    -0.354 OA
HETATM   36  C   UNL     1      18.019  44.457  46.389  1.00  0.00     0.210 C 
ENDBRANCH  29  35
ENDBRANCH  22  26
ENDBRANCH   1  20
TORSDOF 7
ENDMDL
MODEL 2
REMARK VINA RESULT:      -7.8      3.604      5.566
REMARK  7 active torsions:
REMARK  status: ('A' for Active; 'I' for Inactive)
REMARK    1  A    between atoms: C_2  and  N_3 
REMARK    2  A    between atoms: C_8  and  C_9 
REMARK    3  A    between atoms: C_9  and  N_10 
REMARK       I    between atoms: N_10  and  C_11 
REMARK       I    between atoms: C_11  and  N_12 
REMARK    4  A    between atoms: N_12  and  C_13 
REMARK    5  A    between atoms: C_14  and  O_15 
REMARK    6  A    between atoms: C_18  and  O_19 
REMARK    7  A    between atoms: C_26  and  N_27 
ROOT
HETATM    1  C   UNL     1      22.833  49.539  48.922  1.00  0.00     0.118 C 
HETATM    2  C   UNL     1      23.644  50.220  47.822  1.00  0.00     0.037 C 
ENDROOT
BRANCH   1   3
HETATM    3  C   UNL     1      22.710  48.035  48.713  1.00  0.00     0.006 C 
HETATM    4  C   UNL     1      21.710  47.389  47.867  1.00  0.00    -0.031 C 
HETATM    5  C   UNL     1      21.745  46.012  47.987  1.00  0.00     0.017 C 
HETATM    6  C   UNL     1      20.742  48.039  46.912  1.00  0.00     0.068 C 
HETATM    7  C   UNL     1      20.850  45.055  47.277  1.00  0.00     0.281 C 
HETATM    8  S   UNL     1      22.929  45.477  49.064  1.00  0.00    -0.074 SA
HETATM    9  N   UNL     1      20.238  45.701  46.039  1.00  0.00    -0.067 N 
HETATM   10  H   UNL     1      19.444  45.108  45.767  1.00  0.00     0.280 HD
HETATM   11  C   UNL     1      19.653  47.065  46.417  1.00  0.00     0.240 C 
HETATM   12  C   UNL     1      23.513  47.061  49.304  1.00  0.00     0.089 C 
BRANCH   9  13
HETATM   13  C   UNL     1      21.169  45.773  44.848  1.00  0.00     0.231 C 
HETATM   14  C   UNL     1      20.415  46.135  43.581  1.00  0.00     0.034 C 
ENDBRANCH   9  13
BRANCH  12  15
HETATM   15  N   UNL     1      24.727  47.190  50.015  1.00  0.00    -0.327 N 
HETATM   16  C   UNL     1      25.888  47.826  49.595  1.00  0.00     0.097 A 
HETATM   17  C   UNL     1      26.836  47.779  50.592  1.00  0.00     0.019 A 
HETATM   18  C   UNL     1      26.250  47.122  51.688  1.00  0.00     0.019 A 
HETATM   19  C   UNL     1      24.964  46.790  51.321  1.00  0.00     0.097 A 
ENDBRANCH  12  15
ENDBRANCH   1   3
BRANCH   1  20
HETATM   20  N   UNL     1      21.494  50.112  49.012  1.00  0.00    -0.334 N 
HETATM   21  C   UNL     1      21.177  50.941  50.062  1.00  0.00     0.321 C 
HETATM   22  N   UNL     1      20.016  51.649  49.917  1.00  0.00    -0.306 N 
HETATM   23  O   UNL     1      21.916  51.137  51.019  1.00  0.00    -0.247 OA
HETATM   24  H   UNL     1      19.999  52.521  50.441  1.00  0.00     0.171 HD
HETATM   25  H   UNL     1      21.107  50.457  48.146  1.00  0.00     0.165 HD
BRANCH  22  26
HETATM   26  C   UNL     1      18.874  51.382  49.138  1.00  0.00     0.071 A 
HETATM   27  C   UNL     1      17.942  50.440  49.605  1.00  0.00     0.097 A 
HETATM   28  C   UNL     1      16.804  50.145  48.843  1.00  0.00     0.077 A 
HETATM   29  C   UNL     1      16.580  50.789  47.617  1.00  0.00     0.092 A 
HETATM   30  C   UNL     1      17.534  51.705  47.151  1.00  0.00     0.069 A 
HETATM   31 CL   UNL     1      17.355  52.528  45.638  1.00  0.00    -0.081 Cl
HETATM   32  C   UNL     1      18.677  51.989  47.899  1.00  0.00     0.059 A 
BRANCH  27  33
HETATM   33  O   UNL     1      18.236  49.864  50.816  1.00  0.00    -0.354 OA
HETATM   34  C   UNL     1      18.585  48.482  50.792  1.00  0.00     0.210 C 
ENDBRANCH  27  33
BRANCH  29  35
HETATM   35  O   UNL     1      15.491  50.579  46.815  1.00  0.00    -0.354 OA
HETATM   36  C   UNL     1      14.983  49.255  46.713  1.00  0.00     0.210 C 
ENDBRANCH  29  35
ENDBRANCH  22  26
ENDBRANCH   1  20
TORSDOF 7
ENDMDL
MODEL 3
REMARK VINA RESULT:      -7.8      1.826      2.372
REMARK  7 active torsions:
REMARK  status: ('A' for Active; 'I' for Inactive)
REMARK    1  A    between atoms: C_2  and  N_3 
REMARK    2  A    between atoms: C_8  and  C_9 
REMARK    3  A    between atoms: C_9  and  N_10 
REMARK       I    between atoms: N_10  and  C_11 
REMARK       I    between atoms: C_11  and  N_12 
REMARK    4  A    between atoms: N_12  and  C_13 
REMARK    5  A    between atoms: C_14  and  O_15 
REMARK    6  A    between atoms: C_18  and  O_19 
REMARK    7  A    between atoms: C_26  and  N_27 
ROOT
HETATM    1  C   UNL     1      25.505  47.551  50.566  1.00  0.00     0.118 C 
HETATM    2  C   UNL     1      26.694  47.668  49.615  1.00  0.00     0.037 C 
ENDROOT
BRANCH   1   3
HETATM    3  C   UNL     1      25.353  46.150  51.143  1.00  0.00     0.006 C 
HETATM    4  C   UNL     1      24.873  44.988  50.400  1.00  0.00    -0.031 C 
HETATM    5  C   UNL     1      24.698  43.888  51.219  1.00  0.00     0.017 C 
HETATM    6  C   UNL     1      24.610  44.877  48.919  1.00  0.00     0.068 C 
HETATM    7  C   UNL     1      24.205  42.551  50.783  1.00  0.00     0.281 C 
HETATM    8  S   UNL     1      25.093  44.199  52.829  1.00  0.00    -0.074 SA
HETATM    9  N   UNL     1      24.391  42.367  49.281  1.00  0.00    -0.067 N 
HETATM   10  H   UNL     1      23.794  41.574  49.011  1.00  0.00     0.280 HD
HETATM   11  C   UNL     1      23.840  43.594  48.549  1.00  0.00     0.240 C 
HETATM   12  C   UNL     1      25.629  45.774  52.457  1.00  0.00     0.089 C 
BRANCH   9  13
HETATM   13  C   UNL     1      25.805  42.023  48.864  1.00  0.00     0.231 C 
HETATM   14  C   UNL     1      26.363  40.884  49.699  1.00  0.00     0.034 C 
ENDBRANCH   9  13
BRANCH  12  15
HETATM   15  N   UNL     1      26.307  46.473  53.481  1.00  0.00    -0.327 N 
HETATM   16  C   UNL     1      25.896  47.632  54.127  1.00  0.00     0.097 A 
HETATM   17  C   UNL     1      26.808  47.976  55.099  1.00  0.00     0.019 A 
HETATM   18  C   UNL     1      27.810  46.990  55.092  1.00  0.00     0.019 A 
HETATM   19  C   UNL     1      27.475  46.079  54.115  1.00  0.00     0.097 A 
ENDBRANCH  12  15
ENDBRANCH   1   3
BRANCH   1  20
HETATM   20  N   UNL     1      24.264  47.920  49.895  1.00  0.00    -0.334 N 
HETATM   21  C   UNL     1      24.265  48.940  48.973  1.00  0.00     0.321 C 
HETATM   22  N   UNL     1      23.142  49.027  48.197  1.00  0.00    -0.306 N 
HETATM   23  O   UNL     1      25.231  49.664  48.762  1.00  0.00    -0.247 OA
HETATM   24  H   UNL     1      23.303  49.462  47.291  1.00  0.00     0.171 HD
HETATM   25  H   UNL     1      23.688  47.150  49.586  1.00  0.00     0.165 HD
BRANCH  22  26
HETATM   26  C   UNL     1      21.828  48.581  48.436  1.00  0.00     0.071 A 
HETATM   27  C   UNL     1      21.366  47.445  47.752  1.00  0.00     0.097 A 
HETATM   28  C   UNL     1      20.058  46.986  47.960  1.00  0.00     0.077 A 
HETATM   29  C   UNL     1      19.205  47.650  48.854  1.00  0.00     0.092 A 
HETATM   30  C   UNL     1      19.672  48.800  49.507  1.00  0.00     0.069 A 
HETATM   31 CL   UNL     1      18.681  49.698  50.608  1.00  0.00    -0.081 Cl
HETATM   32  C   UNL     1      20.968  49.268  49.290  1.00  0.00     0.059 A 
BRANCH  27  33
HETATM   33  O   UNL     1      22.269  46.854  46.903  1.00  0.00    -0.354 OA
HETATM   34  C   UNL     1      21.814  45.702  46.197  1.00  0.00     0.210 C 
ENDBRANCH  27  33
BRANCH  29  35
HETATM   35  O   UNL     1      17.921  47.267  49.136  1.00  0.00    -0.354 OA
HETATM   36  C   UNL     1      17.306  46.316  48.276  1.00  0.00     0.210 C 
ENDBRANCH  29  35
ENDBRANCH  22  26
ENDBRANCH   1  20
TORSDOF 7
ENDMDL
MODEL 4
REMARK VINA RESULT:      -7.3      3.713      8.117
REMARK  7 active torsions:
REMARK  status: ('A' for Active; 'I' for Inactive)
REMARK    1  A    between atoms: C_2  and  N_3 
REMARK    2  A    between atoms: C_8  and  C_9 
REMARK    3  A    between atoms: C_9  and  N_10 
REMARK       I    between atoms: N_10  and  C_11 
REMARK       I    between atoms: C_11  and  N_12 
REMARK    4  A    between atoms: N_12  and  C_13 
REMARK    5  A    between atoms: C_14  and  O_15 
REMARK    6  A    between atoms: C_18  and  O_19 
REMARK    7  A    between atoms: C_26  and  N_27 
ROOT
HETATM    1  C   UNL     1      19.464  49.158  49.723  1.00  0.00     0.118 C 
HETATM    2  C   UNL     1      18.638  48.342  50.716  1.00  0.00     0.037 C 
ENDROOT
BRANCH   1   3
HETATM    3  C   UNL     1      18.801  49.260  48.355  1.00  0.00     0.006 C 
HETATM    4  C   UNL     1      19.016  48.329  47.251  1.00  0.00    -0.031 C 
HETATM    5  C   UNL     1      18.400  48.756  46.089  1.00  0.00     0.017 C 
HETATM    6  C   UNL     1      19.759  47.017  47.274  1.00  0.00     0.068 C 
HETATM    7  C   UNL     1      18.436  48.049  44.778  1.00  0.00     0.281 C 
HETATM    8  S   UNL     1      17.578  50.216  46.280  1.00  0.00    -0.074 SA
HETATM    9  N   UNL     1      18.786  46.577  44.963  1.00  0.00    -0.067 N 
HETATM   10  H   UNL     1      19.063  46.227  44.037  1.00  0.00     0.280 HD
HETATM   11  C   UNL     1      20.021  46.460  45.861  1.00  0.00     0.240 C 
HETATM   12  C   UNL     1      17.913  50.257  47.952  1.00  0.00     0.089 C 
BRANCH   9  13
HETATM   13  C   UNL     1      17.634  45.716  45.438  1.00  0.00     0.231 C 
HETATM   14  C   UNL     1      18.004  44.244  45.422  1.00  0.00     0.034 C 
ENDBRANCH   9  13
BRANCH  12  15
HETATM   15  N   UNL     1      17.240  51.239  48.712  1.00  0.00    -0.327 N 
HETATM   16  C   UNL     1      17.797  52.333  49.361  1.00  0.00     0.097 A 
HETATM   17  C   UNL     1      16.805  53.082  49.953  1.00  0.00     0.019 A 
HETATM   18  C   UNL     1      15.581  52.464  49.645  1.00  0.00     0.019 A 
HETATM   19  C   UNL     1      15.868  51.358  48.875  1.00  0.00     0.097 A 
ENDBRANCH  12  15
ENDBRANCH   1   3
BRANCH   1  20
HETATM   20  N   UNL     1      20.795  48.583  49.558  1.00  0.00    -0.334 N 
HETATM   21  C   UNL     1      21.877  49.412  49.377  1.00  0.00     0.321 C 
HETATM   22  N   UNL     1      23.100  48.815  49.515  1.00  0.00    -0.306 N 
HETATM   23  O   UNL     1      21.785  50.622  49.213  1.00  0.00    -0.247 OA
HETATM   24  H   UNL     1      23.839  49.454  49.798  1.00  0.00     0.171 HD
HETATM   25  H   UNL     1      21.022  47.818  50.177  1.00  0.00     0.165 HD
BRANCH  22  26
HETATM   26  C   UNL     1      23.481  47.467  49.369  1.00  0.00     0.071 A 
HETATM   27  C   UNL     1      24.751  47.072  49.823  1.00  0.00     0.097 A 
HETATM   28  C   UNL     1      25.162  45.740  49.678  1.00  0.00     0.077 A 
HETATM   29  C   UNL     1      24.313  44.793  49.087  1.00  0.00     0.092 A 
HETATM   30  C   UNL     1      23.061  45.210  48.612  1.00  0.00     0.069 A 
HETATM   31 CL   UNL     1      21.958  44.116  47.846  1.00  0.00    -0.081 Cl
HETATM   32  C   UNL     1      22.655  46.538  48.740  1.00  0.00     0.059 A 
BRANCH  27  33
HETATM   33  O   UNL     1      25.512  48.061  50.395  1.00  0.00    -0.354 OA
HETATM   34  C   UNL     1      26.709  48.414  49.707  1.00  0.00     0.210 C 
ENDBRANCH  27  33
BRANCH  29  35
HETATM   35  O   UNL     1      24.619  43.469  48.919  1.00  0.00    -0.354 OA
HETATM   36  C   UNL     1      24.499  42.609  50.045  1.00  0.00     0.210 C 
ENDBRANCH  29  35
ENDBRANCH  22  26
ENDBRANCH   1  20
TORSDOF 7
ENDMDL
MODEL 5
REMARK VINA RESULT:      -7.3      2.858      4.667
REMARK  7 active torsions:
REMARK  status: ('A' for Active; 'I' for Inactive)
REMARK    1  A    between atoms: C_2  and  N_3 
REMARK    2  A    between atoms: C_8  and  C_9 
REMARK    3  A    between atoms: C_9  and  N_10 
REMARK       I    between atoms: N_10  and  C_11 
REMARK       I    between atoms: C_11  and  N_12 
REMARK    4  A    between atoms: N_12  and  C_13 
REMARK    5  A    between atoms: C_14  and  O_15 
REMARK    6  A    between atoms: C_18  and  O_19 
REMARK    7  A    between atoms: C_26  and  N_27 
ROOT
HETATM    1  C   UNL     1      23.324  45.505  47.991  1.00  0.00     0.118 C 
HETATM    2  C   UNL     1      22.864  44.053  47.885  1.00  0.00     0.037 C 
ENDROOT
BRANCH   1   3
HETATM    3  C   UNL     1      24.040  45.797  49.303  1.00  0.00     0.006 C 
HETATM    4  C   UNL     1      24.563  44.783  50.214  1.00  0.00    -0.031 C 
HETATM    5  C   UNL     1      25.027  45.337  51.392  1.00  0.00     0.017 C 
HETATM    6  C   UNL     1      24.675  43.297  49.982  1.00  0.00     0.068 C 
HETATM    7  C   UNL     1      25.608  44.580  52.538  1.00  0.00     0.281 C 
HETATM    8  S   UNL     1      24.862  47.015  51.439  1.00  0.00    -0.074 SA
HETATM    9  N   UNL     1      26.101  43.210  52.089  1.00  0.00    -0.067 N 
HETATM   10  H   UNL     1      26.223  42.653  52.944  1.00  0.00     0.280 HD
HETATM   11  C   UNL     1      25.005  42.520  51.272  1.00  0.00     0.240 C 
HETATM   12  C   UNL     1      24.284  47.064  49.835  1.00  0.00     0.089 C 
BRANCH   9  13
HETATM   13  C   UNL     1      27.437  43.230  51.376  1.00  0.00     0.231 C 
HETATM   14  C   UNL     1      28.587  43.320  52.363  1.00  0.00     0.034 C 
ENDBRANCH   9  13
BRANCH  12  15
HETATM   15  N   UNL     1      24.166  48.340  49.240  1.00  0.00    -0.327 N 
HETATM   16  C   UNL     1      23.125  49.247  49.388  1.00  0.00     0.097 A 
HETATM   17  C   UNL     1      23.402  50.398  48.686  1.00  0.00     0.019 A 
HETATM   18  C   UNL     1      24.670  50.229  48.102  1.00  0.00     0.019 A 
HETATM   19  C   UNL     1      25.122  48.981  48.467  1.00  0.00     0.097 A 
ENDBRANCH  12  15
ENDBRANCH   1   3
BRANCH   1  20
HETATM   20  N   UNL     1      22.196  46.420  47.858  1.00  0.00    -0.334 N 
HETATM   21  C   UNL     1      21.599  46.593  46.631  1.00  0.00     0.321 C 
HETATM   22  N   UNL     1      20.392  47.235  46.654  1.00  0.00    -0.306 N 
HETATM   23  O   UNL     1      22.039  46.119  45.591  1.00  0.00    -0.247 OA
HETATM   24  H   UNL     1      19.786  46.996  45.873  1.00  0.00     0.171 HD
HETATM   25  H   UNL     1      21.506  46.374  48.595  1.00  0.00     0.165 HD
BRANCH  22  26
HETATM   26  C   UNL     1      19.851  48.131  47.595  1.00  0.00     0.071 A 
HETATM   27  C   UNL     1      18.953  47.638  48.558  1.00  0.00     0.097 A 
HETATM   28  C   UNL     1      18.388  48.510  49.498  1.00  0.00     0.077 A 
HETATM   29  C   UNL     1      18.716  49.874  49.493  1.00  0.00     0.092 A 
HETATM   30  C   UNL     1      19.591  50.355  48.507  1.00  0.00     0.069 A 
HETATM   31 CL   UNL     1      20.032  52.027  48.407  1.00  0.00    -0.081 Cl
HETATM   32  C   UNL     1      20.142  49.493  47.559  1.00  0.00     0.059 A 
BRANCH  27  33
HETATM   33  O   UNL     1      18.694  46.291  48.495  1.00  0.00    -0.354 OA
HETATM   34  C   UNL     1      17.395  45.917  48.044  1.00  0.00     0.210 C 
ENDBRANCH  27  33
BRANCH  29  35
HETATM   35  O   UNL     1      18.230  50.796  50.381  1.00  0.00    -0.354 OA
HETATM   36  C   UNL     1      17.158  51.629  49.956  1.00  0.00     0.210 C 
ENDBRANCH  29  35
ENDBRANCH  22  26
ENDBRANCH   1  20
TORSDOF 7
ENDMDL
MODEL 6
REMARK VINA RESULT:      -7.1      5.365      8.891
REMARK  7 active torsions:
REMARK  status: ('A' for Active; 'I' for Inactive)
REMARK    1  A    between atoms: C_2  and  N_3 
REMARK    2  A    between atoms: C_8  and  C_9 
REMARK    3  A    between atoms: C_9  and  N_10 
REMARK       I    between atoms: N_10  and  C_11 
REMARK       I    between atoms: C_11  and  N_12 
REMARK    4  A    between atoms: N_12  and  C_13 
REMARK    5  A    between atoms: C_14  and  O_15 
REMARK    6  A    between atoms: C_18  and  O_19 
REMARK    7  A    between atoms: C_26  and  N_27 
ROOT
HETATM    1  C   UNL     1      17.272  49.354  46.922  1.00  0.00     0.118 C 
HETATM    2  C   UNL     1      17.556  49.778  45.482  1.00  0.00     0.037 C 
ENDROOT
BRANCH   1   3
HETATM    3  C   UNL     1      17.954  50.257  47.942  1.00  0.00     0.006 C 
HETATM    4  C   UNL     1      19.271  50.015  48.524  1.00  0.00    -0.031 C 
HETATM    5  C   UNL     1      19.566  50.918  49.528  1.00  0.00     0.017 C 
HETATM    6  C   UNL     1      20.283  48.969  48.127  1.00  0.00     0.068 C 
HETATM    7  C   UNL     1      20.818  50.941  50.336  1.00  0.00     0.281 C 
HETATM    8  S   UNL     1      18.330  52.038  49.787  1.00  0.00    -0.074 SA
HETATM    9  N   UNL     1      21.940  50.198  49.619  1.00  0.00    -0.067 N 
HETATM   10  H   UNL     1      22.661  50.013  50.327  1.00  0.00     0.280 HD
HETATM   11  C   UNL     1      21.426  48.833  49.153  1.00  0.00     0.240 C 
HETATM   12  C   UNL     1      17.420  51.428  48.480  1.00  0.00     0.089 C 
BRANCH   9  13
HETATM   13  C   UNL     1      22.599  50.987  48.507  1.00  0.00     0.231 C 
HETATM   14  C   UNL     1      23.833  50.275  47.983  1.00  0.00     0.034 C 
ENDBRANCH   9  13
BRANCH  12  15
HETATM   15  N   UNL     1      16.293  52.182  48.084  1.00  0.00    -0.327 N 
HETATM   16  C   UNL     1      15.420  52.888  48.901  1.00  0.00     0.097 A 
HETATM   17  C   UNL     1      14.477  53.533  48.133  1.00  0.00     0.019 A 
HETATM   18  C   UNL     1      14.777  53.253  46.789  1.00  0.00     0.019 A 
HETATM   19  C   UNL     1      15.894  52.447  46.783  1.00  0.00     0.097 A 
ENDBRANCH  12  15
ENDBRANCH   1   3
BRANCH   1  20
HETATM   20  N   UNL     1      17.699  47.979  47.153  1.00  0.00    -0.334 N 
HETATM   21  C   UNL     1      16.928  47.148  47.932  1.00  0.00     0.321 C 
HETATM   22  N   UNL     1      17.247  45.820  47.862  1.00  0.00    -0.306 N 
HETATM   23  O   UNL     1      15.950  47.526  48.565  1.00  0.00    -0.247 OA
HETATM   24  H   UNL     1      16.468  45.200  48.071  1.00  0.00     0.171 HD
HETATM   25  H   UNL     1      18.059  47.490  46.345  1.00  0.00     0.165 HD
BRANCH  22  26
HETATM   26  C   UNL     1      18.455  45.187  47.512  1.00  0.00     0.071 A 
HETATM   27  C   UNL     1      18.474  44.339  46.392  1.00  0.00     0.097 A 
HETATM   28  C   UNL     1      19.659  43.686  46.028  1.00  0.00     0.077 A 
HETATM   29  C   UNL     1      20.833  43.875  46.772  1.00  0.00     0.092 A 
HETATM   30  C   UNL     1      20.790  44.700  47.905  1.00  0.00     0.069 A 
HETATM   31 CL   UNL     1      22.184  44.971  48.897  1.00  0.00    -0.081 Cl
HETATM   32  C   UNL     1      19.609  45.340  48.278  1.00  0.00     0.059 A 
BRANCH  27  33
HETATM   33  O   UNL     1      17.283  44.218  45.718  1.00  0.00    -0.354 OA
HETATM   34  C   UNL     1      17.365  43.787  44.362  1.00  0.00     0.210 C 
ENDBRANCH  27  33
BRANCH  29  35
HETATM   35  O   UNL     1      22.039  43.294  46.484  1.00  0.00    -0.354 OA
HETATM   36  C   UNL     1      22.853  43.906  45.491  1.00  0.00     0.210 C 
ENDBRANCH  29  35
ENDBRANCH  22  26
ENDBRANCH   1  20
TORSDOF 7
ENDMDL
MODEL 7
REMARK VINA RESULT:      -7.0      2.750      3.622
REMARK  7 active torsions:
REMARK  status: ('A' for Active; 'I' for Inactive)
REMARK    1  A    between atoms: C_2  and  N_3 
REMARK    2  A    between atoms: C_8  and  C_9 
REMARK    3  A    between atoms: C_9  and  N_10 
REMARK       I    between atoms: N_10  and  C_11 
REMARK       I    between atoms: C_11  and  N_12 
REMARK    4  A    between atoms: N_12  and  C_13 
REMARK    5  A    between atoms: C_14  and  O_15 
REMARK    6  A    between atoms: C_18  and  O_19 
REMARK    7  A    between atoms: C_26  and  N_27 
ROOT
HETATM    1  C   UNL     1      26.651  44.396  50.781  1.00  0.00     0.118 C 
HETATM    2  C   UNL     1      27.590  45.384  50.092  1.00  0.00     0.037 C 
ENDROOT
BRANCH   1   3
HETATM    3  C   UNL     1      27.167  42.964  50.727  1.00  0.00     0.006 C 
HETATM    4  C   UNL     1      26.872  42.008  49.663  1.00  0.00    -0.031 C 
HETATM    5  C   UNL     1      27.352  40.745  49.957  1.00  0.00     0.017 C 
HETATM    6  C   UNL     1      26.178  42.266  48.350  1.00  0.00     0.068 C 
HETATM    7  C   UNL     1      27.206  39.539  49.093  1.00  0.00     0.281 C 
HETATM    8  S   UNL     1      28.142  40.672  51.446  1.00  0.00    -0.074 SA
HETATM    9  N   UNL     1      26.925  39.936  47.649  1.00  0.00    -0.067 N 
HETATM   10  H   UNL     1      26.566  39.093  47.183  1.00  0.00     0.280 HD
HETATM   11  C   UNL     1      25.791  40.965  47.619  1.00  0.00     0.240 C 
HETATM   12  C   UNL     1      27.977  42.352  51.684  1.00  0.00     0.089 C 
BRANCH   9  13
HETATM   13  C   UNL     1      28.146  40.387  46.876  1.00  0.00     0.231 C 
HETATM   14  C   UNL     1      27.785  40.774  45.453  1.00  0.00     0.034 C 
ENDBRANCH   9  13
BRANCH  12  15
HETATM   15  N   UNL     1      28.693  42.914  52.765  1.00  0.00    -0.327 N 
HETATM   16  C   UNL     1      28.208  43.775  53.742  1.00  0.00     0.097 A 
HETATM   17  C   UNL     1      29.202  44.061  54.650  1.00  0.00     0.019 A 
HETATM   18  C   UNL     1      30.341  43.338  54.257  1.00  0.00     0.019 A 
HETATM   19  C   UNL     1      30.002  42.635  53.122  1.00  0.00     0.097 A 
ENDBRANCH  12  15
ENDBRANCH   1   3
BRANCH   1  20
HETATM   20  N   UNL     1      25.321  44.437  50.182  1.00  0.00    -0.334 N 
HETATM   21  C   UNL     1      24.210  44.478  50.991  1.00  0.00     0.321 C 
HETATM   22  N   UNL     1      23.040  44.800  50.361  1.00  0.00    -0.306 N 
HETATM   23  O   UNL     1      24.253  44.350  52.209  1.00  0.00    -0.247 OA
HETATM   24  H   UNL     1      22.350  45.231  50.972  1.00  0.00     0.171 HD
HETATM   25  H   UNL     1      25.217  45.055  49.389  1.00  0.00     0.165 HD
BRANCH  22  26
HETATM   26  C   UNL     1      22.661  44.666  49.011  1.00  0.00     0.071 A 
HETATM   27  C   UNL     1      22.488  45.828  48.241  1.00  0.00     0.097 A 
HETATM   28  C   UNL     1      22.099  45.725  46.898  1.00  0.00     0.077 A 
HETATM   29  C   UNL     1      21.886  44.469  46.313  1.00  0.00     0.092 A 
HETATM   30  C   UNL     1      22.034  43.320  47.104  1.00  0.00     0.069 A 
HETATM   31 CL   UNL     1      21.766  41.729  46.473  1.00  0.00    -0.081 Cl
HETATM   32  C   UNL     1      22.406  43.419  48.444  1.00  0.00     0.059 A 
BRANCH  27  33
HETATM   33  O   UNL     1      22.725  47.014  48.891  1.00  0.00    -0.354 OA
HETATM   34  C   UNL     1      21.710  48.009  48.782  1.00  0.00     0.210 C 
ENDBRANCH  27  33
BRANCH  29  35
HETATM   35  O   UNL     1      21.522  44.269  45.008  1.00  0.00    -0.354 OA
HETATM   36  C   UNL     1      20.313  44.865  44.554  1.00  0.00     0.210 C 
ENDBRANCH  29  35
ENDBRANCH  22  26
ENDBRANCH   1  20
TORSDOF 7
ENDMDL
MODEL 8
REMARK VINA RESULT:      -6.7      2.047      2.627
REMARK  7 active torsions:
REMARK  status: ('A' for Active; 'I' for Inactive)
REMARK    1  A    between atoms: C_2  and  N_3 
REMARK    2  A    between atoms: C_8  and  C_9 
REMARK    3  A    between atoms: C_9  and  N_10 
REMARK       I    between atoms: N_10  and  C_11 
REMARK       I    between atoms: C_11  and  N_12 
REMARK    4  A    between atoms: N_12  and  C_13 
REMARK    5  A    between atoms: C_14  and  O_15 
REMARK    6  A    between atoms: C_18  and  O_19 
REMARK    7  A    between atoms: C_26  and  N_27 
ROOT
HETATM    1  C   UNL     1      24.651  46.825  50.383  1.00  0.00     0.118 C 
HETATM    2  C   UNL     1      25.841  47.273  49.537  1.00  0.00     0.037 C 
ENDROOT
BRANCH   1   3
HETATM    3  C   UNL     1      24.493  45.310  50.414  1.00  0.00     0.006 C 
HETATM    4  C   UNL     1      23.753  44.527  49.428  1.00  0.00    -0.031 C 
HETATM    5  C   UNL     1      23.655  43.197  49.794  1.00  0.00     0.017 C 
HETATM    6  C   UNL     1      23.164  44.997  48.122  1.00  0.00     0.068 C 
HETATM    7  C   UNL     1      22.952  42.134  49.021  1.00  0.00     0.281 C 
HETATM    8  S   UNL     1      24.420  42.861  51.260  1.00  0.00    -0.074 SA
HETATM    9  N   UNL     1      22.787  42.542  47.562  1.00  0.00    -0.067 N 
HETATM   10  H   UNL     1      22.073  41.917  47.167  1.00  0.00     0.280 HD
HETATM   11  C   UNL     1      22.211  43.959  47.495  1.00  0.00     0.240 C 
HETATM   12  C   UNL     1      25.012  44.455  51.386  1.00  0.00     0.089 C 
BRANCH   9  13
HETATM   13  C   UNL     1      24.037  42.377  46.723  1.00  0.00     0.231 C 
HETATM   14  C   UNL     1      23.725  42.493  45.242  1.00  0.00     0.034 C 
ENDBRANCH   9  13
BRANCH  12  15
HETATM   15  N   UNL     1      25.961  44.702  52.403  1.00  0.00    -0.327 N 
HETATM   16  C   UNL     1      25.748  45.336  53.620  1.00  0.00     0.097 A 
HETATM   17  C   UNL     1      26.911  45.339  54.357  1.00  0.00     0.019 A 
HETATM   18  C   UNL     1      27.881  44.660  53.600  1.00  0.00     0.019 A 
HETATM   19  C   UNL     1      27.276  44.266  52.427  1.00  0.00     0.097 A 
ENDBRANCH  12  15
ENDBRANCH   1   3
BRANCH   1  20
HETATM   20  N   UNL     1      23.411  47.416  49.892  1.00  0.00    -0.334 N 
HETATM   21  C   UNL     1      23.421  48.693  49.382  1.00  0.00     0.321 C 
HETATM   22  N   UNL     1      22.296  49.055  48.694  1.00  0.00    -0.306 N 
HETATM   23  O   UNL     1      24.394  49.435  49.430  1.00  0.00    -0.247 OA
HETATM   24  H   UNL     1      22.458  49.776  47.994  1.00  0.00     0.171 HD
HETATM   25  H   UNL     1      22.825  46.807  49.338  1.00  0.00     0.165 HD
BRANCH  22  26
HETATM   26  C   UNL     1      20.978  48.566  48.773  1.00  0.00     0.071 A 
HETATM   27  C   UNL     1      20.025  49.306  49.493  1.00  0.00     0.097 A 
HETATM   28  C   UNL     1      18.709  48.836  49.600  1.00  0.00     0.077 A 
HETATM   29  C   UNL     1      18.331  47.633  48.987  1.00  0.00     0.092 A 
HETATM   30  C   UNL     1      19.301  46.892  48.296  1.00  0.00     0.069 A 
HETATM   31 CL   UNL     1      18.930  45.383  47.530  1.00  0.00    -0.081 Cl
HETATM   32  C   UNL     1      20.615  47.348  48.202  1.00  0.00     0.059 A 
BRANCH  27  33
HETATM   33  O   UNL     1      20.480  50.474  50.055  1.00  0.00    -0.354 OA
HETATM   34  C   UNL     1      19.614  51.602  49.957  1.00  0.00     0.210 C 
ENDBRANCH  27  33
BRANCH  29  35
HETATM   35  O   UNL     1      17.068  47.105  49.021  1.00  0.00    -0.354 OA
HETATM   36  C   UNL     1      16.061  47.734  48.237  1.00  0.00     0.210 C 
ENDBRANCH  29  35
ENDBRANCH  22  26
ENDBRANCH   1  20
TORSDOF 7
ENDMDL
MODEL 9
REMARK VINA RESULT:      -6.7     20.047     22.124
REMARK  7 active torsions:
REMARK  status: ('A' for Active; 'I' for Inactive)
REMARK    1  A    between atoms: C_2  and  N_3 
REMARK    2  A    between atoms: C_8  and  C_9 
REMARK    3  A    between atoms: C_9  and  N_10 
REMARK       I    between atoms: N_10  and  C_11 
REMARK       I    between atoms: C_11  and  N_12 
REMARK    4  A    between atoms: N_12  and  C_13 
REMARK    5  A    between atoms: C_14  and  O_15 
REMARK    6  A    between atoms: C_18  and  O_19 
REMARK    7  A    between atoms: C_26  and  N_27 
ROOT
HETATM    1  C   UNL     1      37.517  48.258  65.627  1.00  0.00     0.118 C 
HETATM    2  C   UNL     1      37.670  48.950  64.274  1.00  0.00     0.037 C 
ENDROOT
BRANCH   1   3
HETATM    3  C   UNL     1      38.771  48.368  66.485  1.00  0.00     0.006 C 
HETATM    4  C   UNL     1      39.886  47.426  66.459  1.00  0.00    -0.031 C 
HETATM    5  C   UNL     1      40.814  47.697  67.448  1.00  0.00     0.017 C 
HETATM    6  C   UNL     1      40.121  46.292  65.494  1.00  0.00     0.068 C 
HETATM    7  C   UNL     1      42.058  46.918  67.709  1.00  0.00     0.281 C 
HETATM    8  S   UNL     1      40.397  49.033  68.391  1.00  0.00    -0.074 SA
HETATM    9  N   UNL     1      42.462  46.113  66.479  1.00  0.00    -0.067 N 
HETATM   10  H   UNL     1      43.136  45.409  66.804  1.00  0.00     0.280 HD
HETATM   11  C   UNL     1      41.246  45.344  65.956  1.00  0.00     0.240 C 
HETATM   12  C   UNL     1      39.032  49.365  67.425  1.00  0.00     0.089 C 
BRANCH   9  13
HETATM   13  C   UNL     1      43.150  46.924  65.401  1.00  0.00     0.231 C 
HETATM   14  C   UNL     1      43.594  46.042  64.248  1.00  0.00     0.034 C 
ENDBRANCH   9  13
BRANCH  12  15
HETATM   15  N   UNL     1      38.373  50.593  67.657  1.00  0.00    -0.327 N 
HETATM   16  C   UNL     1      37.635  50.957  68.776  1.00  0.00     0.097 A 
HETATM   17  C   UNL     1      37.193  52.254  68.645  1.00  0.00     0.019 A 
HETATM   18  C   UNL     1      37.690  52.738  67.423  1.00  0.00     0.019 A 
HETATM   19  C   UNL     1      38.419  51.719  66.850  1.00  0.00     0.097 A 
ENDBRANCH  12  15
ENDBRANCH   1   3
BRANCH   1  20
HETATM   20  N   UNL     1      37.188  46.848  65.456  1.00  0.00    -0.334 N 
HETATM   21  C   UNL     1      36.047  46.340  66.031  1.00  0.00     0.321 C 
HETATM   22  N   UNL     1      35.672  45.101  65.590  1.00  0.00    -0.306 N 
HETATM   23  O   UNL     1      35.336  46.973  66.802  1.00  0.00    -0.247 OA
HETATM   24  H   UNL     1      34.675  44.920  65.674  1.00  0.00     0.171 HD
HETATM   25  H   UNL     1      37.324  46.476  64.526  1.00  0.00     0.165 HD
BRANCH  22  26
HETATM   26  C   UNL     1      36.433  44.068  65.009  1.00  0.00     0.071 A 
HETATM   27  C   UNL     1      36.195  42.744  65.416  1.00  0.00     0.097 A 
HETATM   28  C   UNL     1      36.947  41.697  64.865  1.00  0.00     0.077 A 
HETATM   29  C   UNL     1      37.934  41.959  63.903  1.00  0.00     0.092 A 
HETATM   30  C   UNL     1      38.179  43.289  63.531  1.00  0.00     0.069 A 
HETATM   31 CL   UNL     1      39.396  43.708  62.371  1.00  0.00    -0.081 Cl
HETATM   32  C   UNL     1      37.444  44.334  64.088  1.00  0.00     0.059 A 
BRANCH  27  33
HETATM   33  O   UNL     1      35.207  42.579  66.354  1.00  0.00    -0.354 OA
HETATM   34  C   UNL     1      34.062  41.836  65.944  1.00  0.00     0.210 C 
ENDBRANCH  27  33
BRANCH  29  35
HETATM   35  O   UNL     1      38.704  41.003  63.297  1.00  0.00    -0.354 OA
HETATM   36  C   UNL     1      39.184  39.929  64.097  1.00  0.00     0.210 C 
ENDBRANCH  29  35
ENDBRANCH  22  26
ENDBRANCH   1  20
TORSDOF 7
ENDMDL
MODEL 10
REMARK VINA RESULT:      -6.6      5.926      9.313
REMARK  7 active torsions:
REMARK  status: ('A' for Active; 'I' for Inactive)
REMARK    1  A    between atoms: C_2  and  N_3 
REMARK    2  A    between atoms: C_8  and  C_9 
REMARK    3  A    between atoms: C_9  and  N_10 
REMARK       I    between atoms: N_10  and  C_11 
REMARK       I    between atoms: C_11  and  N_12 
REMARK    4  A    between atoms: N_12  and  C_13 
REMARK    5  A    between atoms: C_14  and  O_15 
REMARK    6  A    between atoms: C_18  and  O_19 
REMARK    7  A    between atoms: C_26  and  N_27 
ROOT
HETATM    1  C   UNL     1      18.079  48.398  47.378  1.00  0.00     0.118 C 
HETATM    2  C   UNL     1      16.685  48.195  47.968  1.00  0.00     0.037 C 
ENDROOT
BRANCH   1   3
HETATM    3  C   UNL     1      18.884  49.450  48.129  1.00  0.00     0.006 C 
HETATM    4  C   UNL     1      20.274  49.296  48.550  1.00  0.00    -0.031 C 
HETATM    5  C   UNL     1      20.693  50.351  49.339  1.00  0.00     0.017 C 
HETATM    6  C   UNL     1      21.235  48.191  48.192  1.00  0.00     0.068 C 
HETATM    7  C   UNL     1      22.047  50.496  49.947  1.00  0.00     0.281 C 
HETATM    8  S   UNL     1      19.490  51.509  49.582  1.00  0.00    -0.074 SA
HETATM    9  N   UNL     1      23.067  49.636  49.211  1.00  0.00    -0.067 N 
HETATM   10  H   UNL     1      23.884  49.564  49.831  1.00  0.00     0.280 HD
HETATM   11  C   UNL     1      22.513  48.217  49.054  1.00  0.00     0.240 C 
HETATM   12  C   UNL     1      18.414  50.699  48.537  1.00  0.00     0.089 C 
BRANCH   9  13
HETATM   13  C   UNL     1      23.551  50.224  47.902  1.00  0.00     0.231 C 
HETATM   14  C   UNL     1      25.062  50.137  47.785  1.00  0.00     0.034 C 
ENDBRANCH   9  13
BRANCH  12  15
HETATM   15  N   UNL     1      17.231  51.386  48.185  1.00  0.00    -0.327 N 
HETATM   16  C   UNL     1      16.236  51.845  49.038  1.00  0.00     0.097 A 
HETATM   17  C   UNL     1      15.269  52.509  48.317  1.00  0.00     0.019 A 
HETATM   18  C   UNL     1      15.678  52.499  46.973  1.00  0.00     0.019 A 
HETATM   19  C   UNL     1      16.880  51.829  46.919  1.00  0.00     0.097 A 
ENDBRANCH  12  15
ENDBRANCH   1   3
BRANCH   1  20
HETATM   20  N   UNL     1      17.998  48.782  45.973  1.00  0.00    -0.334 N 
HETATM   21  C   UNL     1      17.986  47.810  45.001  1.00  0.00     0.321 C 
HETATM   22  N   UNL     1      17.626  48.237  43.753  1.00  0.00    -0.306 N 
HETATM   23  O   UNL     1      18.172  46.620  45.228  1.00  0.00    -0.247 OA
HETATM   24  H   UNL     1      17.219  47.508  43.171  1.00  0.00     0.171 HD
HETATM   25  H   UNL     1      17.343  49.520  45.758  1.00  0.00     0.165 HD
BRANCH  22  26
HETATM   26  C   UNL     1      17.693  49.516  43.169  1.00  0.00     0.071 A 
HETATM   27  C   UNL     1      16.626  50.408  43.373  1.00  0.00     0.097 A 
HETATM   28  C   UNL     1      16.660  51.684  42.793  1.00  0.00     0.077 A 
HETATM   29  C   UNL     1      17.756  52.083  42.014  1.00  0.00     0.092 A 
HETATM   30  C   UNL     1      18.798  51.170  41.795  1.00  0.00     0.069 A 
HETATM   31 CL   UNL     1      20.178  51.566  40.825  1.00  0.00    -0.081 Cl
HETATM   32  C   UNL     1      18.761  49.895  42.357  1.00  0.00     0.059 A 
BRANCH  27  33
HETATM   33  O   UNL     1      15.600  49.939  44.155  1.00  0.00    -0.354 OA
HETATM   34  C   UNL     1      14.329  49.812  43.521  1.00  0.00     0.210 C 
ENDBRANCH  27  33
BRANCH  29  35
HETATM   35  O   UNL     1      17.886  53.311  41.423  1.00  0.00    -0.354 OA
HETATM   36  C   UNL     1      16.734  53.884  40.817  1.00  0.00     0.210 C 
ENDBRANCH  29  35
ENDBRANCH  22  26
ENDBRANCH   1  20
TORSDOF 7
ENDMDL
