MODEL 1
REMARK VINA RESULT:      -9.3      0.000      0.000
REMARK  7 active torsions:
REMARK  status: ('A' for Active; 'I' for Inactive)
REMARK    1  A    between atoms: N_7  and  C_8 
REMARK    2  A    between atoms: C_8  and  C_9 
REMARK       I    between atoms: C_9  and  N_10 
REMARK    3  A    between atoms: N_10  and  C_11 
REMARK    4  A    between atoms: C_11  and  C_12 
REMARK    5  A    between atoms: C_12  and  C_13 
REMARK    6  A    between atoms: C_12  and  C_23 
REMARK    7  A    between atoms: C_26  and  O_27 
ROOT
HETATM    1  C   UNL     1      24.009  45.248  50.315  1.00  0.00     0.136 C 
ENDROOT
BRANCH   1   2
HETATM    2  N   UNL     1      23.639  45.259  48.905  1.00  0.00    -0.359 N 
HETATM    3  C   UNL     1      22.559  44.467  48.535  1.00  0.00     0.236 C 
HETATM    4  O   UNL     1      22.100  43.597  49.275  1.00  0.00    -0.272 OA
HETATM    5  H   UNL     1      23.748  46.130  48.396  1.00  0.00     0.162 HD
BRANCH   3   6
HETATM    6  C   UNL     1      21.822  44.884  47.269  1.00  0.00     0.239 C 
BRANCH   6   7
HETATM    7  N   UNL     1      20.727  45.809  47.454  1.00  0.00    -0.259 N 
HETATM    8  C   UNL     1      19.502  45.437  47.910  1.00  0.00     0.326 C 
HETATM    9  N   UNL     1      18.770  46.571  48.165  1.00  0.00    -0.324 N 
HETATM   10  O   UNL     1      19.090  44.310  48.118  1.00  0.00    -0.247 OA
HETATM   11  C   UNL     1      19.579  47.779  48.115  1.00  0.00     0.119 C 
HETATM   12  H   UNL     1      17.876  46.483  48.632  1.00  0.00     0.165 HD
HETATM   13  C   UNL     1      18.856  48.880  47.314  1.00  0.00     0.019 C 
HETATM   14  C   UNL     1      20.844  47.169  47.457  1.00  0.00     0.257 C 
HETATM   15  C   UNL     1      19.959  48.223  49.540  1.00  0.00     0.041 C 
HETATM   16  C   UNL     1      19.768  50.035  46.885  1.00  0.00     0.013 C 
HETATM   17  C   UNL     1      17.662  49.428  48.129  1.00  0.00     0.007 C 
HETATM   18  C   UNL     1      18.053  49.886  49.534  1.00  0.00     0.001 C 
HETATM   19  C   UNL     1      18.769  48.789  50.313  1.00  0.00     0.003 C 
HETATM   20  O   UNL     1      21.844  47.783  47.104  1.00  0.00    -0.270 OA
ENDBRANCH   6   7
ENDBRANCH   3   6
ENDBRANCH   1   2
BRANCH   1  21
HETATM   21  C   UNL     1      24.660  46.486  50.956  1.00  0.00     0.071 C 
BRANCH  21  22
HETATM   22  C   UNL     1      25.311  47.499  50.042  1.00  0.00    -0.020 A 
HETATM   23  C   UNL     1      24.635  48.631  49.451  1.00  0.00    -0.001 A 
HETATM   24  C   UNL     1      25.554  49.309  48.651  1.00  0.00     0.042 A 
HETATM   25  C   UNL     1      23.320  49.139  49.524  1.00  0.00     0.014 A 
HETATM   26  C   UNL     1      25.228  50.458  47.920  1.00  0.00     0.030 A 
HETATM   27  N   UNL     1      26.747  48.640  48.756  1.00  0.00    -0.365 N 
HETATM   28  C   UNL     1      23.917  50.935  48.011  1.00  0.00     0.002 A 
HETATM   29  C   UNL     1      22.975  50.288  48.804  1.00  0.00     0.001 A 
HETATM   30  H   UNL     1      27.601  48.913  48.287  1.00  0.00     0.165 HD
HETATM   31  C   UNL     1      26.618  47.563  49.593  1.00  0.00     0.097 A 
ENDBRANCH  21  22
BRANCH  21  32
HETATM   32  C   UNL     1      25.611  46.222  52.109  1.00  0.00    -0.048 A 
HETATM   33  C   UNL     1      26.300  44.998  52.153  1.00  0.00     0.011 A 
HETATM   34  C   UNL     1      27.198  44.713  53.182  1.00  0.00     0.037 A 
HETATM   35  C   UNL     1      27.434  45.641  54.194  1.00  0.00     0.068 A 
HETATM   36  C   UNL     1      26.755  46.860  54.168  1.00  0.00     0.037 A 
HETATM   37  C   UNL     1      25.857  47.151  53.130  1.00  0.00     0.011 A 
BRANCH  35  38
HETATM   38  O   UNL     1      28.336  45.234  55.138  1.00  0.00    -0.356 OA
HETATM   39  C   UNL     1      28.478  46.058  56.286  1.00  0.00     0.210 C 
ENDBRANCH  35  38
ENDBRANCH  21  32
ENDBRANCH   1  21
TORSDOF 7
ENDMDL
MODEL 2
REMARK VINA RESULT:      -9.2      1.235      2.069
REMARK  7 active torsions:
REMARK  status: ('A' for Active; 'I' for Inactive)
REMARK    1  A    between atoms: N_7  and  C_8 
REMARK    2  A    between atoms: C_8  and  C_9 
REMARK       I    between atoms: C_9  and  N_10 
REMARK    3  A    between atoms: N_10  and  C_11 
REMARK    4  A    between atoms: C_11  and  C_12 
REMARK    5  A    between atoms: C_12  and  C_13 
REMARK    6  A    between atoms: C_12  and  C_23 
REMARK    7  A    between atoms: C_26  and  O_27 
ROOT
HETATM    1  C   UNL     1      24.039  45.290  50.159  1.00  0.00     0.136 C 
ENDROOT
BRANCH   1   2
HETATM    2  N   UNL     1      23.024  45.601  49.161  1.00  0.00    -0.359 N 
HETATM    3  C   UNL     1      21.906  44.775  49.127  1.00  0.00     0.236 C 
HETATM    4  O   UNL     1      21.877  43.687  49.704  1.00  0.00    -0.272 OA
HETATM    5  H   UNL     1      22.862  46.578  48.941  1.00  0.00     0.162 HD
BRANCH   3   6
HETATM    6  C   UNL     1      20.639  45.382  48.540  1.00  0.00     0.239 C 
BRANCH   6   7
HETATM    7  N   UNL     1      20.650  46.818  48.369  1.00  0.00    -0.259 N 
HETATM    8  C   UNL     1      21.271  47.443  47.334  1.00  0.00     0.326 C 
HETATM    9  N   UNL     1      20.919  48.770  47.354  1.00  0.00    -0.324 N 
HETATM   10  O   UNL     1      21.986  46.949  46.481  1.00  0.00    -0.247 OA
HETATM   11  C   UNL     1      19.835  49.045  48.284  1.00  0.00     0.119 C 
HETATM   12  H   UNL     1      21.190  49.361  46.577  1.00  0.00     0.165 HD
HETATM   13  C   UNL     1      20.147  50.301  49.122  1.00  0.00     0.019 C 
HETATM   14  C   UNL     1      19.847  47.692  49.042  1.00  0.00     0.257 C 
HETATM   15  C   UNL     1      18.497  49.146  47.526  1.00  0.00     0.041 C 
HETATM   16  C   UNL     1      19.266  50.450  50.368  1.00  0.00     0.013 C 
HETATM   17  C   UNL     1      20.031  51.566  48.241  1.00  0.00     0.007 C 
HETATM   18  C   UNL     1      18.692  51.668  47.510  1.00  0.00     0.001 C 
HETATM   19  C   UNL     1      18.395  50.419  46.688  1.00  0.00     0.003 C 
HETATM   20  O   UNL     1      19.162  47.401  50.015  1.00  0.00    -0.270 OA
ENDBRANCH   6   7
ENDBRANCH   3   6
ENDBRANCH   1   2
BRANCH   1  21
HETATM   21  C   UNL     1      24.808  46.423  50.863  1.00  0.00     0.071 C 
BRANCH  21  22
HETATM   22  C   UNL     1      25.653  47.342  50.011  1.00  0.00    -0.020 A 
HETATM   23  C   UNL     1      25.163  48.523  49.336  1.00  0.00    -0.001 A 
HETATM   24  C   UNL     1      26.227  49.086  48.632  1.00  0.00     0.042 A 
HETATM   25  C   UNL     1      23.907  49.163  49.263  1.00  0.00     0.014 A 
HETATM   26  C   UNL     1      26.099  50.244  47.855  1.00  0.00     0.030 A 
HETATM   27  N   UNL     1      27.326  48.302  48.872  1.00  0.00    -0.365 N 
HETATM   28  C   UNL     1      24.842  50.854  47.800  1.00  0.00     0.002 A 
HETATM   29  C   UNL     1      23.760  50.324  48.495  1.00  0.00     0.001 A 
HETATM   30  H   UNL     1      28.248  48.476  48.494  1.00  0.00     0.165 HD
HETATM   31  C   UNL     1      26.999  47.263  49.703  1.00  0.00     0.097 A 
ENDBRANCH  21  22
BRANCH  21  32
HETATM   32  C   UNL     1      25.632  46.023  52.073  1.00  0.00    -0.048 A 
HETATM   33  C   UNL     1      25.778  46.941  53.127  1.00  0.00     0.011 A 
HETATM   34  C   UNL     1      26.510  46.617  54.269  1.00  0.00     0.037 A 
HETATM   35  C   UNL     1      27.116  45.368  54.391  1.00  0.00     0.068 A 
HETATM   36  C   UNL     1      26.985  44.446  53.353  1.00  0.00     0.037 A 
HETATM   37  C   UNL     1      26.242  44.768  52.207  1.00  0.00     0.011 A 
BRANCH  35  38
HETATM   38  O   UNL     1      27.801  45.183  55.560  1.00  0.00    -0.356 OA
HETATM   39  C   UNL     1      29.176  45.540  55.561  1.00  0.00     0.210 C 
ENDBRANCH  35  38
ENDBRANCH  21  32
ENDBRANCH   1  21
TORSDOF 7
ENDMDL
MODEL 3
REMARK VINA RESULT:      -9.1     20.509     22.962
REMARK  7 active torsions:
REMARK  status: ('A' for Active; 'I' for Inactive)
REMARK    1  A    between atoms: N_7  and  C_8 
REMARK    2  A    between atoms: C_8  and  C_9 
REMARK       I    between atoms: C_9  and  N_10 
REMARK    3  A    between atoms: N_10  and  C_11 
REMARK    4  A    between atoms: C_11  and  C_12 
REMARK    5  A    between atoms: C_12  and  C_13 
REMARK    6  A    between atoms: C_12  and  C_23 
REMARK    7  A    between atoms: C_26  and  O_27 
ROOT
HETATM    1  C   UNL     1      37.066  42.085  64.162  1.00  0.00     0.136 C 
ENDROOT
BRANCH   1   2
HETATM    2  N   UNL     1      36.285  43.310  64.272  1.00  0.00    -0.359 N 
HETATM    3  C   UNL     1      35.774  43.616  65.527  1.00  0.00     0.236 C 
HETATM    4  O   UNL     1      35.736  42.790  66.439  1.00  0.00    -0.272 OA
HETATM    5  H   UNL     1      36.564  44.101  63.700  1.00  0.00     0.162 HD
BRANCH   3   6
HETATM    6  C   UNL     1      35.478  45.086  65.793  1.00  0.00     0.239 C 
BRANCH   6   7
HETATM    7  N   UNL     1      36.597  45.990  65.643  1.00  0.00    -0.259 N 
HETATM    8  C   UNL     1      36.997  46.491  64.444  1.00  0.00     0.326 C 
HETATM    9  N   UNL     1      37.939  47.465  64.674  1.00  0.00    -0.324 N 
HETATM   10  O   UNL     1      36.589  46.197  63.335  1.00  0.00    -0.247 OA
HETATM   11  C   UNL     1      38.035  47.827  66.079  1.00  0.00     0.119 C 
HETATM   12  H   UNL     1      38.254  48.034  63.898  1.00  0.00     0.165 HD
HETATM   13  C   UNL     1      39.511  47.913  66.515  1.00  0.00     0.019 C 
HETATM   14  C   UNL     1      37.212  46.651  66.666  1.00  0.00     0.257 C 
HETATM   15  C   UNL     1      37.253  49.127  66.346  1.00  0.00     0.041 C 
HETATM   16  C   UNL     1      39.709  47.911  68.035  1.00  0.00     0.013 C 
HETATM   17  C   UNL     1      40.171  49.168  65.900  1.00  0.00     0.007 C 
HETATM   18  C   UNL     1      39.399  50.456  66.190  1.00  0.00     0.001 C 
HETATM   19  C   UNL     1      37.941  50.356  65.756  1.00  0.00     0.003 C 
HETATM   20  O   UNL     1      37.034  46.414  67.855  1.00  0.00    -0.270 OA
ENDBRANCH   6   7
ENDBRANCH   3   6
ENDBRANCH   1   2
BRANCH   1  21
HETATM   21  C   UNL     1      38.425  42.093  63.440  1.00  0.00     0.071 C 
BRANCH  21  22
HETATM   22  C   UNL     1      39.126  40.771  63.232  1.00  0.00    -0.020 A 
HETATM   23  C   UNL     1      39.772  40.006  64.275  1.00  0.00    -0.001 A 
HETATM   24  C   UNL     1      40.327  38.868  63.691  1.00  0.00     0.042 A 
HETATM   25  C   UNL     1      39.934  40.182  65.666  1.00  0.00     0.014 A 
HETATM   26  C   UNL     1      41.039  37.906  64.419  1.00  0.00     0.030 A 
HETATM   27  N   UNL     1      40.026  38.916  62.353  1.00  0.00    -0.365 N 
HETATM   28  C   UNL     1      41.184  38.110  65.794  1.00  0.00     0.002 A 
HETATM   29  C   UNL     1      40.638  39.230  66.412  1.00  0.00     0.001 A 
HETATM   30  H   UNL     1      40.296  38.213  61.679  1.00  0.00     0.165 HD
HETATM   31  C   UNL     1      39.299  40.043  62.068  1.00  0.00     0.097 A 
ENDBRANCH  21  22
BRANCH  21  32
HETATM   32  C   UNL     1      39.451  43.087  63.954  1.00  0.00    -0.048 A 
HETATM   33  C   UNL     1      40.443  43.553  63.074  1.00  0.00     0.011 A 
HETATM   34  C   UNL     1      41.399  44.480  63.491  1.00  0.00     0.037 A 
HETATM   35  C   UNL     1      41.390  44.968  64.796  1.00  0.00     0.068 A 
HETATM   36  C   UNL     1      40.414  44.514  65.683  1.00  0.00     0.037 A 
HETATM   37  C   UNL     1      39.448  43.587  65.263  1.00  0.00     0.011 A 
BRANCH  35  38
HETATM   38  O   UNL     1      42.380  45.870  65.070  1.00  0.00    -0.356 OA
HETATM   39  C   UNL     1      43.489  45.894  64.182  1.00  0.00     0.210 C 
ENDBRANCH  35  38
ENDBRANCH  21  32
ENDBRANCH   1  21
TORSDOF 7
ENDMDL
MODEL 4
REMARK VINA RESULT:      -9.1      5.717      9.921
REMARK  7 active torsions:
REMARK  status: ('A' for Active; 'I' for Inactive)
REMARK    1  A    between atoms: N_7  and  C_8 
REMARK    2  A    between atoms: C_8  and  C_9 
REMARK       I    between atoms: C_9  and  N_10 
REMARK    3  A    between atoms: N_10  and  C_11 
REMARK    4  A    between atoms: C_11  and  C_12 
REMARK    5  A    between atoms: C_12  and  C_13 
REMARK    6  A    between atoms: C_12  and  C_23 
REMARK    7  A    between atoms: C_26  and  O_27 
ROOT
HETATM    1  C   UNL     1      27.627  42.043  53.216  1.00  0.00     0.136 C 
ENDROOT
BRANCH   1   2
HETATM    2  N   UNL     1      28.243  40.931  52.504  1.00  0.00    -0.359 N 
HETATM    3  C   UNL     1      27.626  40.523  51.327  1.00  0.00     0.236 C 
HETATM    4  O   UNL     1      26.486  40.877  51.027  1.00  0.00    -0.272 OA
HETATM    5  H   UNL     1      29.255  40.861  52.524  1.00  0.00     0.162 HD
BRANCH   3   6
HETATM    6  C   UNL     1      28.513  39.808  50.316  1.00  0.00     0.239 C 
BRANCH   6   7
HETATM    7  N   UNL     1      27.856  39.363  49.108  1.00  0.00    -0.259 N 
HETATM    8  C   UNL     1      27.794  40.108  47.972  1.00  0.00     0.326 C 
HETATM    9  N   UNL     1      27.292  39.322  46.964  1.00  0.00    -0.324 N 
HETATM   10  O   UNL     1      28.153  41.261  47.812  1.00  0.00    -0.247 OA
HETATM   11  C   UNL     1      27.219  37.918  47.336  1.00  0.00     0.119 C 
HETATM   12  H   UNL     1      27.296  39.679  46.016  1.00  0.00     0.165 HD
HETATM   13  C   UNL     1      25.861  37.319  46.918  1.00  0.00     0.019 C 
HETATM   14  C   UNL     1      27.459  38.081  48.859  1.00  0.00     0.257 C 
HETATM   15  C   UNL     1      28.420  37.151  46.751  1.00  0.00     0.041 C 
HETATM   16  C   UNL     1      25.541  35.980  47.593  1.00  0.00     0.013 C 
HETATM   17  C   UNL     1      25.803  37.161  45.382  1.00  0.00     0.007 C 
HETATM   18  C   UNL     1      26.988  36.379  44.813  1.00  0.00     0.001 C 
HETATM   19  C   UNL     1      28.323  36.981  45.236  1.00  0.00     0.003 C 
HETATM   20  O   UNL     1      27.421  37.189  49.698  1.00  0.00    -0.270 OA
ENDBRANCH   6   7
ENDBRANCH   3   6
ENDBRANCH   1   2
BRANCH   1  21
HETATM   21  C   UNL     1      27.978  43.494  52.842  1.00  0.00     0.071 C 
BRANCH  21  22
HETATM   22  C   UNL     1      28.325  44.451  53.959  1.00  0.00    -0.020 A 
HETATM   23  C   UNL     1      29.359  44.230  54.943  1.00  0.00    -0.001 A 
HETATM   24  C   UNL     1      29.356  45.315  55.820  1.00  0.00     0.042 A 
HETATM   25  C   UNL     1      30.300  43.201  55.166  1.00  0.00     0.014 A 
HETATM   26  C   UNL     1      30.233  45.420  56.906  1.00  0.00     0.030 A 
HETATM   27  N   UNL     1      28.378  46.175  55.390  1.00  0.00    -0.365 N 
HETATM   28  C   UNL     1      31.152  44.385  57.102  1.00  0.00     0.002 A 
HETATM   29  C   UNL     1      31.188  43.290  56.245  1.00  0.00     0.001 A 
HETATM   30  H   UNL     1      28.154  47.056  55.832  1.00  0.00     0.165 HD
HETATM   31  C   UNL     1      27.761  45.676  54.272  1.00  0.00     0.097 A 
ENDBRANCH  21  22
BRANCH  21  32
HETATM   32  C   UNL     1      27.010  44.199  51.909  1.00  0.00    -0.048 A 
HETATM   33  C   UNL     1      25.666  44.333  52.302  1.00  0.00     0.011 A 
HETATM   34  C   UNL     1      24.740  44.987  51.490  1.00  0.00     0.037 A 
HETATM   35  C   UNL     1      25.128  45.527  50.265  1.00  0.00     0.068 A 
HETATM   36  C   UNL     1      26.457  45.400  49.859  1.00  0.00     0.037 A 
HETATM   37  C   UNL     1      27.391  44.749  50.678  1.00  0.00     0.011 A 
BRANCH  35  38
HETATM   38  O   UNL     1      24.122  46.140  49.572  1.00  0.00    -0.356 OA
HETATM   39  C   UNL     1      23.988  47.544  49.743  1.00  0.00     0.210 C 
ENDBRANCH  35  38
ENDBRANCH  21  32
ENDBRANCH   1  21
TORSDOF 7
ENDMDL
MODEL 5
REMARK VINA RESULT:      -8.9     20.460     22.919
REMARK  7 active torsions:
REMARK  status: ('A' for Active; 'I' for Inactive)
REMARK    1  A    between atoms: N_7  and  C_8 
REMARK    2  A    between atoms: C_8  and  C_9 
REMARK       I    between atoms: C_9  and  N_10 
REMARK    3  A    between atoms: N_10  and  C_11 
REMARK    4  A    between atoms: C_11  and  C_12 
REMARK    5  A    between atoms: C_12  and  C_13 
REMARK    6  A    between atoms: C_12  and  C_23 
REMARK    7  A    between atoms: C_26  and  O_27 
ROOT
HETATM    1  C   UNL     1      37.080  41.984  64.459  1.00  0.00     0.136 C 
ENDROOT
BRANCH   1   2
HETATM    2  N   UNL     1      36.282  43.201  64.389  1.00  0.00    -0.359 N 
HETATM    3  C   UNL     1      35.743  43.666  65.582  1.00  0.00     0.236 C 
HETATM    4  O   UNL     1      35.699  42.971  66.598  1.00  0.00    -0.272 OA
HETATM    5  H   UNL     1      36.561  43.911  63.720  1.00  0.00     0.162 HD
BRANCH   3   6
HETATM    6  C   UNL     1      35.424  45.154  65.641  1.00  0.00     0.239 C 
BRANCH   6   7
HETATM    7  N   UNL     1      36.559  46.045  65.548  1.00  0.00    -0.259 N 
HETATM    8  C   UNL     1      37.026  46.541  64.371  1.00  0.00     0.326 C 
HETATM    9  N   UNL     1      37.965  47.504  64.648  1.00  0.00    -0.324 N 
HETATM   10  O   UNL     1      36.672  46.250  63.242  1.00  0.00    -0.247 OA
HETATM   11  C   UNL     1      37.993  47.867  66.056  1.00  0.00     0.119 C 
HETATM   12  H   UNL     1      38.326  48.069  63.889  1.00  0.00     0.165 HD
HETATM   13  C   UNL     1      39.446  47.937  66.567  1.00  0.00     0.019 C 
HETATM   14  C   UNL     1      37.128  46.701  66.601  1.00  0.00     0.257 C 
HETATM   15  C   UNL     1      37.213  49.176  66.282  1.00  0.00     0.041 C 
HETATM   16  C   UNL     1      39.566  47.934  68.096  1.00  0.00     0.013 C 
HETATM   17  C   UNL     1      40.151  49.184  65.986  1.00  0.00     0.007 C 
HETATM   18  C   UNL     1      39.379  50.480  66.235  1.00  0.00     0.001 C 
HETATM   19  C   UNL     1      37.944  50.396  65.727  1.00  0.00     0.003 C 
HETATM   20  O   UNL     1      36.886  46.467  67.779  1.00  0.00    -0.270 OA
ENDBRANCH   6   7
ENDBRANCH   3   6
ENDBRANCH   1   2
BRANCH   1  21
HETATM   21  C   UNL     1      38.580  42.059  64.796  1.00  0.00     0.071 C 
BRANCH  21  22
HETATM   22  C   UNL     1      39.368  43.237  64.272  1.00  0.00    -0.020 A 
HETATM   23  C   UNL     1      40.344  43.982  65.034  1.00  0.00    -0.001 A 
HETATM   24  C   UNL     1      40.830  45.007  64.222  1.00  0.00     0.042 A 
HETATM   25  C   UNL     1      40.859  43.875  66.344  1.00  0.00     0.014 A 
HETATM   26  C   UNL     1      41.792  45.930  64.652  1.00  0.00     0.030 A 
HETATM   27  N   UNL     1      40.197  44.893  63.010  1.00  0.00    -0.365 N 
HETATM   28  C   UNL     1      42.280  45.799  65.955  1.00  0.00     0.002 A 
HETATM   29  C   UNL     1      41.823  44.785  66.791  1.00  0.00     0.001 A 
HETATM   30  H   UNL     1      40.360  45.502  62.220  1.00  0.00     0.165 HD
HETATM   31  C   UNL     1      39.329  43.833  63.023  1.00  0.00     0.097 A 
ENDBRANCH  21  22
BRANCH  21  32
HETATM   32  C   UNL     1      39.391  40.803  64.531  1.00  0.00    -0.048 A 
HETATM   33  C   UNL     1      40.221  40.304  65.550  1.00  0.00     0.011 A 
HETATM   34  C   UNL     1      40.973  39.145  65.363  1.00  0.00     0.037 A 
HETATM   35  C   UNL     1      40.917  38.450  64.157  1.00  0.00     0.068 A 
HETATM   36  C   UNL     1      40.101  38.934  63.133  1.00  0.00     0.037 A 
HETATM   37  C   UNL     1      39.338  40.096  63.322  1.00  0.00     0.011 A 
BRANCH  35  38
HETATM   38  O   UNL     1      41.702  37.332  64.109  1.00  0.00    -0.356 OA
HETATM   39  C   UNL     1      42.976  37.416  64.733  1.00  0.00     0.210 C 
ENDBRANCH  35  38
ENDBRANCH  21  32
ENDBRANCH   1  21
TORSDOF 7
ENDMDL
MODEL 6
REMARK VINA RESULT:      -8.9      5.062      9.102
REMARK  7 active torsions:
REMARK  status: ('A' for Active; 'I' for Inactive)
REMARK    1  A    between atoms: N_7  and  C_8 
REMARK    2  A    between atoms: C_8  and  C_9 
REMARK       I    between atoms: C_9  and  N_10 
REMARK    3  A    between atoms: N_10  and  C_11 
REMARK    4  A    between atoms: C_11  and  C_12 
REMARK    5  A    between atoms: C_12  and  C_13 
REMARK    6  A    between atoms: C_12  and  C_23 
REMARK    7  A    between atoms: C_26  and  O_27 
ROOT
HETATM    1  C   UNL     1      27.601  41.892  52.951  1.00  0.00     0.136 C 
ENDROOT
BRANCH   1   2
HETATM    2  N   UNL     1      28.263  40.809  52.235  1.00  0.00    -0.359 N 
HETATM    3  C   UNL     1      27.663  40.379  51.058  1.00  0.00     0.236 C 
HETATM    4  O   UNL     1      26.508  40.685  50.760  1.00  0.00    -0.272 OA
HETATM    5  H   UNL     1      29.277  40.782  52.254  1.00  0.00     0.162 HD
BRANCH   3   6
HETATM    6  C   UNL     1      28.578  39.705  50.044  1.00  0.00     0.239 C 
BRANCH   6   7
HETATM    7  N   UNL     1      27.961  39.332  48.791  1.00  0.00    -0.259 N 
HETATM    8  C   UNL     1      27.234  38.195  48.624  1.00  0.00     0.326 C 
HETATM    9  N   UNL     1      26.624  38.246  47.395  1.00  0.00    -0.324 N 
HETATM   10  O   UNL     1      27.079  37.282  49.415  1.00  0.00    -0.247 OA
HETATM   11  C   UNL     1      26.730  39.557  46.774  1.00  0.00     0.119 C 
HETATM   12  H   UNL     1      25.940  37.537  47.157  1.00  0.00     0.165 HD
HETATM   13  C   UNL     1      27.129  39.421  45.291  1.00  0.00     0.019 C 
HETATM   14  C   UNL     1      27.799  40.163  47.720  1.00  0.00     0.257 C 
HETATM   15  C   UNL     1      25.423  40.347  46.975  1.00  0.00     0.041 C 
HETATM   16  C   UNL     1      27.630  40.727  44.662  1.00  0.00     0.013 C 
HETATM   17  C   UNL     1      25.940  38.866  44.473  1.00  0.00     0.007 C 
HETATM   18  C   UNL     1      24.653  39.670  44.663  1.00  0.00     0.001 C 
HETATM   19  C   UNL     1      24.273  39.798  46.133  1.00  0.00     0.003 C 
HETATM   20  O   UNL     1      28.330  41.260  47.604  1.00  0.00    -0.270 OA
ENDBRANCH   6   7
ENDBRANCH   3   6
ENDBRANCH   1   2
BRANCH   1  21
HETATM   21  C   UNL     1      27.895  43.358  52.586  1.00  0.00     0.071 C 
BRANCH  21  22
HETATM   22  C   UNL     1      28.193  44.324  53.709  1.00  0.00    -0.020 A 
HETATM   23  C   UNL     1      29.240  44.149  54.691  1.00  0.00    -0.001 A 
HETATM   24  C   UNL     1      29.181  45.226  55.575  1.00  0.00     0.042 A 
HETATM   25  C   UNL     1      30.233  43.170  54.905  1.00  0.00     0.014 A 
HETATM   26  C   UNL     1      30.054  45.369  56.661  1.00  0.00     0.030 A 
HETATM   27  N   UNL     1      28.159  46.037  55.152  1.00  0.00    -0.365 N 
HETATM   28  C   UNL     1      31.025  44.382  56.848  1.00  0.00     0.002 A 
HETATM   29  C   UNL     1      31.117  43.297  55.983  1.00  0.00     0.001 A 
HETATM   30  H   UNL     1      27.890  46.902  55.602  1.00  0.00     0.165 HD
HETATM   31  C   UNL     1      27.567  45.515  54.032  1.00  0.00     0.097 A 
ENDBRANCH  21  22
BRANCH  21  32
HETATM   32  C   UNL     1      26.906  44.026  51.649  1.00  0.00    -0.048 A 
HETATM   33  C   UNL     1      25.532  43.934  51.934  1.00  0.00     0.011 A 
HETATM   34  C   UNL     1      24.583  44.545  51.115  1.00  0.00     0.037 A 
HETATM   35  C   UNL     1      24.978  45.265  49.989  1.00  0.00     0.068 A 
HETATM   36  C   UNL     1      26.337  45.364  49.689  1.00  0.00     0.037 A 
HETATM   37  C   UNL     1      27.293  44.756  50.516  1.00  0.00     0.011 A 
BRANCH  35  38
HETATM   38  O   UNL     1      23.947  45.812  49.276  1.00  0.00    -0.356 OA
HETATM   39  C   UNL     1      22.920  44.926  48.853  1.00  0.00     0.210 C 
ENDBRANCH  35  38
ENDBRANCH  21  32
ENDBRANCH   1  21
TORSDOF 7
ENDMDL
MODEL 7
REMARK VINA RESULT:      -8.9      4.864      8.773
REMARK  7 active torsions:
REMARK  status: ('A' for Active; 'I' for Inactive)
REMARK    1  A    between atoms: N_7  and  C_8 
REMARK    2  A    between atoms: C_8  and  C_9 
REMARK       I    between atoms: C_9  and  N_10 
REMARK    3  A    between atoms: N_10  and  C_11 
REMARK    4  A    between atoms: C_11  and  C_12 
REMARK    5  A    between atoms: C_12  and  C_13 
REMARK    6  A    between atoms: C_12  and  C_23 
REMARK    7  A    between atoms: C_26  and  O_27 
ROOT
HETATM    1  C   UNL     1      24.805  43.589  51.467  1.00  0.00     0.136 C 
ENDROOT
BRANCH   1   2
HETATM    2  N   UNL     1      24.904  42.192  51.066  1.00  0.00    -0.359 N 
HETATM    3  C   UNL     1      24.890  41.930  49.701  1.00  0.00     0.236 C 
HETATM    4  O   UNL     1      24.544  42.775  48.874  1.00  0.00    -0.272 OA
HETATM    5  H   UNL     1      25.482  41.578  51.631  1.00  0.00     0.162 HD
BRANCH   3   6
HETATM    6  C   UNL     1      25.545  40.628  49.259  1.00  0.00     0.239 C 
BRANCH   6   7
HETATM    7  N   UNL     1      26.440  40.727  48.129  1.00  0.00    -0.259 N 
HETATM    8  C   UNL     1      27.795  40.729  48.245  1.00  0.00     0.326 C 
HETATM    9  N   UNL     1      28.339  40.625  46.989  1.00  0.00    -0.324 N 
HETATM   10  O   UNL     1      28.459  40.766  49.266  1.00  0.00    -0.247 OA
HETATM   11  C   UNL     1      27.346  40.302  45.976  1.00  0.00     0.119 C 
HETATM   12  H   UNL     1      29.338  40.484  46.897  1.00  0.00     0.165 HD
HETATM   13  C   UNL     1      27.534  41.193  44.732  1.00  0.00     0.019 C 
HETATM   14  C   UNL     1      26.074  40.565  46.824  1.00  0.00     0.257 C 
HETATM   15  C   UNL     1      27.390  38.797  45.650  1.00  0.00     0.041 C 
HETATM   16  C   UNL     1      26.328  41.197  43.785  1.00  0.00     0.013 C 
HETATM   17  C   UNL     1      28.805  40.765  43.963  1.00  0.00     0.007 C 
HETATM   18  C   UNL     1      28.829  39.273  43.625  1.00  0.00     0.001 C 
HETATM   19  C   UNL     1      28.639  38.405  44.864  1.00  0.00     0.003 C 
HETATM   20  O   UNL     1      24.916  40.518  46.426  1.00  0.00    -0.270 OA
ENDBRANCH   6   7
ENDBRANCH   3   6
ENDBRANCH   1   2
BRANCH   1  21
HETATM   21  C   UNL     1      26.047  44.499  51.424  1.00  0.00     0.071 C 
BRANCH  21  22
HETATM   22  C   UNL     1      26.804  44.728  52.712  1.00  0.00    -0.020 A 
HETATM   23  C   UNL     1      28.048  44.082  53.063  1.00  0.00    -0.001 A 
HETATM   24  C   UNL     1      28.416  44.525  54.333  1.00  0.00     0.042 A 
HETATM   25  C   UNL     1      28.894  43.159  52.413  1.00  0.00     0.014 A 
HETATM   26  C   UNL     1      29.576  44.089  54.987  1.00  0.00     0.030 A 
HETATM   27  N   UNL     1      27.455  45.415  54.742  1.00  0.00    -0.365 N 
HETATM   28  C   UNL     1      30.393  43.173  54.318  1.00  0.00     0.002 A 
HETATM   29  C   UNL     1      30.060  42.714  53.048  1.00  0.00     0.001 A 
HETATM   30  H   UNL     1      27.466  45.904  55.627  1.00  0.00     0.165 HD
HETATM   31  C   UNL     1      26.492  45.553  53.778  1.00  0.00     0.097 A 
ENDBRANCH  21  22
BRANCH  21  32
HETATM   32  C   UNL     1      25.870  45.844  50.743  1.00  0.00    -0.048 A 
HETATM   33  C   UNL     1      24.577  46.386  50.640  1.00  0.00     0.011 A 
HETATM   34  C   UNL     1      24.362  47.626  50.039  1.00  0.00     0.037 A 
HETATM   35  C   UNL     1      25.429  48.360  49.526  1.00  0.00     0.068 A 
HETATM   36  C   UNL     1      26.719  47.834  49.616  1.00  0.00     0.037 A 
HETATM   37  C   UNL     1      26.937  46.590  50.227  1.00  0.00     0.011 A 
BRANCH  35  38
HETATM   38  O   UNL     1      25.078  49.556  48.966  1.00  0.00    -0.356 OA
HETATM   39  C   UNL     1      25.865  50.008  47.873  1.00  0.00     0.210 C 
ENDBRANCH  35  38
ENDBRANCH  21  32
ENDBRANCH   1  21
TORSDOF 7
ENDMDL
MODEL 8
REMARK VINA RESULT:      -8.8      2.443      5.034
REMARK  7 active torsions:
REMARK  status: ('A' for Active; 'I' for Inactive)
REMARK    1  A    between atoms: N_7  and  C_8 
REMARK    2  A    between atoms: C_8  and  C_9 
REMARK       I    between atoms: C_9  and  N_10 
REMARK    3  A    between atoms: N_10  and  C_11 
REMARK    4  A    between atoms: C_11  and  C_12 
REMARK    5  A    between atoms: C_12  and  C_13 
REMARK    6  A    between atoms: C_12  and  C_23 
REMARK    7  A    between atoms: C_26  and  O_27 
ROOT
HETATM    1  C   UNL     1      23.743  43.648  50.311  1.00  0.00     0.136 C 
ENDROOT
BRANCH   1   2
HETATM    2  N   UNL     1      22.957  44.780  49.839  1.00  0.00    -0.359 N 
HETATM    3  C   UNL     1      22.964  45.020  48.469  1.00  0.00     0.236 C 
HETATM    4  O   UNL     1      23.786  44.496  47.716  1.00  0.00    -0.272 OA
HETATM    5  H   UNL     1      22.089  44.987  50.322  1.00  0.00     0.162 HD
BRANCH   3   6
HETATM    6  C   UNL     1      21.765  45.775  47.912  1.00  0.00     0.239 C 
BRANCH   6   7
HETATM    7  N   UNL     1      21.535  47.089  48.469  1.00  0.00    -0.259 N 
HETATM    8  C   UNL     1      22.458  48.087  48.436  1.00  0.00     0.326 C 
HETATM    9  N   UNL     1      21.856  49.249  48.856  1.00  0.00    -0.324 N 
HETATM   10  O   UNL     1      23.615  48.026  48.061  1.00  0.00    -0.247 OA
HETATM   11  C   UNL     1      20.412  49.120  48.964  1.00  0.00     0.119 C 
HETATM   12  H   UNL     1      22.364  50.121  48.773  1.00  0.00     0.165 HD
HETATM   13  C   UNL     1      19.911  49.738  50.285  1.00  0.00     0.019 C 
HETATM   14  C   UNL     1      20.318  47.577  48.849  1.00  0.00     0.257 C 
HETATM   15  C   UNL     1      19.731  49.726  47.721  1.00  0.00     0.041 C 
HETATM   16  C   UNL     1      18.485  49.322  50.663  1.00  0.00     0.013 C 
HETATM   17  C   UNL     1      20.009  51.280  50.217  1.00  0.00     0.007 C 
HETATM   18  C   UNL     1      19.312  51.872  48.992  1.00  0.00     0.001 C 
HETATM   19  C   UNL     1      19.814  51.251  47.694  1.00  0.00     0.003 C 
HETATM   20  O   UNL     1      19.301  46.902  48.957  1.00  0.00    -0.270 OA
ENDBRANCH   6   7
ENDBRANCH   3   6
ENDBRANCH   1   2
BRANCH   1  21
HETATM   21  C   UNL     1      25.187  43.856  50.802  1.00  0.00     0.071 C 
BRANCH  21  22
HETATM   22  C   UNL     1      25.999  42.632  51.158  1.00  0.00    -0.020 A 
HETATM   23  C   UNL     1      27.314  42.660  51.757  1.00  0.00    -0.001 A 
HETATM   24  C   UNL     1      27.745  41.342  51.905  1.00  0.00     0.042 A 
HETATM   25  C   UNL     1      28.177  43.691  52.186  1.00  0.00     0.014 A 
HETATM   26  C   UNL     1      28.990  41.004  52.450  1.00  0.00     0.030 A 
HETATM   27  N   UNL     1      26.739  40.536  51.437  1.00  0.00    -0.365 N 
HETATM   28  C   UNL     1      29.823  42.047  52.864  1.00  0.00     0.002 A 
HETATM   29  C   UNL     1      29.424  43.373  52.737  1.00  0.00     0.001 A 
HETATM   30  H   UNL     1      26.771  39.525  51.428  1.00  0.00     0.165 HD
HETATM   31  C   UNL     1      25.685  41.294  50.997  1.00  0.00     0.097 A 
ENDBRANCH  21  22
BRANCH  21  32
HETATM   32  C   UNL     1      25.379  44.880  51.906  1.00  0.00    -0.048 A 
HETATM   33  C   UNL     1      25.759  46.188  51.559  1.00  0.00     0.011 A 
HETATM   34  C   UNL     1      25.932  47.170  52.534  1.00  0.00     0.037 A 
HETATM   35  C   UNL     1      25.730  46.875  53.881  1.00  0.00     0.068 A 
HETATM   36  C   UNL     1      25.357  45.580  54.243  1.00  0.00     0.037 A 
HETATM   37  C   UNL     1      25.175  44.593  53.262  1.00  0.00     0.011 A 
BRANCH  35  38
HETATM   38  O   UNL     1      25.933  47.928  54.729  1.00  0.00    -0.356 OA
HETATM   39  C   UNL     1      27.078  47.865  55.567  1.00  0.00     0.210 C 
ENDBRANCH  35  38
ENDBRANCH  21  32
ENDBRANCH   1  21
TORSDOF 7
ENDMDL
MODEL 9
REMARK VINA RESULT:      -8.8      9.952     11.711
REMARK  7 active torsions:
REMARK  status: ('A' for Active; 'I' for Inactive)
REMARK    1  A    between atoms: N_7  and  C_8 
REMARK    2  A    between atoms: C_8  and  C_9 
REMARK       I    between atoms: C_9  and  N_10 
REMARK    3  A    between atoms: N_10  and  C_11 
REMARK    4  A    between atoms: C_11  and  C_12 
REMARK    5  A    between atoms: C_12  and  C_13 
REMARK    6  A    between atoms: C_12  and  C_23 
REMARK    7  A    between atoms: C_26  and  O_27 
ROOT
HETATM    1  C   UNL     1      31.770  47.806  40.582  1.00  0.00     0.136 C 
ENDROOT
BRANCH   1   2
HETATM    2  N   UNL     1      31.090  47.900  39.297  1.00  0.00    -0.359 N 
HETATM    3  C   UNL     1      30.147  46.919  39.015  1.00  0.00     0.236 C 
HETATM    4  O   UNL     1      30.068  45.878  39.667  1.00  0.00    -0.272 OA
HETATM    5  H   UNL     1      30.891  48.827  38.935  1.00  0.00     0.162 HD
BRANCH   3   6
HETATM    6  C   UNL     1      29.065  47.295  38.011  1.00  0.00     0.239 C 
BRANCH   6   7
HETATM    7  N   UNL     1      27.792  47.684  38.574  1.00  0.00    -0.259 N 
HETATM    8  C   UNL     1      27.267  48.932  38.447  1.00  0.00     0.326 C 
HETATM    9  N   UNL     1      25.974  48.908  38.910  1.00  0.00    -0.324 N 
HETATM   10  O   UNL     1      27.793  49.921  37.968  1.00  0.00    -0.247 OA
HETATM   11  C   UNL     1      25.493  47.557  39.151  1.00  0.00     0.119 C 
HETATM   12  H   UNL     1      25.389  49.724  38.772  1.00  0.00     0.165 HD
HETATM   13  C   UNL     1      24.763  47.478  40.507  1.00  0.00     0.019 C 
HETATM   14  C   UNL     1      26.854  46.819  39.060  1.00  0.00     0.257 C 
HETATM   15  C   UNL     1      24.622  47.085  37.971  1.00  0.00     0.041 C 
HETATM   16  C   UNL     1      24.560  46.047  41.019  1.00  0.00     0.013 C 
HETATM   17  C   UNL     1      23.401  48.202  40.416  1.00  0.00     0.007 C 
HETATM   18  C   UNL     1      22.535  47.711  39.255  1.00  0.00     0.001 C 
HETATM   19  C   UNL     1      23.270  47.792  37.922  1.00  0.00     0.003 C 
HETATM   20  O   UNL     1      27.048  45.627  39.268  1.00  0.00    -0.270 OA
ENDBRANCH   6   7
ENDBRANCH   3   6
ENDBRANCH   1   2
BRANCH   1  21
HETATM   21  C   UNL     1      31.281  48.636  41.782  1.00  0.00     0.071 C 
BRANCH  21  22
HETATM   22  C   UNL     1      29.925  49.296  41.682  1.00  0.00    -0.020 A 
HETATM   23  C   UNL     1      29.681  50.597  41.103  1.00  0.00    -0.001 A 
HETATM   24  C   UNL     1      28.318  50.870  41.222  1.00  0.00     0.042 A 
HETATM   25  C   UNL     1      30.500  51.568  40.488  1.00  0.00     0.014 A 
HETATM   26  C   UNL     1      27.737  52.061  40.768  1.00  0.00     0.030 A 
HETATM   27  N   UNL     1      27.743  49.784  41.830  1.00  0.00    -0.365 N 
HETATM   28  C   UNL     1      28.574  53.004  40.165  1.00  0.00     0.002 A 
HETATM   29  C   UNL     1      29.936  52.763  40.024  1.00  0.00     0.001 A 
HETATM   30  H   UNL     1      26.757  49.699  42.038  1.00  0.00     0.165 HD
HETATM   31  C   UNL     1      28.690  48.831  42.100  1.00  0.00     0.097 A 
ENDBRANCH  21  22
BRANCH  21  32
HETATM   32  C   UNL     1      32.256  49.660  42.332  1.00  0.00    -0.048 A 
HETATM   33  C   UNL     1      33.506  49.811  41.705  1.00  0.00     0.011 A 
HETATM   34  C   UNL     1      34.432  50.750  42.161  1.00  0.00     0.037 A 
HETATM   35  C   UNL     1      34.137  51.564  43.252  1.00  0.00     0.068 A 
HETATM   36  C   UNL     1      32.903  51.425  43.889  1.00  0.00     0.037 A 
HETATM   37  C   UNL     1      31.967  50.486  43.427  1.00  0.00     0.011 A 
BRANCH  35  38
HETATM   38  O   UNL     1      35.131  52.438  43.592  1.00  0.00    -0.356 OA
HETATM   39  C   UNL     1      36.364  52.309  42.898  1.00  0.00     0.210 C 
ENDBRANCH  35  38
ENDBRANCH  21  32
ENDBRANCH   1  21
TORSDOF 7
ENDMDL
MODEL 10
REMARK VINA RESULT:      -8.8      4.573      9.043
REMARK  7 active torsions:
REMARK  status: ('A' for Active; 'I' for Inactive)
REMARK    1  A    between atoms: N_7  and  C_8 
REMARK    2  A    between atoms: C_8  and  C_9 
REMARK       I    between atoms: C_9  and  N_10 
REMARK    3  A    between atoms: N_10  and  C_11 
REMARK    4  A    between atoms: C_11  and  C_12 
REMARK    5  A    between atoms: C_12  and  C_13 
REMARK    6  A    between atoms: C_12  and  C_23 
REMARK    7  A    between atoms: C_26  and  O_27 
ROOT
HETATM    1  C   UNL     1      25.042  43.347  51.622  1.00  0.00     0.136 C 
ENDROOT
BRANCH   1   2
HETATM    2  N   UNL     1      24.983  42.241  50.675  1.00  0.00    -0.359 N 
HETATM    3  C   UNL     1      24.303  42.471  49.485  1.00  0.00     0.236 C 
HETATM    4  O   UNL     1      23.559  43.441  49.332  1.00  0.00    -0.272 OA
HETATM    5  H   UNL     1      25.790  41.627  50.615  1.00  0.00     0.162 HD
BRANCH   3   6
HETATM    6  C   UNL     1      24.702  41.599  48.302  1.00  0.00     0.239 C 
BRANCH   6   7
HETATM    7  N   UNL     1      26.034  41.039  48.355  1.00  0.00    -0.259 N 
HETATM    8  C   UNL     1      27.138  41.763  48.680  1.00  0.00     0.326 C 
HETATM    9  N   UNL     1      28.193  40.899  48.839  1.00  0.00    -0.324 N 
HETATM   10  O   UNL     1      27.220  42.966  48.858  1.00  0.00    -0.247 OA
HETATM   11  C   UNL     1      27.774  39.506  48.860  1.00  0.00     0.119 C 
HETATM   12  H   UNL     1      29.067  41.255  49.207  1.00  0.00     0.165 HD
HETATM   13  C   UNL     1      28.699  38.650  47.971  1.00  0.00     0.019 C 
HETATM   14  C   UNL     1      26.323  39.705  48.352  1.00  0.00     0.257 C 
HETATM   15  C   UNL     1      27.698  38.997  50.313  1.00  0.00     0.041 C 
HETATM   16  C   UNL     1      28.125  37.271  47.628  1.00  0.00     0.013 C 
HETATM   17  C   UNL     1      30.082  38.493  48.644  1.00  0.00     0.007 C 
HETATM   18  C   UNL     1      29.996  37.967  50.077  1.00  0.00     0.001 C 
HETATM   19  C   UNL     1      29.077  38.821  50.944  1.00  0.00     0.003 C 
HETATM   20  O   UNL     1      25.515  38.818  48.101  1.00  0.00    -0.270 OA
ENDBRANCH   6   7
ENDBRANCH   3   6
ENDBRANCH   1   2
BRANCH   1  21
HETATM   21  C   UNL     1      26.195  44.365  51.555  1.00  0.00     0.071 C 
BRANCH  21  22
HETATM   22  C   UNL     1      26.960  44.655  52.826  1.00  0.00    -0.020 A 
HETATM   23  C   UNL     1      28.203  44.023  53.203  1.00  0.00    -0.001 A 
HETATM   24  C   UNL     1      28.580  44.527  54.447  1.00  0.00     0.042 A 
HETATM   25  C   UNL     1      29.043  43.064  52.595  1.00  0.00     0.014 A 
HETATM   26  C   UNL     1      29.742  44.119  55.115  1.00  0.00     0.030 A 
HETATM   27  N   UNL     1      27.626  45.440  54.816  1.00  0.00    -0.365 N 
HETATM   28  C   UNL     1      30.551  43.167  54.488  1.00  0.00     0.002 A 
HETATM   29  C   UNL     1      30.210  42.647  53.245  1.00  0.00     0.001 A 
HETATM   30  H   UNL     1      27.644  45.973  55.675  1.00  0.00     0.165 HD
HETATM   31  C   UNL     1      26.658  45.534  53.851  1.00  0.00     0.097 A 
ENDBRANCH  21  22
BRANCH  21  32
HETATM   32  C   UNL     1      25.879  45.692  50.889  1.00  0.00    -0.048 A 
HETATM   33  C   UNL     1      26.908  46.374  50.216  1.00  0.00     0.011 A 
HETATM   34  C   UNL     1      26.667  47.588  49.574  1.00  0.00     0.037 A 
HETATM   35  C   UNL     1      25.394  48.154  49.583  1.00  0.00     0.068 A 
HETATM   36  C   UNL     1      24.362  47.493  50.250  1.00  0.00     0.037 A 
HETATM   37  C   UNL     1      24.602  46.267  50.890  1.00  0.00     0.011 A 
BRANCH  35  38
HETATM   38  O   UNL     1      25.297  49.344  48.915  1.00  0.00    -0.356 OA
HETATM   39  C   UNL     1      26.449  49.775  48.204  1.00  0.00     0.210 C 
ENDBRANCH  35  38
ENDBRANCH  21  32
ENDBRANCH   1  21
TORSDOF 7
ENDMDL
