MODEL 1
REMARK VINA RESULT:      -8.8      0.000      0.000
REMARK  5 active torsions:
REMARK  status: ('A' for Active; 'I' for Inactive)
REMARK    1  A    between atoms: C_3  and  C_4 
REMARK    2  A    between atoms: C_7  and  C_8 
REMARK    3  A    between atoms: C_8  and  N_9 
REMARK    4  A    between atoms: C_16  and  O_17 
REMARK    5  A    between atoms: C_18  and  O_19 
ROOT
HETATM    1  N   UNL     1      26.228  42.055  50.541  1.00  0.00    -0.067 N 
HETATM    2  H   UNL     1      25.584  41.256  50.505  1.00  0.00     0.280 HD
HETATM    3  C   UNL     1      26.109  42.790  49.218  1.00  0.00     0.240 C 
HETATM    4  C   UNL     1      25.656  44.201  49.584  1.00  0.00     0.020 C 
HETATM    5  C   UNL     1      24.856  43.977  50.869  1.00  0.00     0.020 C 
HETATM    6  C   UNL     1      25.707  42.972  51.633  1.00  0.00     0.240 C 
HETATM    7  C   UNL     1      26.848  45.162  49.763  1.00  0.00     0.041 C 
HETATM    8  C   UNL     1      26.431  46.468  50.435  1.00  0.00     0.147 C 
HETATM    9  C   UNL     1      25.757  46.186  51.787  1.00  0.00     0.147 C 
HETATM   10  C   UNL     1      24.550  45.255  51.644  1.00  0.00     0.041 C 
ENDROOT
BRANCH   1  11
HETATM   11  C   UNL     1      27.594  41.476  50.800  1.00  0.00     0.273 C 
BRANCH  11  12
HETATM   12  C   UNL     1      28.252  42.049  52.024  1.00  0.00    -0.033 A 
HETATM   13  C   UNL     1      28.143  41.408  53.266  1.00  0.00     0.010 A 
HETATM   14  C   UNL     1      28.733  41.966  54.405  1.00  0.00     0.013 A 
HETATM   15  C   UNL     1      29.441  43.176  54.341  1.00  0.00    -0.023 A 
HETATM   16  C   UNL     1      29.545  43.808  53.092  1.00  0.00     0.013 A 
HETATM   17  C   UNL     1      28.962  43.255  51.949  1.00  0.00     0.010 A 
BRANCH  15  18
HETATM   18  C   UNL     1      30.065  43.763  55.540  1.00  0.00     0.013 A 
HETATM   19  C   UNL     1      31.067  43.075  56.245  1.00  0.00     0.015 A 
HETATM   20  C   UNL     1      31.670  43.637  57.376  1.00  0.00     0.001 A 
HETATM   21  C   UNL     1      31.280  44.896  57.825  1.00  0.00     0.003 A 
HETATM   22  C   UNL     1      30.286  45.595  57.144  1.00  0.00     0.043 A 
HETATM   23  C   UNL     1      29.692  45.031  56.017  1.00  0.00     0.127 A 
HETATM   24  F   UNL     1      28.732  45.730  55.389  1.00  0.00    -0.205 F 
ENDBRANCH  15  18
ENDBRANCH  11  12
ENDBRANCH   1  11
BRANCH   8  25
HETATM   25  O   UNL     1      25.498  47.146  49.592  1.00  0.00    -0.393 OA
HETATM   26  H   UNL     1      25.654  46.846  48.677  1.00  0.00     0.210 HD
ENDBRANCH   8  25
BRANCH   9  27
HETATM   27  O   UNL     1      25.319  47.408  52.370  1.00  0.00    -0.393 OA
HETATM   28  H   UNL     1      25.971  47.634  53.063  1.00  0.00     0.210 HD
ENDBRANCH   9  27
TORSDOF 5
ENDMDL
MODEL 2
REMARK VINA RESULT:      -8.7      2.790      3.920
REMARK  5 active torsions:
REMARK  status: ('A' for Active; 'I' for Inactive)
REMARK    1  A    between atoms: C_3  and  C_4 
REMARK    2  A    between atoms: C_7  and  C_8 
REMARK    3  A    between atoms: C_8  and  N_9 
REMARK    4  A    between atoms: C_16  and  O_17 
REMARK    5  A    between atoms: C_18  and  O_19 
ROOT
HETATM    1  N   UNL     1      25.603  46.416  51.315  1.00  0.00    -0.067 N 
HETATM    2  H   UNL     1      26.446  45.829  51.332  1.00  0.00     0.280 HD
HETATM    3  C   UNL     1      25.834  47.507  50.285  1.00  0.00     0.240 C 
HETATM    4  C   UNL     1      24.721  47.326  49.256  1.00  0.00     0.020 C 
HETATM    5  C   UNL     1      24.441  45.823  49.319  1.00  0.00     0.020 C 
HETATM    6  C   UNL     1      24.478  45.530  50.813  1.00  0.00     0.240 C 
HETATM    7  C   UNL     1      23.488  48.194  49.580  1.00  0.00     0.041 C 
HETATM    8  C   UNL     1      22.271  47.783  48.756  1.00  0.00     0.147 C 
HETATM    9  C   UNL     1      21.954  46.294  48.969  1.00  0.00     0.147 C 
HETATM   10  C   UNL     1      23.149  45.399  48.630  1.00  0.00     0.041 C 
ENDROOT
BRANCH   1  11
HETATM   11  C   UNL     1      25.425  46.927  52.721  1.00  0.00     0.273 C 
BRANCH  11  12
HETATM   12  C   UNL     1      26.513  46.471  53.653  1.00  0.00    -0.033 A 
HETATM   13  C   UNL     1      27.278  47.399  54.373  1.00  0.00     0.010 A 
HETATM   14  C   UNL     1      28.309  46.966  55.214  1.00  0.00     0.013 A 
HETATM   15  C   UNL     1      28.609  45.602  55.357  1.00  0.00    -0.023 A 
HETATM   16  C   UNL     1      27.835  44.683  54.632  1.00  0.00     0.013 A 
HETATM   17  C   UNL     1      26.801  45.107  53.793  1.00  0.00     0.010 A 
BRANCH  15  18
HETATM   18  C   UNL     1      29.692  45.146  56.244  1.00  0.00     0.013 A 
HETATM   19  C   UNL     1      29.872  45.712  57.518  1.00  0.00     0.015 A 
HETATM   20  C   UNL     1      30.894  45.270  58.367  1.00  0.00     0.001 A 
HETATM   21  C   UNL     1      31.755  44.255  57.958  1.00  0.00     0.003 A 
HETATM   22  C   UNL     1      31.596  43.680  56.699  1.00  0.00     0.043 A 
HETATM   23  C   UNL     1      30.576  44.124  55.859  1.00  0.00     0.127 A 
HETATM   24  F   UNL     1      30.458  43.552  54.650  1.00  0.00    -0.205 F 
ENDBRANCH  15  18
ENDBRANCH  11  12
ENDBRANCH   1  11
BRANCH   8  25
HETATM   25  O   UNL     1      22.553  47.997  47.373  1.00  0.00    -0.393 OA
HETATM   26  H   UNL     1      22.743  48.947  47.252  1.00  0.00     0.210 HD
ENDBRANCH   8  25
BRANCH   9  27
HETATM   27  O   UNL     1      20.857  45.915  48.147  1.00  0.00    -0.393 OA
HETATM   28  H   UNL     1      21.077  45.036  47.777  1.00  0.00     0.210 HD
ENDBRANCH   9  27
TORSDOF 5
ENDMDL
MODEL 3
REMARK VINA RESULT:      -8.7      2.565      3.715
REMARK  5 active torsions:
REMARK  status: ('A' for Active; 'I' for Inactive)
REMARK    1  A    between atoms: C_3  and  C_4 
REMARK    2  A    between atoms: C_7  and  C_8 
REMARK    3  A    between atoms: C_8  and  N_9 
REMARK    4  A    between atoms: C_16  and  O_17 
REMARK    5  A    between atoms: C_18  and  O_19 
ROOT
HETATM    1  N   UNL     1      25.611  46.642  51.076  1.00  0.00    -0.067 N 
HETATM    2  H   UNL     1      25.953  47.475  50.582  1.00  0.00     0.280 HD
HETATM    3  C   UNL     1      24.360  46.172  50.356  1.00  0.00     0.240 C 
HETATM    4  C   UNL     1      24.674  44.752  49.895  1.00  0.00     0.020 C 
HETATM    5  C   UNL     1      26.190  44.788  49.693  1.00  0.00     0.020 C 
HETATM    6  C   UNL     1      26.678  45.577  50.900  1.00  0.00     0.240 C 
HETATM    7  C   UNL     1      24.216  43.697  50.922  1.00  0.00     0.041 C 
HETATM    8  C   UNL     1      24.807  42.320  50.627  1.00  0.00     0.147 C 
HETATM    9  C   UNL     1      26.341  42.393  50.575  1.00  0.00     0.147 C 
HETATM   10  C   UNL     1      26.833  43.413  49.544  1.00  0.00     0.041 C 
ENDROOT
BRANCH   1  11
HETATM   11  C   UNL     1      25.375  47.072  52.500  1.00  0.00     0.273 C 
BRANCH  11  12
HETATM   12  C   UNL     1      26.442  46.591  53.443  1.00  0.00    -0.033 A 
HETATM   13  C   UNL     1      26.472  45.259  53.877  1.00  0.00     0.010 A 
HETATM   14  C   UNL     1      27.451  44.830  54.780  1.00  0.00     0.013 A 
HETATM   15  C   UNL     1      28.422  45.714  55.277  1.00  0.00    -0.023 A 
HETATM   16  C   UNL     1      28.383  47.045  54.834  1.00  0.00     0.013 A 
HETATM   17  C   UNL     1      27.410  47.480  53.930  1.00  0.00     0.010 A 
BRANCH  15  18
HETATM   18  C   UNL     1      29.454  45.262  56.226  1.00  0.00     0.013 A 
HETATM   19  C   UNL     1      30.448  44.349  55.833  1.00  0.00     0.015 A 
HETATM   20  C   UNL     1      31.437  43.929  56.730  1.00  0.00     0.001 A 
HETATM   21  C   UNL     1      31.450  44.413  58.036  1.00  0.00     0.003 A 
HETATM   22  C   UNL     1      30.474  45.317  58.447  1.00  0.00     0.043 A 
HETATM   23  C   UNL     1      29.493  45.733  57.549  1.00  0.00     0.127 A 
HETATM   24  F   UNL     1      28.563  46.599  57.983  1.00  0.00    -0.205 F 
ENDBRANCH  15  18
ENDBRANCH  11  12
ENDBRANCH   1  11
BRANCH   8  25
HETATM   25  O   UNL     1      24.327  41.873  49.358  1.00  0.00    -0.393 OA
HETATM   26  H   UNL     1      24.875  42.294  48.669  1.00  0.00     0.210 HD
ENDBRANCH   8  25
BRANCH   9  27
HETATM   27  O   UNL     1      26.871  41.117  50.237  1.00  0.00    -0.393 OA
HETATM   28  H   UNL     1      26.155  40.630  49.782  1.00  0.00     0.210 HD
ENDBRANCH   9  27
TORSDOF 5
ENDMDL
MODEL 4
REMARK VINA RESULT:      -8.6      2.319      3.117
REMARK  5 active torsions:
REMARK  status: ('A' for Active; 'I' for Inactive)
REMARK    1  A    between atoms: C_3  and  C_4 
REMARK    2  A    between atoms: C_7  and  C_8 
REMARK    3  A    between atoms: C_8  and  N_9 
REMARK    4  A    between atoms: C_16  and  O_17 
REMARK    5  A    between atoms: C_18  and  O_19 
ROOT
HETATM    1  N   UNL     1      25.546  43.960  50.984  1.00  0.00    -0.067 N 
HETATM    2  H   UNL     1      25.494  44.462  51.880  1.00  0.00     0.280 HD
HETATM    3  C   UNL     1      24.592  42.782  51.073  1.00  0.00     0.240 C 
HETATM    4  C   UNL     1      23.586  42.997  49.945  1.00  0.00     0.020 C 
HETATM    5  C   UNL     1      23.546  44.522  49.813  1.00  0.00     0.020 C 
HETATM    6  C   UNL     1      25.012  44.915  49.932  1.00  0.00     0.240 C 
HETATM    7  C   UNL     1      24.009  42.280  48.648  1.00  0.00     0.041 C 
HETATM    8  C   UNL     1      23.193  42.749  47.446  1.00  0.00     0.147 C 
HETATM    9  C   UNL     1      23.304  44.273  47.281  1.00  0.00     0.147 C 
HETATM   10  C   UNL     1      22.865  45.020  48.543  1.00  0.00     0.041 C 
ENDROOT
BRANCH   1  11
HETATM   11  C   UNL     1      26.989  43.570  50.810  1.00  0.00     0.273 C 
BRANCH  11  12
HETATM   12  C   UNL     1      27.802  43.750  52.062  1.00  0.00    -0.033 A 
HETATM   13  C   UNL     1      29.053  43.134  52.202  1.00  0.00     0.010 A 
HETATM   14  C   UNL     1      29.787  43.283  53.384  1.00  0.00     0.013 A 
HETATM   15  C   UNL     1      29.295  44.042  54.457  1.00  0.00    -0.023 A 
HETATM   16  C   UNL     1      28.042  44.654  54.304  1.00  0.00     0.013 A 
HETATM   17  C   UNL     1      27.305  44.514  53.125  1.00  0.00     0.010 A 
BRANCH  15  18
HETATM   18  C   UNL     1      30.068  44.200  55.700  1.00  0.00     0.013 A 
HETATM   19  C   UNL     1      31.010  43.234  56.095  1.00  0.00     0.015 A 
HETATM   20  C   UNL     1      31.755  43.390  57.269  1.00  0.00     0.001 A 
HETATM   21  C   UNL     1      31.572  44.514  58.072  1.00  0.00     0.003 A 
HETATM   22  C   UNL     1      30.643  45.483  57.701  1.00  0.00     0.043 A 
HETATM   23  C   UNL     1      29.905  45.322  56.530  1.00  0.00     0.127 A 
HETATM   24  F   UNL     1      29.013  46.273  56.208  1.00  0.00    -0.205 F 
ENDBRANCH  15  18
ENDBRANCH  11  12
ENDBRANCH   1  11
BRANCH   8  25
HETATM   25  O   UNL     1      21.821  42.411  47.657  1.00  0.00    -0.393 OA
HETATM   26  H   UNL     1      21.297  43.229  47.568  1.00  0.00     0.210 HD
ENDBRANCH   8  25
BRANCH   9  27
HETATM   27  O   UNL     1      22.489  44.699  46.196  1.00  0.00    -0.393 OA
HETATM   28  H   UNL     1      21.788  44.025  46.093  1.00  0.00     0.210 HD
ENDBRANCH   9  27
TORSDOF 5
ENDMDL
MODEL 5
REMARK VINA RESULT:      -8.4      3.874      5.276
REMARK  5 active torsions:
REMARK  status: ('A' for Active; 'I' for Inactive)
REMARK    1  A    between atoms: C_3  and  C_4 
REMARK    2  A    between atoms: C_7  and  C_8 
REMARK    3  A    between atoms: C_8  and  N_9 
REMARK    4  A    between atoms: C_16  and  O_17 
REMARK    5  A    between atoms: C_18  and  O_19 
ROOT
HETATM    1  N   UNL     1      28.342  40.755  50.093  1.00  0.00    -0.067 N 
HETATM    2  H   UNL     1      29.239  41.207  50.309  1.00  0.00     0.280 HD
HETATM    3  C   UNL     1      27.919  41.228  48.714  1.00  0.00     0.240 C 
HETATM    4  C   UNL     1      27.814  39.959  47.872  1.00  0.00     0.020 C 
HETATM    5  C   UNL     1      28.846  39.035  48.522  1.00  0.00     0.020 C 
HETATM    6  C   UNL     1      28.625  39.267  50.010  1.00  0.00     0.240 C 
HETATM    7  C   UNL     1      26.385  39.382  47.874  1.00  0.00     0.041 C 
HETATM    8  C   UNL     1      26.343  37.962  47.313  1.00  0.00     0.147 C 
HETATM    9  C   UNL     1      27.297  37.046  48.097  1.00  0.00     0.147 C 
HETATM   10  C   UNL     1      28.734  37.575  48.093  1.00  0.00     0.041 C 
ENDROOT
BRANCH   1  11
HETATM   11  C   UNL     1      27.398  41.159  51.195  1.00  0.00     0.273 C 
BRANCH  11  12
HETATM   12  C   UNL     1      28.087  41.872  52.326  1.00  0.00    -0.033 A 
HETATM   13  C   UNL     1      29.484  41.975  52.366  1.00  0.00     0.010 A 
HETATM   14  C   UNL     1      30.116  42.614  53.439  1.00  0.00     0.013 A 
HETATM   15  C   UNL     1      29.377  43.161  54.500  1.00  0.00    -0.023 A 
HETATM   16  C   UNL     1      27.979  43.053  54.447  1.00  0.00     0.013 A 
HETATM   17  C   UNL     1      27.341  42.420  53.377  1.00  0.00     0.010 A 
BRANCH  15  18
HETATM   18  C   UNL     1      30.042  43.835  55.628  1.00  0.00     0.013 A 
HETATM   19  C   UNL     1      30.995  43.163  56.413  1.00  0.00     0.015 A 
HETATM   20  C   UNL     1      31.637  43.806  57.477  1.00  0.00     0.001 A 
HETATM   21  C   UNL     1      31.339  45.133  57.776  1.00  0.00     0.003 A 
HETATM   22  C   UNL     1      30.397  45.818  57.013  1.00  0.00     0.043 A 
HETATM   23  C   UNL     1      29.762  45.172  55.954  1.00  0.00     0.127 A 
HETATM   24  F   UNL     1      28.853  45.862  55.245  1.00  0.00    -0.205 F 
ENDBRANCH  15  18
ENDBRANCH  11  12
ENDBRANCH   1  11
BRANCH   8  25
HETATM   25  O   UNL     1      26.757  37.991  45.947  1.00  0.00    -0.393 OA
HETATM   26  H   UNL     1      25.956  37.933  45.393  1.00  0.00     0.210 HD
ENDBRANCH   8  25
BRANCH   9  27
HETATM   27  O   UNL     1      27.293  35.745  47.523  1.00  0.00    -0.393 OA
HETATM   28  H   UNL     1      27.451  35.863  46.565  1.00  0.00     0.210 HD
ENDBRANCH   9  27
TORSDOF 5
ENDMDL
MODEL 6
REMARK VINA RESULT:      -8.3     12.814     14.455
REMARK  5 active torsions:
REMARK  status: ('A' for Active; 'I' for Inactive)
REMARK    1  A    between atoms: C_3  and  C_4 
REMARK    2  A    between atoms: C_7  and  C_8 
REMARK    3  A    between atoms: C_8  and  N_9 
REMARK    4  A    between atoms: C_16  and  O_17 
REMARK    5  A    between atoms: C_18  and  O_19 
ROOT
HETATM    1  N   UNL     1      28.555  48.653  40.729  1.00  0.00    -0.067 N 
HETATM    2  H   UNL     1      27.841  47.914  40.736  1.00  0.00     0.280 HD
HETATM    3  C   UNL     1      29.530  48.325  39.612  1.00  0.00     0.240 C 
HETATM    4  C   UNL     1      29.471  49.523  38.667  1.00  0.00     0.020 C 
HETATM    5  C   UNL     1      28.040  50.031  38.853  1.00  0.00     0.020 C 
HETATM    6  C   UNL     1      27.834  49.936  40.358  1.00  0.00     0.240 C 
HETATM    7  C   UNL     1      30.545  50.577  39.003  1.00  0.00     0.041 C 
HETATM    8  C   UNL     1      30.289  51.899  38.284  1.00  0.00     0.147 C 
HETATM    9  C   UNL     1      28.887  52.431  38.620  1.00  0.00     0.147 C 
HETATM   10  C   UNL     1      27.791  51.420  38.274  1.00  0.00     0.041 C 
ENDROOT
BRANCH   1  11
HETATM   11  C   UNL     1      29.171  48.647  42.102  1.00  0.00     0.273 C 
BRANCH  11  12
HETATM   12  C   UNL     1      30.503  49.342  42.151  1.00  0.00    -0.033 A 
HETATM   13  C   UNL     1      31.697  48.619  42.022  1.00  0.00     0.010 A 
HETATM   14  C   UNL     1      32.932  49.272  42.099  1.00  0.00     0.013 A 
HETATM   15  C   UNL     1      33.013  50.657  42.312  1.00  0.00    -0.023 A 
HETATM   16  C   UNL     1      31.811  51.370  42.439  1.00  0.00     0.013 A 
HETATM   17  C   UNL     1      30.574  50.726  42.358  1.00  0.00     0.010 A 
BRANCH  15  18
HETATM   18  C   UNL     1      34.313  51.344  42.392  1.00  0.00     0.013 A 
HETATM   19  C   UNL     1      35.149  51.445  41.266  1.00  0.00     0.015 A 
HETATM   20  C   UNL     1      36.379  52.110  41.338  1.00  0.00     0.001 A 
HETATM   21  C   UNL     1      36.796  52.685  42.536  1.00  0.00     0.003 A 
HETATM   22  C   UNL     1      35.985  52.595  43.664  1.00  0.00     0.043 A 
HETATM   23  C   UNL     1      34.761  51.934  43.586  1.00  0.00     0.127 A 
HETATM   24  F   UNL     1      34.009  51.860  44.696  1.00  0.00    -0.205 F 
ENDBRANCH  15  18
ENDBRANCH  11  12
ENDBRANCH   1  11
BRANCH   8  25
HETATM   25  O   UNL     1      30.371  51.684  36.874  1.00  0.00    -0.393 OA
HETATM   26  H   UNL     1      31.271  51.930  36.589  1.00  0.00     0.210 HD
ENDBRANCH   8  25
BRANCH   9  27
HETATM   27  O   UNL     1      28.642  53.630  37.894  1.00  0.00    -0.393 OA
HETATM   28  H   UNL     1      29.226  53.605  37.110  1.00  0.00     0.210 HD
ENDBRANCH   9  27
TORSDOF 5
ENDMDL
MODEL 7
REMARK VINA RESULT:      -8.2      3.885      5.269
REMARK  5 active torsions:
REMARK  status: ('A' for Active; 'I' for Inactive)
REMARK    1  A    between atoms: C_3  and  C_4 
REMARK    2  A    between atoms: C_7  and  C_8 
REMARK    3  A    between atoms: C_8  and  N_9 
REMARK    4  A    between atoms: C_16  and  O_17 
REMARK    5  A    between atoms: C_18  and  O_19 
ROOT
HETATM    1  N   UNL     1      27.714  40.401  51.164  1.00  0.00    -0.067 N 
HETATM    2  H   UNL     1      27.385  40.262  52.127  1.00  0.00     0.280 HD
HETATM    3  C   UNL     1      28.935  39.518  50.973  1.00  0.00     0.240 C 
HETATM    4  C   UNL     1      28.570  38.573  49.832  1.00  0.00     0.020 C 
HETATM    5  C   UNL     1      27.050  38.447  49.968  1.00  0.00     0.020 C 
HETATM    6  C   UNL     1      26.613  39.876  50.260  1.00  0.00     0.240 C 
HETATM    7  C   UNL     1      29.020  39.119  48.463  1.00  0.00     0.041 C 
HETATM    8  C   UNL     1      28.383  38.352  47.306  1.00  0.00     0.147 C 
HETATM    9  C   UNL     1      26.851  38.380  47.421  1.00  0.00     0.147 C 
HETATM   10  C   UNL     1      26.365  37.818  48.760  1.00  0.00     0.041 C 
ENDROOT
BRANCH   1  11
HETATM   11  C   UNL     1      27.995  41.874  51.028  1.00  0.00     0.273 C 
BRANCH  11  12
HETATM   12  C   UNL     1      28.459  42.503  52.312  1.00  0.00    -0.033 A 
HETATM   13  C   UNL     1      27.538  43.015  53.235  1.00  0.00     0.010 A 
HETATM   14  C   UNL     1      27.982  43.627  54.413  1.00  0.00     0.013 A 
HETATM   15  C   UNL     1      29.350  43.750  54.700  1.00  0.00    -0.023 A 
HETATM   16  C   UNL     1      30.263  43.233  53.768  1.00  0.00     0.013 A 
HETATM   17  C   UNL     1      29.827  42.616  52.592  1.00  0.00     0.010 A 
BRANCH  15  18
HETATM   18  C   UNL     1      29.817  44.392  55.940  1.00  0.00     0.013 A 
HETATM   19  C   UNL     1      29.186  45.544  56.442  1.00  0.00     0.015 A 
HETATM   20  C   UNL     1      29.621  46.148  57.627  1.00  0.00     0.001 A 
HETATM   21  C   UNL     1      30.695  45.612  58.333  1.00  0.00     0.003 A 
HETATM   22  C   UNL     1      31.337  44.472  57.855  1.00  0.00     0.043 A 
HETATM   23  C   UNL     1      30.898  43.875  56.674  1.00  0.00     0.127 A 
HETATM   24  F   UNL     1      31.546  42.782  56.238  1.00  0.00    -0.205 F 
ENDBRANCH  15  18
ENDBRANCH  11  12
ENDBRANCH   1  11
BRANCH   8  25
HETATM   25  O   UNL     1      28.821  36.994  47.354  1.00  0.00    -0.393 OA
HETATM   26  H   UNL     1      28.220  36.469  46.792  1.00  0.00     0.210 HD
ENDBRANCH   8  25
BRANCH   9  27
HETATM   27  O   UNL     1      26.277  37.610  46.372  1.00  0.00    -0.393 OA
HETATM   28  H   UNL     1      26.778  36.771  46.336  1.00  0.00     0.210 HD
ENDBRANCH   9  27
TORSDOF 5
ENDMDL
MODEL 8
REMARK VINA RESULT:      -8.2      3.904      5.386
REMARK  5 active torsions:
REMARK  status: ('A' for Active; 'I' for Inactive)
REMARK    1  A    between atoms: C_3  and  C_4 
REMARK    2  A    between atoms: C_7  and  C_8 
REMARK    3  A    between atoms: C_8  and  N_9 
REMARK    4  A    between atoms: C_16  and  O_17 
REMARK    5  A    between atoms: C_18  and  O_19 
ROOT
HETATM    1  N   UNL     1      26.639  41.201  48.156  1.00  0.00    -0.067 N 
HETATM    2  H   UNL     1      26.799  41.794  47.332  1.00  0.00     0.280 HD
HETATM    3  C   UNL     1      25.888  39.968  47.685  1.00  0.00     0.240 C 
HETATM    4  C   UNL     1      26.790  38.791  48.043  1.00  0.00     0.020 C 
HETATM    5  C   UNL     1      28.192  39.401  47.968  1.00  0.00     0.020 C 
HETATM    6  C   UNL     1      28.010  40.759  48.633  1.00  0.00     0.240 C 
HETATM    7  C   UNL     1      26.450  38.203  49.428  1.00  0.00     0.041 C 
HETATM    8  C   UNL     1      27.537  37.253  49.926  1.00  0.00     0.147 C 
HETATM    9  C   UNL     1      28.899  37.966  49.961  1.00  0.00     0.147 C 
HETATM   10  C   UNL     1      29.283  38.539  48.594  1.00  0.00     0.041 C 
ENDROOT
BRANCH   1  11
HETATM   11  C   UNL     1      25.872  42.050  49.135  1.00  0.00     0.273 C 
BRANCH  11  12
HETATM   12  C   UNL     1      26.691  42.456  50.328  1.00  0.00    -0.033 A 
HETATM   13  C   UNL     1      26.879  41.579  51.404  1.00  0.00     0.010 A 
HETATM   14  C   UNL     1      27.618  41.979  52.523  1.00  0.00     0.013 A 
HETATM   15  C   UNL     1      28.183  43.261  52.603  1.00  0.00    -0.023 A 
HETATM   16  C   UNL     1      27.989  44.130  51.519  1.00  0.00     0.013 A 
HETATM   17  C   UNL     1      27.256  43.737  50.396  1.00  0.00     0.010 A 
BRANCH  15  18
HETATM   18  C   UNL     1      28.962  43.681  53.780  1.00  0.00     0.013 A 
HETATM   19  C   UNL     1      30.089  42.954  54.200  1.00  0.00     0.015 A 
HETATM   20  C   UNL     1      30.838  43.360  55.311  1.00  0.00     0.001 A 
HETATM   21  C   UNL     1      30.473  44.500  56.023  1.00  0.00     0.003 A 
HETATM   22  C   UNL     1      29.359  45.235  55.627  1.00  0.00     0.043 A 
HETATM   23  C   UNL     1      28.618  44.826  54.519  1.00  0.00     0.127 A 
HETATM   24  F   UNL     1      27.546  45.555  54.170  1.00  0.00    -0.205 F 
ENDBRANCH  15  18
ENDBRANCH  11  12
ENDBRANCH   1  11
BRANCH   8  25
HETATM   25  O   UNL     1      27.626  36.142  49.034  1.00  0.00    -0.393 OA
HETATM   26  H   UNL     1      28.307  35.536  49.383  1.00  0.00     0.210 HD
ENDBRANCH   8  25
BRANCH   9  27
HETATM   27  O   UNL     1      29.909  37.050  50.367  1.00  0.00    -0.393 OA
HETATM   28  H   UNL     1      29.537  36.154  50.246  1.00  0.00     0.210 HD
ENDBRANCH   9  27
TORSDOF 5
ENDMDL
MODEL 9
REMARK VINA RESULT:      -8.0      4.138      5.558
REMARK  5 active torsions:
REMARK  status: ('A' for Active; 'I' for Inactive)
REMARK    1  A    between atoms: C_3  and  C_4 
REMARK    2  A    between atoms: C_7  and  C_8 
REMARK    3  A    between atoms: C_8  and  N_9 
REMARK    4  A    between atoms: C_16  and  O_17 
REMARK    5  A    between atoms: C_18  and  O_19 
ROOT
HETATM    1  N   UNL     1      28.054  40.698  49.641  1.00  0.00    -0.067 N 
HETATM    2  H   UNL     1      28.915  41.196  49.897  1.00  0.00     0.280 HD
HETATM    3  C   UNL     1      27.687  41.131  48.232  1.00  0.00     0.240 C 
HETATM    4  C   UNL     1      27.689  39.847  47.407  1.00  0.00     0.020 C 
HETATM    5  C   UNL     1      28.727  38.983  48.127  1.00  0.00     0.020 C 
HETATM    6  C   UNL     1      28.413  39.225  49.598  1.00  0.00     0.240 C 
HETATM    7  C   UNL     1      26.291  39.201  47.340  1.00  0.00     0.041 C 
HETATM    8  C   UNL     1      26.349  37.773  46.801  1.00  0.00     0.147 C 
HETATM    9  C   UNL     1      27.301  36.916  47.651  1.00  0.00     0.147 C 
HETATM   10  C   UNL     1      28.708  37.514  47.717  1.00  0.00     0.041 C 
ENDROOT
BRANCH   1  11
HETATM   11  C   UNL     1      27.033  41.070  50.683  1.00  0.00     0.273 C 
BRANCH  11  12
HETATM   12  C   UNL     1      27.609  41.893  51.801  1.00  0.00    -0.033 A 
HETATM   13  C   UNL     1      28.035  41.290  52.992  1.00  0.00     0.010 A 
HETATM   14  C   UNL     1      28.541  42.068  54.039  1.00  0.00     0.013 A 
HETATM   15  C   UNL     1      28.630  43.465  53.932  1.00  0.00    -0.023 A 
HETATM   16  C   UNL     1      28.202  44.057  52.734  1.00  0.00     0.013 A 
HETATM   17  C   UNL     1      27.700  43.286  51.682  1.00  0.00     0.010 A 
BRANCH  15  18
HETATM   18  C   UNL     1      29.164  44.284  55.033  1.00  0.00     0.013 A 
HETATM   19  C   UNL     1      28.441  45.379  55.537  1.00  0.00     0.015 A 
HETATM   20  C   UNL     1      28.942  46.151  56.592  1.00  0.00     0.001 A 
HETATM   21  C   UNL     1      30.175  45.843  57.162  1.00  0.00     0.003 A 
HETATM   22  C   UNL     1      30.910  44.764  56.677  1.00  0.00     0.043 A 
HETATM   23  C   UNL     1      30.405  43.999  55.628  1.00  0.00     0.127 A 
HETATM   24  F   UNL     1      31.144  42.970  55.181  1.00  0.00    -0.205 F 
ENDBRANCH  15  18
ENDBRANCH  11  12
ENDBRANCH   1  11
BRANCH   8  25
HETATM   25  O   UNL     1      26.836  37.804  45.459  1.00  0.00    -0.393 OA
HETATM   26  H   UNL     1      26.068  37.719  44.863  1.00  0.00     0.210 HD
ENDBRANCH   8  25
BRANCH   9  27
HETATM   27  O   UNL     1      27.391  35.608  47.098  1.00  0.00    -0.393 OA
HETATM   28  H   UNL     1      26.528  35.177  47.263  1.00  0.00     0.210 HD
ENDBRANCH   9  27
TORSDOF 5
ENDMDL
MODEL 10
REMARK VINA RESULT:      -7.9     13.083     15.650
REMARK  5 active torsions:
REMARK  status: ('A' for Active; 'I' for Inactive)
REMARK    1  A    between atoms: C_3  and  C_4 
REMARK    2  A    between atoms: C_7  and  C_8 
REMARK    3  A    between atoms: C_8  and  N_9 
REMARK    4  A    between atoms: C_16  and  O_17 
REMARK    5  A    between atoms: C_18  and  O_19 
ROOT
HETATM    1  N   UNL     1      31.413  53.450  40.923  1.00  0.00    -0.067 N 
HETATM    2  H   UNL     1      31.909  54.301  41.212  1.00  0.00     0.280 HD
HETATM    3  C   UNL     1      32.280  52.753  39.889  1.00  0.00     0.240 C 
HETATM    4  C   UNL     1      32.581  51.379  40.482  1.00  0.00     0.020 C 
HETATM    5  C   UNL     1      32.550  51.645  41.988  1.00  0.00     0.020 C 
HETATM    6  C   UNL     1      31.344  52.561  42.150  1.00  0.00     0.240 C 
HETATM    7  C   UNL     1      31.561  50.317  40.025  1.00  0.00     0.041 C 
HETATM    8  C   UNL     1      31.660  49.038  40.854  1.00  0.00     0.147 C 
HETATM    9  C   UNL     1      31.482  49.352  42.349  1.00  0.00     0.147 C 
HETATM   10  C   UNL     1      32.498  50.384  42.844  1.00  0.00     0.041 C 
ENDROOT
BRANCH   1  11
HETATM   11  C   UNL     1      30.078  53.906  40.396  1.00  0.00     0.273 C 
BRANCH  11  12
HETATM   12  C   UNL     1      29.125  52.770  40.149  1.00  0.00    -0.033 A 
HETATM   13  C   UNL     1      28.511  52.101  41.216  1.00  0.00     0.010 A 
HETATM   14  C   UNL     1      27.649  51.025  40.976  1.00  0.00     0.013 A 
HETATM   15  C   UNL     1      27.381  50.583  39.671  1.00  0.00    -0.023 A 
HETATM   16  C   UNL     1      28.001  51.261  38.610  1.00  0.00     0.013 A 
HETATM   17  C   UNL     1      28.859  52.339  38.842  1.00  0.00     0.010 A 
BRANCH  15  18
HETATM   18  C   UNL     1      26.473  49.451  39.417  1.00  0.00     0.013 A 
HETATM   19  C   UNL     1      25.155  49.665  38.979  1.00  0.00     0.015 A 
HETATM   20  C   UNL     1      24.295  48.590  38.725  1.00  0.00     0.001 A 
HETATM   21  C   UNL     1      24.737  47.281  38.907  1.00  0.00     0.003 A 
HETATM   22  C   UNL     1      26.038  47.046  39.342  1.00  0.00     0.043 A 
HETATM   23  C   UNL     1      26.890  48.121  39.592  1.00  0.00     0.127 A 
HETATM   24  F   UNL     1      28.135  47.856  40.018  1.00  0.00    -0.205 F 
ENDBRANCH  15  18
ENDBRANCH  11  12
ENDBRANCH   1  11
BRANCH   8  25
HETATM   25  O   UNL     1      32.951  48.458  40.660  1.00  0.00    -0.393 OA
HETATM   26  H   UNL     1      33.504  48.702  41.426  1.00  0.00     0.210 HD
ENDBRANCH   8  25
BRANCH   9  27
HETATM   27  O   UNL     1      31.639  48.160  43.111  1.00  0.00    -0.393 OA
HETATM   28  H   UNL     1      31.374  47.421  42.528  1.00  0.00     0.210 HD
ENDBRANCH   9  27
TORSDOF 5
ENDMDL
