MODEL 1
REMARK VINA RESULT:      -7.9      0.000      0.000
REMARK  5 active torsions:
REMARK  status: ('A' for Active; 'I' for Inactive)
REMARK    1  A    between atoms: C_2  and  C_3 
REMARK    2  A    between atoms: C_3  and  N_4 
REMARK    3  A    between atoms: C_7  and  C_8 
REMARK    4  A    between atoms: C_8  and  O_9 
REMARK    5  A    between atoms: N_13  and  C_15 
ROOT
HETATM    1  N   UNL     1      27.937  42.752  53.031  1.00  0.00    -0.067 N 
HETATM    2  H   UNL     1      27.472  42.911  53.936  1.00  0.00     0.280 HD
HETATM    3  C   UNL     1      26.878  43.027  51.996  1.00  0.00     0.242 C 
HETATM    4  C   UNL     1      27.336  42.598  50.581  1.00  0.00     0.044 C 
HETATM    5  C   UNL     1      27.779  41.084  50.503  1.00  0.00    -0.029 C 
HETATM    6  C   UNL     1      26.615  40.068  50.720  1.00  0.00     0.037 C 
HETATM    7  C   UNL     1      25.839  39.648  49.468  1.00  0.00     0.236 C 
HETATM    8  N   UNL     1      26.772  39.147  48.393  1.00  0.00    -0.067 N 
HETATM    9  H   UNL     1      26.172  38.982  47.571  1.00  0.00     0.280 HD
HETATM   10  C   UNL     1      27.684  40.283  47.985  1.00  0.00     0.236 C 
HETATM   11  C   UNL     1      28.528  40.758  49.166  1.00  0.00     0.037 C 
HETATM   12  C   UNL     1      28.839  40.895  51.648  1.00  0.00     0.037 C 
HETATM   13  C   UNL     1      28.380  41.324  53.039  1.00  0.00     0.236 C 
ENDROOT
BRANCH   4  14
HETATM   14  C   UNL     1      26.266  43.057  49.580  1.00  0.00     0.171 C 
BRANCH  14  15
HETATM   15  O   UNL     1      26.571  44.388  49.198  1.00  0.00    -0.400 OA
HETATM   16  H   UNL     1      27.074  44.822  49.916  1.00  0.00     0.209 HD
ENDBRANCH  14  15
ENDBRANCH   4  14
BRANCH   1  17
HETATM   17  C   UNL     1      29.081  43.760  53.062  1.00  0.00     0.273 C 
BRANCH  17  18
HETATM   18  C   UNL     1      29.526  44.104  54.460  1.00  0.00    -0.033 A 
HETATM   19  C   UNL     1      28.939  45.176  55.154  1.00  0.00     0.010 A 
HETATM   20  C   UNL     1      29.396  45.528  56.427  1.00  0.00     0.024 A 
HETATM   21  C   UNL     1      30.436  44.813  57.016  1.00  0.00     0.034 A 
HETATM   22  C   UNL     1      31.018  43.740  56.346  1.00  0.00     0.024 A 
HETATM   23 CL   UNL     1      31.006  45.259  58.574  1.00  0.00    -0.084 Cl
HETATM   24  C   UNL     1      30.566  43.386  55.073  1.00  0.00     0.010 A 
ENDBRANCH  17  18
ENDBRANCH   1  17
BRANCH   8  25
HETATM   25  C   UNL     1      27.466  37.783  48.666  1.00  0.00     0.192 C 
HETATM   26  C   UNL     1      26.441  36.655  48.861  1.00  0.00     0.059 C 
HETATM   27  C   UNL     1      25.748  36.291  47.557  1.00  0.00     0.169 C 
HETATM   28  O   UNL     1      26.712  35.955  46.569  1.00  0.00    -0.391 OA
HETATM   29  C   UNL     1      27.639  36.988  46.268  1.00  0.00     0.169 C 
HETATM   30  C   UNL     1      28.408  37.385  47.519  1.00  0.00     0.059 C 
ENDBRANCH   8  25
TORSDOF 5
ENDMDL
MODEL 2
REMARK VINA RESULT:      -7.6      3.947      6.371
REMARK  5 active torsions:
REMARK  status: ('A' for Active; 'I' for Inactive)
REMARK    1  A    between atoms: C_2  and  C_3 
REMARK    2  A    between atoms: C_3  and  N_4 
REMARK    3  A    between atoms: C_7  and  C_8 
REMARK    4  A    between atoms: C_8  and  O_9 
REMARK    5  A    between atoms: N_13  and  C_15 
ROOT
HETATM    1  N   UNL     1      26.991  44.434  52.040  1.00  0.00    -0.067 N 
HETATM    2  H   UNL     1      27.912  44.893  52.075  1.00  0.00     0.280 HD
HETATM    3  C   UNL     1      26.991  43.658  50.749  1.00  0.00     0.242 C 
HETATM    4  C   UNL     1      25.586  43.101  50.415  1.00  0.00     0.044 C 
HETATM    5  C   UNL     1      24.470  44.218  50.367  1.00  0.00    -0.029 C 
HETATM    6  C   UNL     1      24.634  45.232  49.193  1.00  0.00     0.037 C 
HETATM    7  C   UNL     1      23.963  44.853  47.870  1.00  0.00     0.236 C 
HETATM    8  N   UNL     1      22.503  44.527  48.075  1.00  0.00    -0.067 N 
HETATM    9  H   UNL     1      22.169  44.197  47.158  1.00  0.00     0.280 HD
HETATM   10  C   UNL     1      22.406  43.319  48.980  1.00  0.00     0.236 C 
HETATM   11  C   UNL     1      23.028  43.607  50.346  1.00  0.00     0.037 C 
HETATM   12  C   UNL     1      24.589  44.993  51.730  1.00  0.00     0.037 C 
HETATM   13  C   UNL     1      25.979  45.535  52.051  1.00  0.00     0.236 C 
ENDROOT
BRANCH   4  14
HETATM   14  C   UNL     1      25.717  42.202  49.178  1.00  0.00     0.171 C 
BRANCH  14  15
HETATM   15  O   UNL     1      26.908  42.566  48.501  1.00  0.00    -0.400 OA
HETATM   16  H   UNL     1      27.191  43.453  48.802  1.00  0.00     0.209 HD
ENDBRANCH  14  15
ENDBRANCH   4  14
BRANCH   1  17
HETATM   17  C   UNL     1      26.996  43.578  53.302  1.00  0.00     0.273 C 
BRANCH  17  18
HETATM   18  C   UNL     1      28.247  43.750  54.126  1.00  0.00    -0.033 A 
HETATM   19  C   UNL     1      29.227  42.743  54.156  1.00  0.00     0.010 A 
HETATM   20  C   UNL     1      30.357  42.882  54.967  1.00  0.00     0.024 A 
HETATM   21  C   UNL     1      30.519  44.023  55.747  1.00  0.00     0.034 A 
HETATM   22  C   UNL     1      29.563  45.035  55.717  1.00  0.00     0.024 A 
HETATM   23 CL   UNL     1      31.900  44.182  56.756  1.00  0.00    -0.084 Cl
HETATM   24  C   UNL     1      28.430  44.901  54.910  1.00  0.00     0.010 A 
ENDBRANCH  17  18
ENDBRANCH   1  17
BRANCH   8  25
HETATM   25  C   UNL     1      21.576  45.722  48.436  1.00  0.00     0.192 C 
HETATM   26  C   UNL     1      21.623  46.820  47.361  1.00  0.00     0.059 C 
HETATM   27  C   UNL     1      20.930  46.383  46.080  1.00  0.00     0.169 C 
HETATM   28  O   UNL     1      19.596  45.982  46.358  1.00  0.00    -0.391 OA
HETATM   29  C   UNL     1      19.479  44.905  47.277  1.00  0.00     0.169 C 
HETATM   30  C   UNL     1      20.116  45.277  48.607  1.00  0.00     0.059 C 
ENDBRANCH   8  25
TORSDOF 5
ENDMDL
MODEL 3
REMARK VINA RESULT:      -7.4      3.332      3.992
REMARK  5 active torsions:
REMARK  status: ('A' for Active; 'I' for Inactive)
REMARK    1  A    between atoms: C_2  and  C_3 
REMARK    2  A    between atoms: C_3  and  N_4 
REMARK    3  A    between atoms: C_7  and  C_8 
REMARK    4  A    between atoms: C_8  and  O_9 
REMARK    5  A    between atoms: N_13  and  C_15 
ROOT
HETATM    1  N   UNL     1      27.992  42.817  52.991  1.00  0.00    -0.067 N 
HETATM    2  H   UNL     1      28.111  42.201  53.808  1.00  0.00     0.280 HD
HETATM    3  C   UNL     1      26.688  43.531  53.230  1.00  0.00     0.242 C 
HETATM    4  C   UNL     1      26.230  44.319  51.978  1.00  0.00     0.044 C 
HETATM    5  C   UNL     1      26.117  43.420  50.684  1.00  0.00    -0.029 C 
HETATM    6  C   UNL     1      24.983  42.350  50.749  1.00  0.00     0.037 C 
HETATM    7  C   UNL     1      23.603  42.795  50.259  1.00  0.00     0.236 C 
HETATM    8  N   UNL     1      23.682  43.385  48.872  1.00  0.00    -0.067 N 
HETATM    9  H   UNL     1      22.733  43.735  48.673  1.00  0.00     0.280 HD
HETATM   10  C   UNL     1      24.548  44.623  48.929  1.00  0.00     0.236 C 
HETATM   11  C   UNL     1      25.966  44.279  49.383  1.00  0.00     0.037 C 
HETATM   12  C   UNL     1      27.502  42.687  50.558  1.00  0.00     0.037 C 
HETATM   13  C   UNL     1      27.947  41.916  51.798  1.00  0.00     0.236 C 
ENDROOT
BRANCH   4  14
HETATM   14  C   UNL     1      24.987  45.134  52.364  1.00  0.00     0.171 C 
BRANCH  14  15
HETATM   15  O   UNL     1      25.300  46.507  52.201  1.00  0.00    -0.400 OA
HETATM   16  H   UNL     1      24.572  46.948  51.721  1.00  0.00     0.209 HD
ENDBRANCH  14  15
ENDBRANCH   4  14
BRANCH   1  17
HETATM   17  C   UNL     1      29.231  43.703  53.057  1.00  0.00     0.273 C 
BRANCH  17  18
HETATM   18  C   UNL     1      29.642  44.037  54.468  1.00  0.00    -0.033 A 
HETATM   19  C   UNL     1      29.104  45.157  55.124  1.00  0.00     0.010 A 
HETATM   20  C   UNL     1      29.533  45.496  56.411  1.00  0.00     0.024 A 
HETATM   21  C   UNL     1      30.495  44.719  57.051  1.00  0.00     0.034 A 
HETATM   22  C   UNL     1      31.027  43.598  56.419  1.00  0.00     0.024 A 
HETATM   23 CL   UNL     1      31.033  45.149  58.625  1.00  0.00    -0.084 Cl
HETATM   24  C   UNL     1      30.604  43.257  55.132  1.00  0.00     0.010 A 
ENDBRANCH  17  18
ENDBRANCH   1  17
BRANCH   8  25
HETATM   25  C   UNL     1      23.993  42.390  47.719  1.00  0.00     0.192 C 
HETATM   26  C   UNL     1      23.478  40.977  48.034  1.00  0.00     0.059 C 
HETATM   27  C   UNL     1      21.960  40.907  47.980  1.00  0.00     0.169 C 
HETATM   28  O   UNL     1      21.494  41.362  46.718  1.00  0.00    -0.391 OA
HETATM   29  C   UNL     1      21.855  42.698  46.398  1.00  0.00     0.169 C 
HETATM   30  C   UNL     1      23.369  42.845  46.391  1.00  0.00     0.059 C 
ENDBRANCH   8  25
TORSDOF 5
ENDMDL
MODEL 4
REMARK VINA RESULT:      -7.4      2.822      3.806
REMARK  5 active torsions:
REMARK  status: ('A' for Active; 'I' for Inactive)
REMARK    1  A    between atoms: C_2  and  C_3 
REMARK    2  A    between atoms: C_3  and  N_4 
REMARK    3  A    between atoms: C_7  and  C_8 
REMARK    4  A    between atoms: C_8  and  O_9 
REMARK    5  A    between atoms: N_13  and  C_15 
ROOT
HETATM    1  N   UNL     1      26.305  46.189  54.711  1.00  0.00    -0.067 N 
HETATM    2  H   UNL     1      25.697  46.294  55.535  1.00  0.00     0.280 HD
HETATM    3  C   UNL     1      25.469  46.657  53.548  1.00  0.00     0.242 C 
HETATM    4  C   UNL     1      26.144  46.337  52.192  1.00  0.00     0.044 C 
HETATM    5  C   UNL     1      26.493  44.806  52.017  1.00  0.00    -0.029 C 
HETATM    6  C   UNL     1      25.245  43.876  51.914  1.00  0.00     0.037 C 
HETATM    7  C   UNL     1      24.679  43.654  50.508  1.00  0.00     0.236 C 
HETATM    8  N   UNL     1      25.755  43.187  49.557  1.00  0.00    -0.067 N 
HETATM    9  H   UNL     1      25.303  43.158  48.632  1.00  0.00     0.280 HD
HETATM   10  C   UNL     1      26.798  44.277  49.445  1.00  0.00     0.236 C 
HETATM   11  C   UNL     1      27.447  44.556  50.800  1.00  0.00     0.037 C 
HETATM   12  C   UNL     1      27.317  44.412  53.297  1.00  0.00     0.037 C 
HETATM   13  C   UNL     1      26.645  44.735  54.629  1.00  0.00     0.236 C 
ENDROOT
BRANCH   4  14
HETATM   14  C   UNL     1      25.303  46.985  51.084  1.00  0.00     0.171 C 
BRANCH  14  15
HETATM   15  O   UNL     1      26.089  47.998  50.479  1.00  0.00    -0.400 OA
HETATM   16  H   UNL     1      25.619  48.344  49.695  1.00  0.00     0.209 HD
ENDBRANCH  14  15
ENDBRANCH   4  14
BRANCH   1  17
HETATM   17  C   UNL     1      27.489  47.088  55.052  1.00  0.00     0.273 C 
BRANCH  17  18
HETATM   18  C   UNL     1      28.532  46.395  55.892  1.00  0.00    -0.033 A 
HETATM   19  C   UNL     1      28.448  46.414  57.294  1.00  0.00     0.010 A 
HETATM   20  C   UNL     1      29.449  45.821  58.069  1.00  0.00     0.024 A 
HETATM   21  C   UNL     1      30.534  45.204  57.453  1.00  0.00     0.034 A 
HETATM   22  C   UNL     1      30.624  45.166  56.064  1.00  0.00     0.024 A 
HETATM   23 CL   UNL     1      31.771  44.492  58.409  1.00  0.00    -0.084 Cl
HETATM   24  C   UNL     1      29.627  45.759  55.285  1.00  0.00     0.010 A 
ENDBRANCH  17  18
ENDBRANCH   1  17
BRANCH   8  25
HETATM   25  C   UNL     1      26.298  41.749  49.786  1.00  0.00     0.192 C 
HETATM   26  C   UNL     1      25.215  40.688  49.535  1.00  0.00     0.059 C 
HETATM   27  C   UNL     1      24.881  40.563  48.056  1.00  0.00     0.169 C 
HETATM   28  O   UNL     1      26.058  40.294  47.310  1.00  0.00    -0.391 OA
HETATM   29  C   UNL     1      27.072  41.283  47.421  1.00  0.00     0.169 C 
HETATM   30  C   UNL     1      27.495  41.441  48.873  1.00  0.00     0.059 C 
ENDBRANCH   8  25
TORSDOF 5
ENDMDL
MODEL 5
REMARK VINA RESULT:      -7.3     13.145     14.279
REMARK  5 active torsions:
REMARK  status: ('A' for Active; 'I' for Inactive)
REMARK    1  A    between atoms: C_2  and  C_3 
REMARK    2  A    between atoms: C_3  and  N_4 
REMARK    3  A    between atoms: C_7  and  C_8 
REMARK    4  A    between atoms: C_8  and  O_9 
REMARK    5  A    between atoms: N_13  and  C_15 
ROOT
HETATM    1  N   UNL     1      30.372  50.456  41.246  1.00  0.00    -0.067 N 
HETATM    2  H   UNL     1      30.984  51.264  41.062  1.00  0.00     0.280 HD
HETATM    3  C   UNL     1      30.355  49.679  39.956  1.00  0.00     0.242 C 
HETATM    4  C   UNL     1      29.285  48.560  39.975  1.00  0.00     0.044 C 
HETATM    5  C   UNL     1      27.833  49.094  40.295  1.00  0.00    -0.029 C 
HETATM    6  C   UNL     1      27.233  50.011  39.185  1.00  0.00     0.037 C 
HETATM    7  C   UNL     1      26.459  49.305  38.068  1.00  0.00     0.236 C 
HETATM    8  N   UNL     1      25.388  48.405  38.634  1.00  0.00    -0.067 N 
HETATM    9  H   UNL     1      24.992  47.911  37.820  1.00  0.00     0.280 HD
HETATM   10  C   UNL     1      26.056  47.325  39.456  1.00  0.00     0.236 C 
HETATM   11  C   UNL     1      26.837  47.930  40.622  1.00  0.00     0.037 C 
HETATM   12  C   UNL     1      27.973  49.926  41.622  1.00  0.00     0.037 C 
HETATM   13  C   UNL     1      29.032  51.024  41.594  1.00  0.00     0.236 C 
ENDROOT
BRANCH   4  14
HETATM   14  C   UNL     1      29.449  47.729  38.695  1.00  0.00     0.171 C 
BRANCH  14  15
HETATM   15  O   UNL     1      30.797  47.845  38.272  1.00  0.00    -0.400 OA
HETATM   16  H   UNL     1      31.195  48.639  38.680  1.00  0.00     0.209 HD
ENDBRANCH  14  15
ENDBRANCH   4  14
BRANCH   1  17
HETATM   17  C   UNL     1      31.075  49.760  42.405  1.00  0.00     0.273 C 
BRANCH  17  18
HETATM   18  C   UNL     1      32.329  50.471  42.846  1.00  0.00    -0.033 A 
HETATM   19  C   UNL     1      32.323  51.291  43.987  1.00  0.00     0.010 A 
HETATM   20  C   UNL     1      33.474  51.994  44.357  1.00  0.00     0.024 A 
HETATM   21  C   UNL     1      34.634  51.880  43.597  1.00  0.00     0.034 A 
HETATM   22  C   UNL     1      34.659  51.061  42.472  1.00  0.00     0.024 A 
HETATM   23 CL   UNL     1      36.041  52.760  44.046  1.00  0.00    -0.084 Cl
HETATM   24  C   UNL     1      33.512  50.358  42.096  1.00  0.00     0.010 A 
ENDBRANCH  17  18
ENDBRANCH   1  17
BRANCH   8  25
HETATM   25  C   UNL     1      24.176  49.114  39.302  1.00  0.00     0.192 C 
HETATM   26  C   UNL     1      23.395  49.971  38.294  1.00  0.00     0.059 C 
HETATM   27  C   UNL     1      22.627  49.113  37.300  1.00  0.00     0.169 C 
HETATM   28  O   UNL     1      21.773  48.213  37.990  1.00  0.00    -0.391 OA
HETATM   29  C   UNL     1      22.438  47.322  38.875  1.00  0.00     0.169 C 
HETATM   30  C   UNL     1      23.203  48.106  39.931  1.00  0.00     0.059 C 
ENDBRANCH   8  25
TORSDOF 5
ENDMDL
MODEL 6
REMARK VINA RESULT:      -7.3      1.684      2.105
REMARK  5 active torsions:
REMARK  status: ('A' for Active; 'I' for Inactive)
REMARK    1  A    between atoms: C_2  and  C_3 
REMARK    2  A    between atoms: C_3  and  N_4 
REMARK    3  A    between atoms: C_7  and  C_8 
REMARK    4  A    between atoms: C_8  and  O_9 
REMARK    5  A    between atoms: N_13  and  C_15 
ROOT
HETATM    1  N   UNL     1      27.345  42.686  53.181  1.00  0.00    -0.067 N 
HETATM    2  H   UNL     1      26.740  42.786  54.009  1.00  0.00     0.280 HD
HETATM    3  C   UNL     1      26.451  42.989  52.007  1.00  0.00     0.242 C 
HETATM    4  C   UNL     1      27.137  42.645  50.662  1.00  0.00     0.044 C 
HETATM    5  C   UNL     1      27.635  41.148  50.583  1.00  0.00    -0.029 C 
HETATM    6  C   UNL     1      26.484  40.094  50.566  1.00  0.00     0.037 C 
HETATM    7  C   UNL     1      25.926  39.722  49.189  1.00  0.00     0.236 C 
HETATM    8  N   UNL     1      27.031  39.301  48.251  1.00  0.00    -0.067 N 
HETATM    9  H   UNL     1      26.572  39.164  47.338  1.00  0.00     0.280 HD
HETATM   10  C   UNL     1      27.958  40.478  48.046  1.00  0.00     0.236 C 
HETATM   11  C   UNL     1      28.593  40.912  49.366  1.00  0.00     0.037 C 
HETATM   12  C   UNL     1      28.510  40.925  51.870  1.00  0.00     0.037 C 
HETATM   13  C   UNL     1      27.826  41.270  53.190  1.00  0.00     0.236 C 
ENDROOT
BRANCH   4  14
HETATM   14  C   UNL     1      26.221  43.130  49.530  1.00  0.00     0.171 C 
BRANCH  14  15
HETATM   15  O   UNL     1      26.661  44.419  49.137  1.00  0.00    -0.400 OA
HETATM   16  H   UNL     1      26.137  44.717  48.367  1.00  0.00     0.209 HD
ENDBRANCH  14  15
ENDBRANCH   4  14
BRANCH   1  17
HETATM   17  C   UNL     1      28.437  43.718  53.439  1.00  0.00     0.273 C 
BRANCH  17  18
HETATM   18  C   UNL     1      27.914  44.986  54.065  1.00  0.00    -0.033 A 
HETATM   19  C   UNL     1      26.844  45.684  53.480  1.00  0.00     0.010 A 
HETATM   20  C   UNL     1      26.402  46.890  54.032  1.00  0.00     0.024 A 
HETATM   21  C   UNL     1      27.019  47.403  55.169  1.00  0.00     0.034 A 
HETATM   22  C   UNL     1      28.072  46.716  55.768  1.00  0.00     0.024 A 
HETATM   23 CL   UNL     1      26.484  48.894  55.834  1.00  0.00    -0.084 Cl
HETATM   24  C   UNL     1      28.519  45.511  55.219  1.00  0.00     0.010 A 
ENDBRANCH  17  18
ENDBRANCH   1  17
BRANCH   8  25
HETATM   25  C   UNL     1      27.717  37.942  48.564  1.00  0.00     0.192 C 
HETATM   26  C   UNL     1      26.687  36.831  48.817  1.00  0.00     0.059 C 
HETATM   27  C   UNL     1      25.970  36.425  47.538  1.00  0.00     0.169 C 
HETATM   28  O   UNL     1      26.915  36.044  46.549  1.00  0.00    -0.391 OA
HETATM   29  C   UNL     1      27.846  37.057  46.195  1.00  0.00     0.169 C 
HETATM   30  C   UNL     1      28.638  37.493  47.418  1.00  0.00     0.059 C 
ENDBRANCH   8  25
TORSDOF 5
ENDMDL
MODEL 7
REMARK VINA RESULT:      -7.1     13.532     14.752
REMARK  5 active torsions:
REMARK  status: ('A' for Active; 'I' for Inactive)
REMARK    1  A    between atoms: C_2  and  C_3 
REMARK    2  A    between atoms: C_3  and  N_4 
REMARK    3  A    between atoms: C_7  and  C_8 
REMARK    4  A    between atoms: C_8  and  O_9 
REMARK    5  A    between atoms: N_13  and  C_15 
ROOT
HETATM    1  N   UNL     1      33.372  51.480  42.526  1.00  0.00    -0.067 N 
HETATM    2  H   UNL     1      33.438  52.301  43.144  1.00  0.00     0.280 HD
HETATM    3  C   UNL     1      32.835  52.015  41.224  1.00  0.00     0.242 C 
HETATM    4  C   UNL     1      32.439  50.874  40.256  1.00  0.00     0.044 C 
HETATM    5  C   UNL     1      31.405  49.857  40.882  1.00  0.00    -0.029 C 
HETATM    6  C   UNL     1      29.996  50.468  41.155  1.00  0.00     0.037 C 
HETATM    7  C   UNL     1      28.991  50.396  40.002  1.00  0.00     0.236 C 
HETATM    8  N   UNL     1      28.854  48.983  39.488  1.00  0.00    -0.067 N 
HETATM    9  H   UNL     1      28.238  49.055  38.664  1.00  0.00     0.280 HD
HETATM   10  C   UNL     1      30.192  48.546  38.933  1.00  0.00     0.236 C 
HETATM   11  C   UNL     1      31.265  48.556  40.021  1.00  0.00     0.037 C 
HETATM   12  C   UNL     1      32.036  49.402  42.249  1.00  0.00     0.037 C 
HETATM   13  C   UNL     1      32.426  50.534  43.195  1.00  0.00     0.236 C 
ENDROOT
BRANCH   4  14
HETATM   14  C   UNL     1      32.056  51.508  38.912  1.00  0.00     0.171 C 
BRANCH  14  15
HETATM   15  O   UNL     1      32.947  51.012  37.927  1.00  0.00    -0.400 OA
HETATM   16  H   UNL     1      32.495  51.004  37.060  1.00  0.00     0.209 HD
ENDBRANCH  14  15
ENDBRANCH   4  14
BRANCH   1  17
HETATM   17  C   UNL     1      34.813  50.986  42.470  1.00  0.00     0.273 C 
BRANCH  17  18
HETATM   18  C   UNL     1      35.818  52.061  42.797  1.00  0.00    -0.033 A 
HETATM   19  C   UNL     1      35.972  52.518  44.117  1.00  0.00     0.010 A 
HETATM   20  C   UNL     1      36.863  53.555  44.405  1.00  0.00     0.024 A 
HETATM   21  C   UNL     1      37.607  54.139  43.383  1.00  0.00     0.034 A 
HETATM   22  C   UNL     1      37.474  53.688  42.073  1.00  0.00     0.024 A 
HETATM   23 CL   UNL     1      38.688  55.426  43.739  1.00  0.00    -0.084 Cl
HETATM   24  C   UNL     1      36.583  52.652  41.779  1.00  0.00     0.010 A 
ENDBRANCH  17  18
ENDBRANCH   1  17
BRANCH   8  25
HETATM   25  C   UNL     1      28.147  47.973  40.434  1.00  0.00     0.192 C 
HETATM   26  C   UNL     1      26.713  48.414  40.765  1.00  0.00     0.059 C 
HETATM   27  C   UNL     1      25.790  48.273  39.564  1.00  0.00     0.169 C 
HETATM   28  O   UNL     1      25.825  46.941  39.073  1.00  0.00    -0.391 OA
HETATM   29  C   UNL     1      27.109  46.494  38.660  1.00  0.00     0.169 C 
HETATM   30  C   UNL     1      28.089  46.565  39.821  1.00  0.00     0.059 C 
ENDBRANCH   8  25
TORSDOF 5
ENDMDL
MODEL 8
REMARK VINA RESULT:      -7.1     13.205     14.516
REMARK  5 active torsions:
REMARK  status: ('A' for Active; 'I' for Inactive)
REMARK    1  A    between atoms: C_2  and  C_3 
REMARK    2  A    between atoms: C_3  and  N_4 
REMARK    3  A    between atoms: C_7  and  C_8 
REMARK    4  A    between atoms: C_8  and  O_9 
REMARK    5  A    between atoms: N_13  and  C_15 
ROOT
HETATM    1  N   UNL     1      33.076  51.364  41.551  1.00  0.00    -0.067 N 
HETATM    2  H   UNL     1      33.810  51.907  41.073  1.00  0.00     0.280 HD
HETATM    3  C   UNL     1      33.147  49.990  40.939  1.00  0.00     0.242 C 
HETATM    4  C   UNL     1      31.948  49.110  41.369  1.00  0.00     0.044 C 
HETATM    5  C   UNL     1      30.547  49.766  41.048  1.00  0.00    -0.029 C 
HETATM    6  C   UNL     1      30.241  49.899  39.524  1.00  0.00     0.037 C 
HETATM    7  C   UNL     1      29.552  48.701  38.864  1.00  0.00     0.236 C 
HETATM    8  N   UNL     1      28.301  48.312  39.614  1.00  0.00    -0.067 N 
HETATM    9  H   UNL     1      27.968  47.452  39.155  1.00  0.00     0.280 HD
HETATM   10  C   UNL     1      28.696  47.879  41.009  1.00  0.00     0.236 C 
HETATM   11  C   UNL     1      29.371  49.022  41.766  1.00  0.00     0.037 C 
HETATM   12  C   UNL     1      30.600  51.204  41.684  1.00  0.00     0.037 C 
HETATM   13  C   UNL     1      31.787  52.062  41.256  1.00  0.00     0.236 C 
ENDROOT
BRANCH   4  14
HETATM   14  C   UNL     1      32.187  47.693  40.829  1.00  0.00     0.171 C 
BRANCH  14  15
HETATM   15  O   UNL     1      33.271  47.131  41.548  1.00  0.00    -0.400 OA
HETATM   16  H   UNL     1      34.050  47.068  40.960  1.00  0.00     0.209 HD
ENDBRANCH  14  15
ENDBRANCH   4  14
BRANCH   1  17
HETATM   17  C   UNL     1      33.506  51.438  43.012  1.00  0.00     0.273 C 
BRANCH  17  18
HETATM   18  C   UNL     1      34.992  51.623  43.181  1.00  0.00    -0.033 A 
HETATM   19  C   UNL     1      35.898  50.892  42.393  1.00  0.00     0.010 A 
HETATM   20  C   UNL     1      37.275  51.024  42.594  1.00  0.00     0.024 A 
HETATM   21  C   UNL     1      37.757  51.884  43.577  1.00  0.00     0.034 A 
HETATM   22  C   UNL     1      36.872  52.624  44.356  1.00  0.00     0.024 A 
HETATM   23 CL   UNL     1      39.449  52.029  43.833  1.00  0.00    -0.084 Cl
HETATM   24  C   UNL     1      35.494  52.495  44.161  1.00  0.00     0.010 A 
ENDBRANCH  17  18
ENDBRANCH   1  17
BRANCH   8  25
HETATM   25  C   UNL     1      27.109  49.305  39.523  1.00  0.00     0.192 C 
HETATM   26  C   UNL     1      26.841  49.738  38.073  1.00  0.00     0.059 C 
HETATM   27  C   UNL     1      26.247  48.606  37.248  1.00  0.00     0.169 C 
HETATM   28  O   UNL     1      25.070  48.112  37.871  1.00  0.00    -0.391 OA
HETATM   29  C   UNL     1      25.261  47.608  39.185  1.00  0.00     0.169 C 
HETATM   30  C   UNL     1      25.817  48.696  40.090  1.00  0.00     0.059 C 
ENDBRANCH   8  25
TORSDOF 5
ENDMDL
MODEL 9
REMARK VINA RESULT:      -6.9     13.655     14.739
REMARK  5 active torsions:
REMARK  status: ('A' for Active; 'I' for Inactive)
REMARK    1  A    between atoms: C_2  and  C_3 
REMARK    2  A    between atoms: C_3  and  N_4 
REMARK    3  A    between atoms: C_7  and  C_8 
REMARK    4  A    between atoms: C_8  and  O_9 
REMARK    5  A    between atoms: N_13  and  C_15 
ROOT
HETATM    1  N   UNL     1      32.965  50.512  42.299  1.00  0.00    -0.067 N 
HETATM    2  H   UNL     1      33.206  50.648  43.291  1.00  0.00     0.280 HD
HETATM    3  C   UNL     1      32.115  51.702  41.939  1.00  0.00     0.242 C 
HETATM    4  C   UNL     1      31.459  51.537  40.546  1.00  0.00     0.044 C 
HETATM    5  C   UNL     1      30.607  50.213  40.413  1.00  0.00    -0.029 C 
HETATM    6  C   UNL     1      29.330  50.185  41.309  1.00  0.00     0.037 C 
HETATM    7  C   UNL     1      28.057  50.772  40.693  1.00  0.00     0.236 C 
HETATM    8  N   UNL     1      27.765  50.146  39.351  1.00  0.00    -0.067 N 
HETATM    9  H   UNL     1      26.955  50.667  38.981  1.00  0.00     0.280 HD
HETATM   10  C   UNL     1      28.902  50.479  38.411  1.00  0.00     0.236 C 
HETATM   11  C   UNL     1      30.223  49.908  38.926  1.00  0.00     0.037 C 
HETATM   12  C   UNL     1      31.566  49.048  40.857  1.00  0.00     0.037 C 
HETATM   13  C   UNL     1      32.210  49.222  42.230  1.00  0.00     0.236 C 
ENDROOT
BRANCH   4  14
HETATM   14  C   UNL     1      30.749  52.853  40.201  1.00  0.00     0.171 C 
BRANCH  14  15
HETATM   15  O   UNL     1      31.312  53.874  41.006  1.00  0.00    -0.400 OA
HETATM   16  H   UNL     1      32.268  53.703  41.121  1.00  0.00     0.209 HD
ENDBRANCH  14  15
ENDBRANCH   4  14
BRANCH   1  17
HETATM   17  C   UNL     1      34.332  50.472  41.625  1.00  0.00     0.273 C 
BRANCH  17  18
HETATM   18  C   UNL     1      35.439  50.990  42.507  1.00  0.00    -0.033 A 
HETATM   19  C   UNL     1      35.185  51.987  43.463  1.00  0.00     0.010 A 
HETATM   20  C   UNL     1      36.227  52.506  44.237  1.00  0.00     0.024 A 
HETATM   21  C   UNL     1      37.524  52.032  44.066  1.00  0.00     0.034 A 
HETATM   22  C   UNL     1      37.789  51.034  43.131  1.00  0.00     0.024 A 
HETATM   23 CL   UNL     1      38.805  52.684  45.007  1.00  0.00    -0.084 Cl
HETATM   24  C   UNL     1      36.752  50.514  42.354  1.00  0.00     0.010 A 
ENDBRANCH  17  18
ENDBRANCH   1  17
BRANCH   8  25
HETATM   25  C   UNL     1      27.312  48.659  39.370  1.00  0.00     0.192 C 
HETATM   26  C   UNL     1      25.968  48.484  40.095  1.00  0.00     0.059 C 
HETATM   27  C   UNL     1      24.814  49.055  39.286  1.00  0.00     0.169 C 
HETATM   28  O   UNL     1      24.787  48.470  37.992  1.00  0.00    -0.391 OA
HETATM   29  C   UNL     1      25.966  48.671  37.225  1.00  0.00     0.169 C 
HETATM   30  C   UNL     1      27.170  48.089  37.950  1.00  0.00     0.059 C 
ENDBRANCH   8  25
TORSDOF 5
ENDMDL
MODEL 10
REMARK VINA RESULT:      -6.9      4.188      5.400
REMARK  5 active torsions:
REMARK  status: ('A' for Active; 'I' for Inactive)
REMARK    1  A    between atoms: C_2  and  C_3 
REMARK    2  A    between atoms: C_3  and  N_4 
REMARK    3  A    between atoms: C_7  and  C_8 
REMARK    4  A    between atoms: C_8  and  O_9 
REMARK    5  A    between atoms: N_13  and  C_15 
ROOT
HETATM    1  N   UNL     1      28.561  42.726  53.236  1.00  0.00    -0.067 N 
HETATM    2  H   UNL     1      28.627  41.830  53.739  1.00  0.00     0.280 HD
HETATM    3  C   UNL     1      27.475  43.491  53.946  1.00  0.00     0.242 C 
HETATM    4  C   UNL     1      27.073  44.769  53.169  1.00  0.00     0.044 C 
HETATM    5  C   UNL     1      26.636  44.478  51.679  1.00  0.00    -0.029 C 
HETATM    6  C   UNL     1      25.309  43.666  51.551  1.00  0.00     0.037 C 
HETATM    7  C   UNL     1      24.015  44.484  51.511  1.00  0.00     0.236 C 
HETATM    8  N   UNL     1      24.078  45.548  50.442  1.00  0.00    -0.067 N 
HETATM    9  H   UNL     1      23.213  46.097  50.556  1.00  0.00     0.280 HD
HETATM   10  C   UNL     1      25.194  46.508  50.789  1.00  0.00     0.236 C 
HETATM   11  C   UNL     1      26.542  45.789  50.827  1.00  0.00     0.037 C 
HETATM   12  C   UNL     1      27.808  43.639  51.051  1.00  0.00     0.037 C 
HETATM   13  C   UNL     1      28.199  42.384  51.826  1.00  0.00     0.236 C 
ENDROOT
BRANCH   4  14
HETATM   14  C   UNL     1      26.084  45.557  54.038  1.00  0.00     0.171 C 
BRANCH  14  15
HETATM   15  O   UNL     1      26.646  46.834  54.287  1.00  0.00    -0.400 OA
HETATM   16  H   UNL     1      27.296  46.763  55.014  1.00  0.00     0.209 HD
ENDBRANCH  14  15
ENDBRANCH   4  14
BRANCH   1  17
HETATM   17  C   UNL     1      29.963  43.304  53.398  1.00  0.00     0.273 C 
BRANCH  17  18
HETATM   18  C   UNL     1      30.223  43.842  54.782  1.00  0.00    -0.033 A 
HETATM   19  C   UNL     1      30.913  43.070  55.732  1.00  0.00     0.010 A 
HETATM   20  C   UNL     1      31.100  43.550  57.031  1.00  0.00     0.024 A 
HETATM   21  C   UNL     1      30.605  44.801  57.389  1.00  0.00     0.034 A 
HETATM   22  C   UNL     1      29.930  45.583  56.455  1.00  0.00     0.024 A 
HETATM   23 CL   UNL     1      30.821  45.380  58.992  1.00  0.00    -0.084 Cl
HETATM   24  C   UNL     1      29.739  45.107  55.156  1.00  0.00     0.010 A 
ENDBRANCH  17  18
ENDBRANCH   1  17
BRANCH   8  25
HETATM   25  C   UNL     1      24.046  45.047  48.970  1.00  0.00     0.192 C 
HETATM   26  C   UNL     1      23.899  43.520  48.895  1.00  0.00     0.059 C 
HETATM   27  C   UNL     1      22.508  43.066  49.311  1.00  0.00     0.169 C 
HETATM   28  O   UNL     1      21.524  43.724  48.526  1.00  0.00    -0.391 OA
HETATM   29  C   UNL     1      21.540  45.142  48.619  1.00  0.00     0.169 C 
HETATM   30  C   UNL     1      22.893  45.682  48.179  1.00  0.00     0.059 C 
ENDBRANCH   8  25
TORSDOF 5
ENDMDL
