MODEL 1
REMARK VINA RESULT:      -6.9      0.000      0.000
REMARK  5 active torsions:
REMARK  status: ('A' for Active; 'I' for Inactive)
REMARK    1  A    between atoms: C_2  and  O_3 
REMARK    2  A    between atoms: C_4  and  C_5 
REMARK    3  A    between atoms: C_5  and  O_6 
REMARK    4  A    between atoms: C_9  and  C_10 
REMARK    5  A    between atoms: C_22  and  O_23 
ROOT
HETATM    1  C   UNL     1      28.563  53.051  41.237  1.00  0.00     0.047 C 
HETATM    2  C   UNL     1      29.214  52.381  40.010  1.00  0.00     0.073 C 
HETATM    3  C   UNL     1      28.556  50.975  39.763  1.00  0.00     0.133 C 
HETATM    4  C   UNL     1      28.997  49.846  40.756  1.00  0.00     0.074 C 
HETATM    5  C   UNL     1      30.290  50.144  41.444  1.00  0.00     0.030 A 
HETATM    6  C   UNL     1      31.073  51.243  41.170  1.00  0.00     0.042 A 
HETATM    7  N   UNL     1      32.144  51.195  42.017  1.00  0.00    -0.279 N 
HETATM    8  H   UNL     1      32.923  51.841  42.096  1.00  0.00     0.189 HD
HETATM    9  N   UNL     1      32.084  50.151  42.870  1.00  0.00    -0.149 NA
HETATM   10  C   UNL     1      30.959  49.544  42.513  1.00  0.00     0.190 A 
HETATM   11  C   UNL     1      30.758  52.311  40.201  1.00  0.00     0.097 C 
ENDROOT
BRANCH   4  12
HETATM   12  C   UNL     1      29.155  48.448  40.166  1.00  0.00    -0.048 A 
HETATM   13  C   UNL     1      30.268  48.080  39.384  1.00  0.00     0.009 A 
HETATM   14  C   UNL     1      30.368  46.801  38.829  1.00  0.00     0.019 A 
HETATM   15  C   UNL     1      29.353  45.875  39.049  1.00  0.00     0.011 A 
HETATM   16 BR   UNL     1      29.484  44.147  38.297  1.00  0.00    -0.051 Br
HETATM   17  C   UNL     1      28.242  46.215  39.816  1.00  0.00     0.019 A 
HETATM   18  C   UNL     1      28.143  47.496  40.369  1.00  0.00     0.009 A 
ENDBRANCH   4  12
BRANCH   3  19
HETATM   19  C   UNL     1      28.709  50.578  38.308  1.00  0.00     0.266 C 
HETATM   20  O   UNL     1      29.674  50.863  37.609  1.00  0.00    -0.265 OA
BRANCH  19  21
HETATM   21  O   UNL     1      27.603  49.908  37.881  1.00  0.00    -0.326 OA
HETATM   22  C   UNL     1      26.363  50.516  38.243  1.00  0.00     0.213 C 
ENDBRANCH  19  21
ENDBRANCH   3  19
BRANCH   2  23
HETATM   23  O   UNL     1      28.926  53.274  38.919  1.00  0.00    -0.389 OA
HETATM   24  H   UNL     1      29.123  54.185  39.219  1.00  0.00     0.210 HD
ENDBRANCH   2  23
BRANCH  10  25
HETATM   25  O   UNL     1      30.625  48.485  43.241  1.00  0.00    -0.343 OA
HETATM   26  H   UNL     1      31.452  47.985  43.338  1.00  0.00     0.219 HD
ENDBRANCH  10  25
TORSDOF 5
ENDMDL
MODEL 2
REMARK VINA RESULT:      -6.9      1.246      1.313
REMARK  5 active torsions:
REMARK  status: ('A' for Active; 'I' for Inactive)
REMARK    1  A    between atoms: C_2  and  O_3 
REMARK    2  A    between atoms: C_4  and  C_5 
REMARK    3  A    between atoms: C_5  and  O_6 
REMARK    4  A    between atoms: C_9  and  C_10 
REMARK    5  A    between atoms: C_22  and  O_23 
ROOT
HETATM    1  C   UNL     1      30.370  53.152  41.220  1.00  0.00     0.047 C 
HETATM    2  C   UNL     1      30.176  52.320  39.936  1.00  0.00     0.073 C 
HETATM    3  C   UNL     1      29.243  51.091  40.238  1.00  0.00     0.133 C 
HETATM    4  C   UNL     1      29.917  49.920  41.031  1.00  0.00     0.074 C 
HETATM    5  C   UNL     1      31.409  49.938  40.949  1.00  0.00     0.030 A 
HETATM    6  C   UNL     1      32.128  50.827  40.180  1.00  0.00     0.042 A 
HETATM    7  N   UNL     1      33.451  50.563  40.390  1.00  0.00    -0.279 N 
HETATM    8  H   UNL     1      34.263  51.020  39.989  1.00  0.00     0.189 HD
HETATM    9  N   UNL     1      33.645  49.582  41.297  1.00  0.00    -0.149 NA
HETATM   10  C   UNL     1      32.408  49.233  41.623  1.00  0.00     0.190 A 
HETATM   11  C   UNL     1      31.561  51.911  39.353  1.00  0.00     0.097 C 
ENDROOT
BRANCH   4  12
HETATM   12  C   UNL     1      29.499  48.506  40.637  1.00  0.00    -0.048 A 
HETATM   13  C   UNL     1      30.218  47.741  39.697  1.00  0.00     0.009 A 
HETATM   14  C   UNL     1      29.791  46.461  39.331  1.00  0.00     0.019 A 
HETATM   15  C   UNL     1      28.638  45.932  39.901  1.00  0.00     0.011 A 
HETATM   16 BR   UNL     1      28.056  44.204  39.406  1.00  0.00    -0.051 Br
HETATM   17  C   UNL     1      27.908  46.670  40.830  1.00  0.00     0.019 A 
HETATM   18  C   UNL     1      28.336  47.950  41.194  1.00  0.00     0.009 A 
ENDBRANCH   4  12
BRANCH   3  19
HETATM   19  C   UNL     1      28.563  50.630  38.964  1.00  0.00     0.266 C 
HETATM   20  O   UNL     1      29.134  50.459  37.894  1.00  0.00    -0.265 OA
BRANCH  19  21
HETATM   21  O   UNL     1      27.223  50.486  39.169  1.00  0.00    -0.326 OA
HETATM   22  C   UNL     1      26.544  49.748  38.153  1.00  0.00     0.213 C 
ENDBRANCH  19  21
ENDBRANCH   3  19
BRANCH   2  23
HETATM   23  O   UNL     1      29.539  53.225  39.016  1.00  0.00    -0.389 OA
HETATM   24  H   UNL     1      29.245  54.009  39.524  1.00  0.00     0.210 HD
ENDBRANCH   2  23
BRANCH  10  25
HETATM   25  O   UNL     1      32.306  48.297  42.559  1.00  0.00    -0.343 OA
HETATM   26  H   UNL     1      31.485  48.512  43.032  1.00  0.00     0.219 HD
ENDBRANCH  10  25
TORSDOF 5
ENDMDL
MODEL 3
REMARK VINA RESULT:      -6.8     26.006     27.115
REMARK  5 active torsions:
REMARK  status: ('A' for Active; 'I' for Inactive)
REMARK    1  A    between atoms: C_2  and  O_3 
REMARK    2  A    between atoms: C_4  and  C_5 
REMARK    3  A    between atoms: C_5  and  O_6 
REMARK    4  A    between atoms: C_9  and  C_10 
REMARK    5  A    between atoms: C_22  and  O_23 
ROOT
HETATM    1  C   UNL     1      36.247  47.496  65.098  1.00  0.00     0.047 C 
HETATM    2  C   UNL     1      37.424  46.707  65.705  1.00  0.00     0.073 C 
HETATM    3  C   UNL     1      37.950  45.654  64.662  1.00  0.00     0.133 C 
HETATM    4  C   UNL     1      37.047  44.387  64.478  1.00  0.00     0.074 C 
HETATM    5  C   UNL     1      36.124  44.152  65.630  1.00  0.00     0.030 A 
HETATM    6  C   UNL     1      36.126  44.904  66.784  1.00  0.00     0.042 A 
HETATM    7  N   UNL     1      35.128  44.419  67.581  1.00  0.00    -0.279 N 
HETATM    8  H   UNL     1      34.842  44.731  68.503  1.00  0.00     0.189 HD
HETATM    9  N   UNL     1      34.434  43.422  66.993  1.00  0.00    -0.149 NA
HETATM   10  C   UNL     1      35.044  43.289  65.822  1.00  0.00     0.190 A 
HETATM   11  C   UNL     1      36.993  46.067  67.059  1.00  0.00     0.097 C 
ENDROOT
BRANCH   4  12
HETATM   12  C   UNL     1      37.773  43.064  64.253  1.00  0.00    -0.048 A 
HETATM   13  C   UNL     1      38.233  42.265  65.319  1.00  0.00     0.009 A 
HETATM   14  C   UNL     1      38.924  41.074  65.081  1.00  0.00     0.019 A 
HETATM   15  C   UNL     1      39.167  40.669  63.772  1.00  0.00     0.011 A 
HETATM   16 BR   UNL     1      40.105  39.062  63.448  1.00  0.00    -0.051 Br
HETATM   17  C   UNL     1      38.725  41.443  62.701  1.00  0.00     0.019 A 
HETATM   18  C   UNL     1      38.034  42.635  62.942  1.00  0.00     0.009 A 
ENDBRANCH   4  12
BRANCH   3  19
HETATM   19  C   UNL     1      39.398  45.313  64.954  1.00  0.00     0.266 C 
HETATM   20  O   UNL     1      39.850  45.100  66.072  1.00  0.00    -0.265 OA
BRANCH  19  21
HETATM   21  O   UNL     1      40.128  45.328  63.804  1.00  0.00    -0.326 OA
HETATM   22  C   UNL     1      41.240  44.432  63.794  1.00  0.00     0.213 C 
ENDBRANCH  19  21
ENDBRANCH   3  19
BRANCH   2  23
HETATM   23  O   UNL     1      38.427  47.704  65.968  1.00  0.00    -0.389 OA
HETATM   24  H   UNL     1      38.631  47.678  66.925  1.00  0.00     0.210 HD
ENDBRANCH   2  23
BRANCH  10  25
HETATM   25  O   UNL     1      34.518  42.385  65.004  1.00  0.00    -0.343 OA
HETATM   26  H   UNL     1      33.990  42.904  64.375  1.00  0.00     0.219 HD
ENDBRANCH  10  25
TORSDOF 5
ENDMDL
MODEL 4
REMARK VINA RESULT:      -6.8      2.306      4.339
REMARK  5 active torsions:
REMARK  status: ('A' for Active; 'I' for Inactive)
REMARK    1  A    between atoms: C_2  and  O_3 
REMARK    2  A    between atoms: C_4  and  C_5 
REMARK    3  A    between atoms: C_5  and  O_6 
REMARK    4  A    between atoms: C_9  and  C_10 
REMARK    5  A    between atoms: C_22  and  O_23 
ROOT
HETATM    1  C   UNL     1      33.355  52.257  39.909  1.00  0.00     0.047 C 
HETATM    2  C   UNL     1      32.511  51.772  41.104  1.00  0.00     0.073 C 
HETATM    3  C   UNL     1      32.038  50.293  40.853  1.00  0.00     0.133 C 
HETATM    4  C   UNL     1      30.874  50.130  39.817  1.00  0.00     0.074 C 
HETATM    5  C   UNL     1      30.095  51.388  39.609  1.00  0.00     0.030 A 
HETATM    6  C   UNL     1      30.302  52.550  40.319  1.00  0.00     0.042 A 
HETATM    7  N   UNL     1      29.435  53.483  39.826  1.00  0.00    -0.279 N 
HETATM    8  H   UNL     1      29.310  54.449  40.111  1.00  0.00     0.189 HD
HETATM    9  N   UNL     1      28.701  53.014  38.794  1.00  0.00    -0.149 NA
HETATM   10  C   UNL     1      29.123  51.761  38.678  1.00  0.00     0.190 A 
HETATM   11  C   UNL     1      31.332  52.758  41.356  1.00  0.00     0.097 C 
ENDROOT
BRANCH   4  12
HETATM   12  C   UNL     1      29.842  49.049  40.124  1.00  0.00    -0.048 A 
HETATM   13  C   UNL     1      28.717  49.289  40.939  1.00  0.00     0.009 A 
HETATM   14  C   UNL     1      27.806  48.270  41.228  1.00  0.00     0.019 A 
HETATM   15  C   UNL     1      28.011  46.996  40.708  1.00  0.00     0.011 A 
HETATM   16 BR   UNL     1      26.783  45.615  41.101  1.00  0.00    -0.051 Br
HETATM   17  C   UNL     1      29.116  46.733  39.902  1.00  0.00     0.019 A 
HETATM   18  C   UNL     1      30.027  47.754  39.614  1.00  0.00     0.009 A 
ENDBRANCH   4  12
BRANCH   3  19
HETATM   19  C   UNL     1      31.758  49.607  42.175  1.00  0.00     0.266 C 
HETATM   20  O   UNL     1      31.256  50.154  43.149  1.00  0.00    -0.265 OA
BRANCH  19  21
HETATM   21  O   UNL     1      32.189  48.315  42.138  1.00  0.00    -0.326 OA
HETATM   22  C   UNL     1      33.394  48.112  41.400  1.00  0.00     0.213 C 
ENDBRANCH  19  21
ENDBRANCH   3  19
BRANCH   2  23
HETATM   23  O   UNL     1      33.410  51.833  42.226  1.00  0.00    -0.389 OA
HETATM   24  H   UNL     1      34.201  51.301  42.003  1.00  0.00     0.210 HD
ENDBRANCH   2  23
BRANCH  10  25
HETATM   25  O   UNL     1      28.587  51.068  37.681  1.00  0.00    -0.343 OA
HETATM   26  H   UNL     1      27.629  51.121  37.835  1.00  0.00     0.219 HD
ENDBRANCH  10  25
TORSDOF 5
ENDMDL
MODEL 5
REMARK VINA RESULT:      -6.8      3.232      4.864
REMARK  5 active torsions:
REMARK  status: ('A' for Active; 'I' for Inactive)
REMARK    1  A    between atoms: C_2  and  O_3 
REMARK    2  A    between atoms: C_4  and  C_5 
REMARK    3  A    between atoms: C_5  and  O_6 
REMARK    4  A    between atoms: C_9  and  C_10 
REMARK    5  A    between atoms: C_22  and  O_23 
ROOT
HETATM    1  C   UNL     1      26.136  48.640  36.988  1.00  0.00     0.047 C 
HETATM    2  C   UNL     1      26.285  49.454  38.288  1.00  0.00     0.073 C 
HETATM    3  C   UNL     1      27.761  49.981  38.417  1.00  0.00     0.133 C 
HETATM    4  C   UNL     1      28.821  48.905  38.834  1.00  0.00     0.074 C 
HETATM    5  C   UNL     1      28.214  47.711  39.497  1.00  0.00     0.030 A 
HETATM    6  C   UNL     1      26.876  47.597  39.806  1.00  0.00     0.042 A 
HETATM    7  N   UNL     1      26.695  46.363  40.362  1.00  0.00    -0.279 N 
HETATM    8  H   UNL     1      25.840  45.940  40.707  1.00  0.00     0.189 HD
HETATM    9  N   UNL     1      27.832  45.636  40.390  1.00  0.00    -0.149 NA
HETATM   10  C   UNL     1      28.723  46.462  39.857  1.00  0.00     0.190 A 
HETATM   11  C   UNL     1      25.831  48.596  39.507  1.00  0.00     0.097 C 
ENDROOT
BRANCH   4  12
HETATM   12  C   UNL     1      29.932  49.375  39.768  1.00  0.00    -0.048 A 
HETATM   13  C   UNL     1      29.807  49.336  41.171  1.00  0.00     0.009 A 
HETATM   14  C   UNL     1      30.830  49.805  42.000  1.00  0.00     0.019 A 
HETATM   15  C   UNL     1      31.990  50.322  41.434  1.00  0.00     0.011 A 
HETATM   16 BR   UNL     1      33.373  50.961  42.551  1.00  0.00    -0.051 Br
HETATM   17  C   UNL     1      32.138  50.375  40.050  1.00  0.00     0.019 A 
HETATM   18  C   UNL     1      31.113  49.906  39.222  1.00  0.00     0.009 A 
ENDBRANCH   4  12
BRANCH   3  19
HETATM   19  C   UNL     1      27.796  51.218  39.291  1.00  0.00     0.266 C 
HETATM   20  O   UNL     1      27.270  51.305  40.394  1.00  0.00    -0.265 OA
BRANCH  19  21
HETATM   21  O   UNL     1      28.449  52.230  38.654  1.00  0.00    -0.326 OA
HETATM   22  C   UNL     1      29.203  53.085  39.514  1.00  0.00     0.213 C 
ENDBRANCH  19  21
ENDBRANCH   3  19
BRANCH   2  23
HETATM   23  O   UNL     1      25.367  50.551  38.131  1.00  0.00    -0.389 OA
HETATM   24  H   UNL     1      24.870  50.647  38.970  1.00  0.00     0.210 HD
ENDBRANCH   2  23
BRANCH  10  25
HETATM   25  O   UNL     1      29.947  45.967  39.717  1.00  0.00    -0.343 OA
HETATM   26  H   UNL     1      30.119  45.501  40.552  1.00  0.00     0.219 HD
ENDBRANCH  10  25
TORSDOF 5
ENDMDL
MODEL 6
REMARK VINA RESULT:      -6.7     12.024     13.764
REMARK  5 active torsions:
REMARK  status: ('A' for Active; 'I' for Inactive)
REMARK    1  A    between atoms: C_2  and  O_3 
REMARK    2  A    between atoms: C_4  and  C_5 
REMARK    3  A    between atoms: C_5  and  O_6 
REMARK    4  A    between atoms: C_9  and  C_10 
REMARK    5  A    between atoms: C_22  and  O_23 
ROOT
HETATM    1  C   UNL     1      22.402  43.890  49.893  1.00  0.00     0.047 C 
HETATM    2  C   UNL     1      23.852  43.485  49.563  1.00  0.00     0.073 C 
HETATM    3  C   UNL     1      24.583  43.017  50.874  1.00  0.00     0.133 C 
HETATM    4  C   UNL     1      25.006  44.166  51.851  1.00  0.00     0.074 C 
HETATM    5  C   UNL     1      25.089  45.501  51.184  1.00  0.00     0.030 A 
HETATM    6  C   UNL     1      24.912  45.700  49.832  1.00  0.00     0.042 A 
HETATM    7  N   UNL     1      25.023  47.042  49.605  1.00  0.00    -0.279 N 
HETATM    8  H   UNL     1      24.948  47.547  48.728  1.00  0.00     0.189 HD
HETATM    9  N   UNL     1      25.212  47.746  50.741  1.00  0.00    -0.149 NA
HETATM   10  C   UNL     1      25.237  46.801  51.672  1.00  0.00     0.190 A 
HETATM   11  C   UNL     1      24.580  44.658  48.840  1.00  0.00     0.097 C 
ENDROOT
BRANCH   4  12
HETATM   12  C   UNL     1      26.336  43.984  52.576  1.00  0.00    -0.048 A 
HETATM   13  C   UNL     1      27.577  44.099  51.919  1.00  0.00     0.009 A 
HETATM   14  C   UNL     1      28.778  43.894  52.603  1.00  0.00     0.019 A 
HETATM   15  C   UNL     1      28.751  43.567  53.955  1.00  0.00     0.011 A 
HETATM   16 BR   UNL     1      30.373  43.284  54.883  1.00  0.00    -0.051 Br
HETATM   17  C   UNL     1      27.538  43.444  54.627  1.00  0.00     0.019 A 
HETATM   18  C   UNL     1      26.337  43.649  53.940  1.00  0.00     0.009 A 
ENDBRANCH   4  12
BRANCH   3  19
HETATM   19  C   UNL     1      25.726  42.083  50.526  1.00  0.00     0.266 C 
HETATM   20  O   UNL     1      26.011  41.071  51.154  1.00  0.00    -0.265 OA
BRANCH  19  21
HETATM   21  O   UNL     1      26.415  42.558  49.451  1.00  0.00    -0.326 OA
HETATM   22  C   UNL     1      27.226  41.588  48.790  1.00  0.00     0.213 C 
ENDBRANCH  19  21
ENDBRANCH   3  19
BRANCH   2  23
HETATM   23  O   UNL     1      23.717  42.390  48.639  1.00  0.00    -0.389 OA
HETATM   24  H   UNL     1      23.494  41.589  49.157  1.00  0.00     0.210 HD
ENDBRANCH   2  23
BRANCH  10  25
HETATM   25  O   UNL     1      25.365  47.233  52.921  1.00  0.00    -0.343 OA
HETATM   26  H   UNL     1      25.466  46.424  53.450  1.00  0.00     0.219 HD
ENDBRANCH  10  25
TORSDOF 5
ENDMDL
MODEL 7
REMARK VINA RESULT:      -6.6      2.425      4.273
REMARK  5 active torsions:
REMARK  status: ('A' for Active; 'I' for Inactive)
REMARK    1  A    between atoms: C_2  and  O_3 
REMARK    2  A    between atoms: C_4  and  C_5 
REMARK    3  A    between atoms: C_5  and  O_6 
REMARK    4  A    between atoms: C_9  and  C_10 
REMARK    5  A    between atoms: C_22  and  O_23 
ROOT
HETATM    1  C   UNL     1      34.005  50.576  40.529  1.00  0.00     0.047 C 
HETATM    2  C   UNL     1      32.933  49.557  40.965  1.00  0.00     0.073 C 
HETATM    3  C   UNL     1      31.766  49.533  39.911  1.00  0.00     0.133 C 
HETATM    4  C   UNL     1      30.789  50.757  39.967  1.00  0.00     0.074 C 
HETATM    5  C   UNL     1      30.825  51.476  41.276  1.00  0.00     0.030 A 
HETATM    6  C   UNL     1      31.561  51.060  42.364  1.00  0.00     0.042 A 
HETATM    7  N   UNL     1      31.373  51.982  43.354  1.00  0.00    -0.279 N 
HETATM    8  H   UNL     1      31.761  51.998  44.291  1.00  0.00     0.189 HD
HETATM    9  N   UNL     1      30.594  53.013  42.960  1.00  0.00    -0.149 NA
HETATM   10  C   UNL     1      30.289  52.690  41.710  1.00  0.00     0.190 A 
HETATM   11  C   UNL     1      32.448  49.881  42.409  1.00  0.00     0.097 C 
ENDROOT
BRANCH   4  12
HETATM   12  C   UNL     1      29.317  50.461  39.698  1.00  0.00    -0.048 A 
HETATM   13  C   UNL     1      28.446  49.987  40.700  1.00  0.00     0.009 A 
HETATM   14  C   UNL     1      27.111  49.694  40.415  1.00  0.00     0.019 A 
HETATM   15  C   UNL     1      26.629  49.868  39.122  1.00  0.00     0.011 A 
HETATM   16 BR   UNL     1      24.824  49.468  38.732  1.00  0.00    -0.051 Br
HETATM   17  C   UNL     1      27.469  50.333  38.113  1.00  0.00     0.019 A 
HETATM   18  C   UNL     1      28.806  50.625  38.400  1.00  0.00     0.009 A 
ENDBRANCH   4  12
BRANCH   3  19
HETATM   19  C   UNL     1      31.049  48.199  39.961  1.00  0.00     0.266 C 
HETATM   20  O   UNL     1      30.734  47.618  40.992  1.00  0.00    -0.265 OA
BRANCH  19  21
HETATM   21  O   UNL     1      30.854  47.719  38.700  1.00  0.00    -0.326 OA
HETATM   22  C   UNL     1      29.653  46.965  38.531  1.00  0.00     0.213 C 
ENDBRANCH  19  21
ENDBRANCH   3  19
BRANCH   2  23
HETATM   23  O   UNL     1      33.625  48.296  40.984  1.00  0.00    -0.389 OA
HETATM   24  H   UNL     1      34.567  48.475  41.182  1.00  0.00     0.210 HD
ENDBRANCH   2  23
BRANCH  10  25
HETATM   25  O   UNL     1      29.553  53.579  41.055  1.00  0.00    -0.343 OA
HETATM   26  H   UNL     1      28.724  53.629  41.559  1.00  0.00     0.219 HD
ENDBRANCH  10  25
TORSDOF 5
ENDMDL
MODEL 8
REMARK VINA RESULT:      -6.4     25.775     26.967
REMARK  5 active torsions:
REMARK  status: ('A' for Active; 'I' for Inactive)
REMARK    1  A    between atoms: C_2  and  O_3 
REMARK    2  A    between atoms: C_4  and  C_5 
REMARK    3  A    between atoms: C_5  and  O_6 
REMARK    4  A    between atoms: C_9  and  C_10 
REMARK    5  A    between atoms: C_22  and  O_23 
ROOT
HETATM    1  C   UNL     1      37.341  47.770  67.466  1.00  0.00     0.047 C 
HETATM    2  C   UNL     1      36.888  47.202  66.107  1.00  0.00     0.073 C 
HETATM    3  C   UNL     1      37.104  45.645  66.085  1.00  0.00     0.133 C 
HETATM    4  C   UNL     1      38.590  45.179  65.913  1.00  0.00     0.074 C 
HETATM    5  C   UNL     1      39.471  46.234  65.325  1.00  0.00     0.030 A 
HETATM    6  C   UNL     1      39.018  47.458  64.884  1.00  0.00     0.042 A 
HETATM    7  N   UNL     1      40.108  48.159  64.454  1.00  0.00    -0.279 N 
HETATM    8  H   UNL     1      40.150  49.096  64.065  1.00  0.00     0.189 HD
HETATM    9  N   UNL     1      41.263  47.484  64.635  1.00  0.00    -0.149 NA
HETATM   10  C   UNL     1      40.854  46.339  65.167  1.00  0.00     0.190 A 
HETATM   11  C   UNL     1      37.624  47.940  64.950  1.00  0.00     0.097 C 
ENDROOT
BRANCH   4  12
HETATM   12  C   UNL     1      38.815  43.932  65.062  1.00  0.00    -0.048 A 
HETATM   13  C   UNL     1      39.009  43.994  63.668  1.00  0.00     0.009 A 
HETATM   14  C   UNL     1      39.180  42.833  62.911  1.00  0.00     0.019 A 
HETATM   15  C   UNL     1      39.156  41.592  63.540  1.00  0.00     0.011 A 
HETATM   16 BR   UNL     1      39.381  40.019  62.519  1.00  0.00    -0.051 Br
HETATM   17  C   UNL     1      38.963  41.504  64.917  1.00  0.00     0.019 A 
HETATM   18  C   UNL     1      38.792  42.668  65.672  1.00  0.00     0.009 A 
ENDBRANCH   4  12
BRANCH   3  19
HETATM   19  C   UNL     1      36.162  45.003  65.086  1.00  0.00     0.266 C 
HETATM   20  O   UNL     1      35.959  45.424  63.954  1.00  0.00    -0.265 OA
BRANCH  19  21
HETATM   21  O   UNL     1      35.539  43.928  65.646  1.00  0.00    -0.326 OA
HETATM   22  C   UNL     1      35.174  44.100  67.016  1.00  0.00     0.213 C 
ENDBRANCH  19  21
ENDBRANCH   3  19
BRANCH   2  23
HETATM   23  O   UNL     1      35.486  47.519  66.036  1.00  0.00    -0.389 OA
HETATM   24  H   UNL     1      35.368  48.198  65.339  1.00  0.00     0.210 HD
ENDBRANCH   2  23
BRANCH  10  25
HETATM   25  O   UNL     1      41.817  45.488  65.498  1.00  0.00    -0.343 OA
HETATM   26  H   UNL     1      41.486  44.621  65.210  1.00  0.00     0.219 HD
ENDBRANCH  10  25
TORSDOF 5
ENDMDL
MODEL 9
REMARK VINA RESULT:      -6.3     13.776     15.171
REMARK  5 active torsions:
REMARK  status: ('A' for Active; 'I' for Inactive)
REMARK    1  A    between atoms: C_2  and  O_3 
REMARK    2  A    between atoms: C_4  and  C_5 
REMARK    3  A    between atoms: C_5  and  O_6 
REMARK    4  A    between atoms: C_9  and  C_10 
REMARK    5  A    between atoms: C_22  and  O_23 
ROOT
HETATM    1  C   UNL     1      19.847  46.770  47.960  1.00  0.00     0.047 C 
HETATM    2  C   UNL     1      18.441  47.163  48.456  1.00  0.00     0.073 C 
HETATM    3  C   UNL     1      17.768  48.136  47.419  1.00  0.00     0.133 C 
HETATM    4  C   UNL     1      18.309  49.606  47.432  1.00  0.00     0.074 C 
HETATM    5  C   UNL     1      19.001  49.964  48.707  1.00  0.00     0.030 A 
HETATM    6  C   UNL     1      19.076  49.133  49.803  1.00  0.00     0.042 A 
HETATM    7  N   UNL     1      19.812  49.784  50.752  1.00  0.00    -0.279 N 
HETATM    8  H   UNL     1      20.069  49.473  51.683  1.00  0.00     0.189 HD
HETATM    9  N   UNL     1      20.270  50.979  50.322  1.00  0.00    -0.149 NA
HETATM   10  C   UNL     1      19.779  51.058  49.093  1.00  0.00     0.190 A 
HETATM   11  C   UNL     1      18.532  47.763  49.890  1.00  0.00     0.097 C 
ENDROOT
BRANCH   4  12
HETATM   12  C   UNL     1      17.281  50.708  47.196  1.00  0.00    -0.048 A 
HETATM   13  C   UNL     1      16.469  51.219  48.230  1.00  0.00     0.009 A 
HETATM   14  C   UNL     1      15.514  52.205  47.976  1.00  0.00     0.019 A 
HETATM   15  C   UNL     1      15.355  52.692  46.682  1.00  0.00     0.011 A 
HETATM   16 BR   UNL     1      14.060  54.023  46.335  1.00  0.00    -0.051 Br
HETATM   17  C   UNL     1      16.142  52.202  45.643  1.00  0.00     0.019 A 
HETATM   18  C   UNL     1      17.098  51.214  45.899  1.00  0.00     0.009 A 
ENDBRANCH   4  12
BRANCH   3  19
HETATM   19  C   UNL     1      16.259  48.057  47.539  1.00  0.00     0.266 C 
HETATM   20  O   UNL     1      15.648  48.000  48.599  1.00  0.00    -0.265 OA
BRANCH  19  21
HETATM   21  O   UNL     1      15.688  48.008  46.303  1.00  0.00    -0.326 OA
HETATM   22  C   UNL     1      14.388  48.594  46.225  1.00  0.00     0.213 C 
ENDBRANCH  19  21
ENDBRANCH   3  19
BRANCH   2  23
HETATM   23  O   UNL     1      17.723  45.918  48.523  1.00  0.00    -0.389 OA
HETATM   24  H   UNL     1      17.025  45.939  47.836  1.00  0.00     0.210 HD
ENDBRANCH   2  23
BRANCH  10  25
HETATM   25  O   UNL     1      20.127  52.140  48.407  1.00  0.00    -0.343 OA
HETATM   26  H   UNL     1      20.629  52.679  49.041  1.00  0.00     0.219 HD
ENDBRANCH  10  25
TORSDOF 5
ENDMDL
MODEL 10
REMARK VINA RESULT:      -6.2     12.577     14.538
REMARK  5 active torsions:
REMARK  status: ('A' for Active; 'I' for Inactive)
REMARK    1  A    between atoms: C_2  and  O_3 
REMARK    2  A    between atoms: C_4  and  C_5 
REMARK    3  A    between atoms: C_5  and  O_6 
REMARK    4  A    between atoms: C_9  and  C_10 
REMARK    5  A    between atoms: C_22  and  O_23 
ROOT
HETATM    1  C   UNL     1      25.014  44.230  48.864  1.00  0.00     0.047 C 
HETATM    2  C   UNL     1      24.807  44.095  50.385  1.00  0.00     0.073 C 
HETATM    3  C   UNL     1      26.124  44.509  51.138  1.00  0.00     0.133 C 
HETATM    4  C   UNL     1      27.283  43.455  51.086  1.00  0.00     0.074 C 
HETATM    5  C   UNL     1      26.806  42.076  50.767  1.00  0.00     0.030 A 
HETATM    6  C   UNL     1      25.480  41.731  50.628  1.00  0.00     0.042 A 
HETATM    7  N   UNL     1      25.441  40.405  50.302  1.00  0.00    -0.279 N 
HETATM    8  H   UNL     1      24.633  39.817  50.124  1.00  0.00     0.189 HD
HETATM    9  N   UNL     1      26.672  39.868  50.167  1.00  0.00    -0.149 NA
HETATM   10  C   UNL     1      27.471  40.891  50.441  1.00  0.00     0.190 A 
HETATM   11  C   UNL     1      24.331  42.652  50.730  1.00  0.00     0.097 C 
ENDROOT
BRANCH   4  12
HETATM   12  C   UNL     1      28.131  43.318  52.347  1.00  0.00    -0.048 A 
HETATM   13  C   UNL     1      27.565  43.072  53.615  1.00  0.00     0.009 A 
HETATM   14  C   UNL     1      28.364  42.985  54.757  1.00  0.00     0.019 A 
HETATM   15  C   UNL     1      29.742  43.145  54.646  1.00  0.00     0.011 A 
HETATM   16 BR   UNL     1      30.826  43.032  56.189  1.00  0.00    -0.051 Br
HETATM   17  C   UNL     1      30.325  43.393  53.405  1.00  0.00     0.019 A 
HETATM   18  C   UNL     1      29.523  43.481  52.263  1.00  0.00     0.009 A 
ENDBRANCH   4  12
BRANCH   3  19
HETATM   19  C   UNL     1      25.797  44.962  52.547  1.00  0.00     0.266 C 
HETATM   20  O   UNL     1      24.951  44.442  53.265  1.00  0.00    -0.265 OA
BRANCH  19  21
HETATM   21  O   UNL     1      26.538  46.057  52.876  1.00  0.00    -0.326 OA
HETATM   22  C   UNL     1      25.810  47.088  53.544  1.00  0.00     0.213 C 
ENDBRANCH  19  21
ENDBRANCH   3  19
BRANCH   2  23
HETATM   23  O   UNL     1      23.741  45.014  50.686  1.00  0.00    -0.389 OA
HETATM   24  H   UNL     1      22.918  44.494  50.785  1.00  0.00     0.210 HD
ENDBRANCH   2  23
BRANCH  10  25
HETATM   25  O   UNL     1      28.771  40.646  50.331  1.00  0.00    -0.343 OA
HETATM   26  H   UNL     1      29.155  40.990  51.155  1.00  0.00     0.219 HD
ENDBRANCH  10  25
TORSDOF 5
ENDMDL
