MODEL 1
REMARK VINA RESULT:     -10.9      0.000      0.000
REMARK  7 active torsions:
REMARK  status: ('A' for Active; 'I' for Inactive)
REMARK    1  A    between atoms: C_3  and  C_4 
REMARK    2  A    between atoms: C_4  and  S_5 
REMARK    3  A    between atoms: S_5  and  C_6 
REMARK    4  A    between atoms: C_6  and  C_7 
REMARK    5  A    between atoms: C_16  and  C_17 
REMARK       I    between atoms: C_17  and  N_18 
REMARK    6  A    between atoms: N_18  and  C_19 
REMARK    7  A    between atoms: C_19  and  C_20 
ROOT
HETATM    1  C   UNL     1      25.896  44.543  51.883  1.00  0.00     0.162 C 
HETATM    2  N   UNL     1      26.734  45.393  50.992  1.00  0.00    -0.277 NA
HETATM    3  C   UNL     1      26.065  46.496  50.432  1.00  0.00     0.036 A 
HETATM    4  C   UNL     1      24.673  46.475  50.217  1.00  0.00     0.057 A 
HETATM    5  N   UNL     1      23.927  45.361  50.623  1.00  0.00    -0.324 N 
HETATM    6  C   UNL     1      24.490  44.308  51.300  1.00  0.00     0.240 C 
HETATM    7  O   UNL     1      23.856  43.269  51.484  1.00  0.00    -0.271 OA
HETATM    8  C   UNL     1      26.800  47.571  49.920  1.00  0.00     0.027 A 
HETATM    9  C   UNL     1      26.156  48.641  49.286  1.00  0.00     0.019 A 
HETATM   10  C   UNL     1      24.765  48.631  49.130  1.00  0.00     0.034 A 
HETATM   11  C   UNL     1      24.026  47.529  49.575  1.00  0.00     0.048 A 
HETATM   12  H   UNL     1      27.641  45.629  51.383  1.00  0.00     0.128 HD
HETATM   13  H   UNL     1      22.966  45.250  50.329  1.00  0.00     0.169 HD
ENDROOT
BRANCH  10  14
HETATM   14  C   UNL     1      24.024  49.746  48.478  1.00  0.00     0.252 C 
HETATM   15  N   UNL     1      22.985  50.300  49.190  1.00  0.00    -0.353 N 
HETATM   16  H   UNL     1      22.756  49.979  50.120  1.00  0.00     0.163 HD
HETATM   17  O   UNL     1      24.323  50.095  47.342  1.00  0.00    -0.268 OA
BRANCH  15  18
HETATM   18  C   UNL     1      22.178  51.355  48.618  1.00  0.00     0.161 C 
BRANCH  18  19
HETATM   19  C   UNL     1      20.711  50.997  48.605  1.00  0.00    -0.040 A 
HETATM   20  C   UNL     1      19.737  52.003  48.527  1.00  0.00     0.010 A 
HETATM   21  C   UNL     1      18.379  51.673  48.475  1.00  0.00     0.024 A 
HETATM   22  C   UNL     1      17.989  50.336  48.500  1.00  0.00     0.034 A 
HETATM   23 CL   UNL     1      16.317  49.931  48.437  1.00  0.00    -0.084 Cl
HETATM   24  C   UNL     1      18.944  49.324  48.567  1.00  0.00     0.024 A 
HETATM   25  C   UNL     1      20.300  49.654  48.610  1.00  0.00     0.010 A 
ENDBRANCH  18  19
ENDBRANCH  15  18
ENDBRANCH  10  14
BRANCH   1  26
HETATM   26  C   UNL     1      25.828  45.181  53.287  1.00  0.00     0.103 C 
BRANCH  26  27
HETATM   27  S   UNL     1      26.819  44.424  54.623  1.00  0.00    -0.162 SA
BRANCH  27  28
HETATM   28  C   UNL     1      28.417  45.259  54.361  1.00  0.00     0.112 C 
BRANCH  28  29
HETATM   29  C   UNL     1      29.433  44.842  55.401  1.00  0.00    -0.043 A 
HETATM   30  C   UNL     1      30.252  43.703  55.243  1.00  0.00    -0.055 A 
HETATM   31  C   UNL     1      30.179  42.833  54.016  1.00  0.00     0.049 C 
HETATM   32  C   UNL     1      31.172  43.373  56.252  1.00  0.00     0.007 A 
HETATM   33  C   UNL     1      31.273  44.144  57.410  1.00  0.00     0.001 A 
HETATM   34  C   UNL     1      30.455  45.256  57.576  1.00  0.00     0.001 A 
HETATM   35  C   UNL     1      29.542  45.602  56.581  1.00  0.00     0.008 A 
ENDBRANCH  28  29
ENDBRANCH  27  28
ENDBRANCH  26  27
ENDBRANCH   1  26
TORSDOF 7
ENDMDL
MODEL 2
REMARK VINA RESULT:      -9.8      1.668      2.249
REMARK  7 active torsions:
REMARK  status: ('A' for Active; 'I' for Inactive)
REMARK    1  A    between atoms: C_3  and  C_4 
REMARK    2  A    between atoms: C_4  and  S_5 
REMARK    3  A    between atoms: S_5  and  C_6 
REMARK    4  A    between atoms: C_6  and  C_7 
REMARK    5  A    between atoms: C_16  and  C_17 
REMARK       I    between atoms: C_17  and  N_18 
REMARK    6  A    between atoms: N_18  and  C_19 
REMARK    7  A    between atoms: C_19  and  C_20 
ROOT
HETATM    1  C   UNL     1      26.458  43.269  49.869  1.00  0.00     0.162 C 
HETATM    2  N   UNL     1      27.040  44.572  49.443  1.00  0.00    -0.277 NA
HETATM    3  C   UNL     1      26.161  45.666  49.531  1.00  0.00     0.036 A 
HETATM    4  C   UNL     1      24.767  45.493  49.429  1.00  0.00     0.057 A 
HETATM    5  N   UNL     1      24.236  44.204  49.299  1.00  0.00    -0.324 N 
HETATM    6  C   UNL     1      25.022  43.080  49.343  1.00  0.00     0.240 C 
HETATM    7  O   UNL     1      24.560  41.978  49.047  1.00  0.00    -0.271 OA
HETATM    8  C   UNL     1      26.669  46.969  49.551  1.00  0.00     0.027 A 
HETATM    9  C   UNL     1      25.808  48.074  49.557  1.00  0.00     0.019 A 
HETATM   10  C   UNL     1      24.422  47.884  49.512  1.00  0.00     0.034 A 
HETATM   11  C   UNL     1      23.903  46.587  49.420  1.00  0.00     0.048 A 
HETATM   12  H   UNL     1      27.957  44.760  49.835  1.00  0.00     0.128 HD
HETATM   13  H   UNL     1      23.265  44.069  49.054  1.00  0.00     0.169 HD
ENDROOT
BRANCH  10  14
HETATM   14  C   UNL     1      23.457  49.018  49.531  1.00  0.00     0.252 C 
HETATM   15  N   UNL     1      22.123  48.695  49.628  1.00  0.00    -0.353 N 
HETATM   16  H   UNL     1      21.819  47.736  49.707  1.00  0.00     0.163 HD
HETATM   17  O   UNL     1      23.865  50.167  49.417  1.00  0.00    -0.268 OA
BRANCH  15  18
HETATM   18  C   UNL     1      21.110  49.729  49.606  1.00  0.00     0.161 C 
BRANCH  18  19
HETATM   19  C   UNL     1      19.809  49.227  49.029  1.00  0.00    -0.040 A 
HETATM   20  C   UNL     1      18.895  48.535  49.837  1.00  0.00     0.010 A 
HETATM   21  C   UNL     1      17.671  48.104  49.315  1.00  0.00     0.024 A 
HETATM   22  C   UNL     1      17.354  48.364  47.984  1.00  0.00     0.034 A 
HETATM   23 CL   UNL     1      15.848  47.832  47.344  1.00  0.00    -0.084 Cl
HETATM   24  C   UNL     1      18.246  49.059  47.170  1.00  0.00     0.024 A 
HETATM   25  C   UNL     1      19.464  49.496  47.694  1.00  0.00     0.010 A 
ENDBRANCH  18  19
ENDBRANCH  15  18
ENDBRANCH  10  14
BRANCH   1  26
HETATM   26  C   UNL     1      26.517  43.158  51.407  1.00  0.00     0.103 C 
BRANCH  26  27
HETATM   27  S   UNL     1      28.149  43.307  52.217  1.00  0.00    -0.162 SA
BRANCH  27  28
HETATM   28  C   UNL     1      27.694  44.261  53.701  1.00  0.00     0.112 C 
BRANCH  28  29
HETATM   29  C   UNL     1      28.844  44.339  54.680  1.00  0.00    -0.043 A 
HETATM   30  C   UNL     1      29.108  45.497  55.443  1.00  0.00    -0.055 A 
HETATM   31  C   UNL     1      28.249  46.729  55.346  1.00  0.00     0.049 C 
HETATM   32  C   UNL     1      30.197  45.500  56.331  1.00  0.00     0.007 A 
HETATM   33  C   UNL     1      31.027  44.386  56.452  1.00  0.00     0.001 A 
HETATM   34  C   UNL     1      30.780  43.251  55.688  1.00  0.00     0.001 A 
HETATM   35  C   UNL     1      29.699  43.228  54.808  1.00  0.00     0.008 A 
ENDBRANCH  28  29
ENDBRANCH  27  28
ENDBRANCH  26  27
ENDBRANCH   1  26
TORSDOF 7
ENDMDL
MODEL 3
REMARK VINA RESULT:      -9.8      4.297     10.437
REMARK  7 active torsions:
REMARK  status: ('A' for Active; 'I' for Inactive)
REMARK    1  A    between atoms: C_3  and  C_4 
REMARK    2  A    between atoms: C_4  and  S_5 
REMARK    3  A    between atoms: S_5  and  C_6 
REMARK    4  A    between atoms: C_6  and  C_7 
REMARK    5  A    between atoms: C_16  and  C_17 
REMARK       I    between atoms: C_17  and  N_18 
REMARK    6  A    between atoms: N_18  and  C_19 
REMARK    7  A    between atoms: C_19  and  C_20 
ROOT
HETATM    1  C   UNL     1      20.988  44.966  47.635  1.00  0.00     0.162 C 
HETATM    2  N   UNL     1      21.835  44.078  48.478  1.00  0.00    -0.277 NA
HETATM    3  C   UNL     1      22.731  44.752  49.328  1.00  0.00     0.036 A 
HETATM    4  C   UNL     1      23.222  46.031  49.005  1.00  0.00     0.057 A 
HETATM    5  N   UNL     1      22.767  46.676  47.848  1.00  0.00    -0.324 N 
HETATM    6  C   UNL     1      21.793  46.140  47.044  1.00  0.00     0.240 C 
HETATM    7  O   UNL     1      21.542  46.634  45.945  1.00  0.00    -0.271 OA
HETATM    8  C   UNL     1      23.281  44.086  50.428  1.00  0.00     0.027 A 
HETATM    9  C   UNL     1      24.235  44.713  51.240  1.00  0.00     0.019 A 
HETATM   10  C   UNL     1      24.673  46.008  50.938  1.00  0.00     0.034 A 
HETATM   11  C   UNL     1      24.181  46.658  49.799  1.00  0.00     0.048 A 
HETATM   12  H   UNL     1      21.320  43.338  48.942  1.00  0.00     0.128 HD
HETATM   13  H   UNL     1      23.227  47.510  47.509  1.00  0.00     0.169 HD
ENDROOT
BRANCH  10  14
HETATM   14  C   UNL     1      25.672  46.731  51.771  1.00  0.00     0.252 C 
HETATM   15  N   UNL     1      25.838  46.289  53.064  1.00  0.00    -0.353 N 
HETATM   16  H   UNL     1      25.322  45.496  53.418  1.00  0.00     0.163 HD
HETATM   17  O   UNL     1      26.266  47.698  51.309  1.00  0.00    -0.268 OA
BRANCH  15  18
HETATM   18  C   UNL     1      26.752  46.961  53.962  1.00  0.00     0.161 C 
BRANCH  18  19
HETATM   19  C   UNL     1      27.840  46.036  54.451  1.00  0.00    -0.040 A 
HETATM   20  C   UNL     1      28.743  46.462  55.435  1.00  0.00     0.010 A 
HETATM   21  C   UNL     1      29.728  45.595  55.919  1.00  0.00     0.024 A 
HETATM   22  C   UNL     1      29.814  44.296  55.420  1.00  0.00     0.034 A 
HETATM   23 CL   UNL     1      31.027  43.230  56.015  1.00  0.00    -0.084 Cl
HETATM   24  C   UNL     1      28.918  43.853  54.450  1.00  0.00     0.024 A 
HETATM   25  C   UNL     1      27.930  44.718  53.974  1.00  0.00     0.010 A 
ENDBRANCH  18  19
ENDBRANCH  15  18
ENDBRANCH  10  14
BRANCH   1  26
HETATM   26  C   UNL     1      19.785  45.465  48.463  1.00  0.00     0.103 C 
BRANCH  26  27
HETATM   27  S   UNL     1      19.100  47.115  48.076  1.00  0.00    -0.162 SA
BRANCH  27  28
HETATM   28  C   UNL     1      19.868  48.107  49.397  1.00  0.00     0.112 C 
BRANCH  28  29
HETATM   29  C   UNL     1      19.501  49.569  49.272  1.00  0.00    -0.043 A 
HETATM   30  C   UNL     1      20.301  50.491  48.563  1.00  0.00    -0.055 A 
HETATM   31  C   UNL     1      21.569  50.075  47.866  1.00  0.00     0.049 C 
HETATM   32  C   UNL     1      19.900  51.836  48.491  1.00  0.00     0.007 A 
HETATM   33  C   UNL     1      18.737  52.272  49.126  1.00  0.00     0.001 A 
HETATM   34  C   UNL     1      17.957  51.369  49.841  1.00  0.00     0.001 A 
HETATM   35  C   UNL     1      18.336  50.030  49.915  1.00  0.00     0.008 A 
ENDBRANCH  28  29
ENDBRANCH  27  28
ENDBRANCH  26  27
ENDBRANCH   1  26
TORSDOF 7
ENDMDL
MODEL 4
REMARK VINA RESULT:      -9.7      2.203      2.962
REMARK  7 active torsions:
REMARK  status: ('A' for Active; 'I' for Inactive)
REMARK    1  A    between atoms: C_3  and  C_4 
REMARK    2  A    between atoms: C_4  and  S_5 
REMARK    3  A    between atoms: S_5  and  C_6 
REMARK    4  A    between atoms: C_6  and  C_7 
REMARK    5  A    between atoms: C_16  and  C_17 
REMARK       I    between atoms: C_17  and  N_18 
REMARK    6  A    between atoms: N_18  and  C_19 
REMARK    7  A    between atoms: C_19  and  C_20 
ROOT
HETATM    1  C   UNL     1      27.249  43.308  50.482  1.00  0.00     0.162 C 
HETATM    2  N   UNL     1      27.051  44.781  50.393  1.00  0.00    -0.277 NA
HETATM    3  C   UNL     1      25.789  45.177  49.914  1.00  0.00     0.036 A 
HETATM    4  C   UNL     1      25.042  44.351  49.053  1.00  0.00     0.057 A 
HETATM    5  N   UNL     1      25.531  43.084  48.712  1.00  0.00    -0.324 N 
HETATM    6  C   UNL     1      26.687  42.575  49.249  1.00  0.00     0.240 C 
HETATM    7  O   UNL     1      27.188  41.544  48.800  1.00  0.00    -0.271 OA
HETATM    8  C   UNL     1      25.331  46.477  50.152  1.00  0.00     0.027 A 
HETATM    9  C   UNL     1      24.114  46.916  49.615  1.00  0.00     0.019 A 
HETATM   10  C   UNL     1      23.354  46.063  48.806  1.00  0.00     0.034 A 
HETATM   11  C   UNL     1      23.836  44.784  48.504  1.00  0.00     0.048 A 
HETATM   12  H   UNL     1      27.343  45.286  51.223  1.00  0.00     0.128 HD
HETATM   13  H   UNL     1      25.101  42.548  47.970  1.00  0.00     0.169 HD
ENDROOT
BRANCH  10  14
HETATM   14  C   UNL     1      22.047  46.467  48.221  1.00  0.00     0.252 C 
HETATM   15  N   UNL     1      20.937  46.324  49.023  1.00  0.00    -0.353 N 
HETATM   16  H   UNL     1      21.014  45.984  49.970  1.00  0.00     0.163 HD
HETATM   17  O   UNL     1      21.993  46.860  47.061  1.00  0.00    -0.268 OA
BRANCH  15  18
HETATM   18  C   UNL     1      19.618  46.646  48.522  1.00  0.00     0.161 C 
BRANCH  18  19
HETATM   19  C   UNL     1      19.225  48.067  48.849  1.00  0.00    -0.040 A 
HETATM   20  C   UNL     1      18.941  48.437  50.171  1.00  0.00     0.010 A 
HETATM   21  C   UNL     1      18.614  49.761  50.483  1.00  0.00     0.024 A 
HETATM   22  C   UNL     1      18.573  50.721  49.474  1.00  0.00     0.034 A 
HETATM   23 CL   UNL     1      18.171  52.349  49.859  1.00  0.00    -0.084 Cl
HETATM   24  C   UNL     1      18.862  50.372  48.157  1.00  0.00     0.024 A 
HETATM   25  C   UNL     1      19.196  49.052  47.848  1.00  0.00     0.010 A 
ENDBRANCH  18  19
ENDBRANCH  15  18
ENDBRANCH  10  14
BRANCH   1  26
HETATM   26  C   UNL     1      26.619  42.783  51.789  1.00  0.00     0.103 C 
BRANCH  26  27
HETATM   27  S   UNL     1      27.721  42.493  53.219  1.00  0.00    -0.162 SA
BRANCH  27  28
HETATM   28  C   UNL     1      27.923  44.198  53.828  1.00  0.00     0.112 C 
BRANCH  28  29
HETATM   29  C   UNL     1      29.055  44.296  54.826  1.00  0.00    -0.043 A 
HETATM   30  C   UNL     1      29.284  45.457  55.597  1.00  0.00    -0.055 A 
HETATM   31  C   UNL     1      28.403  46.673  55.488  1.00  0.00     0.049 C 
HETATM   32  C   UNL     1      30.358  45.478  56.503  1.00  0.00     0.007 A 
HETATM   33  C   UNL     1      31.206  44.380  56.635  1.00  0.00     0.001 A 
HETATM   34  C   UNL     1      30.994  43.242  55.864  1.00  0.00     0.001 A 
HETATM   35  C   UNL     1      29.928  43.201  54.966  1.00  0.00     0.008 A 
ENDBRANCH  28  29
ENDBRANCH  27  28
ENDBRANCH  26  27
ENDBRANCH   1  26
TORSDOF 7
ENDMDL
MODEL 5
REMARK VINA RESULT:      -9.5      3.762     11.236
REMARK  7 active torsions:
REMARK  status: ('A' for Active; 'I' for Inactive)
REMARK    1  A    between atoms: C_3  and  C_4 
REMARK    2  A    between atoms: C_4  and  S_5 
REMARK    3  A    between atoms: S_5  and  C_6 
REMARK    4  A    between atoms: C_6  and  C_7 
REMARK    5  A    between atoms: C_16  and  C_17 
REMARK       I    between atoms: C_17  and  N_18 
REMARK    6  A    between atoms: N_18  and  C_19 
REMARK    7  A    between atoms: C_19  and  C_20 
ROOT
HETATM    1  C   UNL     1      22.357  48.978  48.218  1.00  0.00     0.162 C 
HETATM    2  N   UNL     1      22.361  47.589  47.681  1.00  0.00    -0.277 NA
HETATM    3  C   UNL     1      22.908  46.625  48.546  1.00  0.00     0.036 A 
HETATM    4  C   UNL     1      23.879  46.972  49.506  1.00  0.00     0.057 A 
HETATM    5  N   UNL     1      24.266  48.310  49.646  1.00  0.00    -0.324 N 
HETATM    6  C   UNL     1      23.677  49.323  48.933  1.00  0.00     0.240 C 
HETATM    7  O   UNL     1      24.154  50.458  48.941  1.00  0.00    -0.271 OA
HETATM    8  C   UNL     1      22.620  45.270  48.352  1.00  0.00     0.027 A 
HETATM    9  C   UNL     1      23.218  44.289  49.153  1.00  0.00     0.019 A 
HETATM   10  C   UNL     1      24.141  44.654  50.140  1.00  0.00     0.034 A 
HETATM   11  C   UNL     1      24.491  46.001  50.297  1.00  0.00     0.048 A 
HETATM   12  H   UNL     1      21.477  47.305  47.269  1.00  0.00     0.128 HD
HETATM   13  H   UNL     1      25.075  48.557  50.202  1.00  0.00     0.169 HD
ENDROOT
BRANCH  10  14
HETATM   14  C   UNL     1      24.797  43.659  51.031  1.00  0.00     0.252 C 
HETATM   15  N   UNL     1      26.112  43.896  51.364  1.00  0.00    -0.353 N 
HETATM   16  H   UNL     1      26.595  44.720  51.038  1.00  0.00     0.163 HD
HETATM   17  O   UNL     1      24.180  42.664  51.392  1.00  0.00    -0.268 OA
BRANCH  15  18
HETATM   18  C   UNL     1      26.846  42.957  52.185  1.00  0.00     0.161 C 
BRANCH  18  19
HETATM   19  C   UNL     1      27.644  43.656  53.259  1.00  0.00    -0.040 A 
HETATM   20  C   UNL     1      28.814  43.072  53.765  1.00  0.00     0.010 A 
HETATM   21  C   UNL     1      29.578  43.735  54.732  1.00  0.00     0.024 A 
HETATM   22  C   UNL     1      29.175  44.985  55.196  1.00  0.00     0.034 A 
HETATM   23 CL   UNL     1      30.115  45.799  56.386  1.00  0.00    -0.084 Cl
HETATM   24  C   UNL     1      28.021  45.584  54.697  1.00  0.00     0.024 A 
HETATM   25  C   UNL     1      27.264  44.925  53.726  1.00  0.00     0.010 A 
ENDBRANCH  18  19
ENDBRANCH  15  18
ENDBRANCH  10  14
BRANCH   1  26
HETATM   26  C   UNL     1      21.141  49.164  49.151  1.00  0.00     0.103 C 
BRANCH  26  27
HETATM   27  S   UNL     1      20.922  50.788  49.962  1.00  0.00    -0.162 SA
BRANCH  27  28
HETATM   28  C   UNL     1      20.157  51.732  48.604  1.00  0.00     0.112 C 
BRANCH  28  29
HETATM   29  C   UNL     1      18.648  51.693  48.688  1.00  0.00    -0.043 A 
HETATM   30  C   UNL     1      17.856  51.002  47.744  1.00  0.00    -0.055 A 
HETATM   31  C   UNL     1      18.466  50.242  46.597  1.00  0.00     0.049 C 
HETATM   32  C   UNL     1      16.458  51.011  47.882  1.00  0.00     0.007 A 
HETATM   33  C   UNL     1      15.845  51.706  48.925  1.00  0.00     0.001 A 
HETATM   34  C   UNL     1      16.621  52.402  49.845  1.00  0.00     0.001 A 
HETATM   35  C   UNL     1      18.010  52.397  49.727  1.00  0.00     0.008 A 
ENDBRANCH  28  29
ENDBRANCH  27  28
ENDBRANCH  26  27
ENDBRANCH   1  26
TORSDOF 7
ENDMDL
MODEL 6
REMARK VINA RESULT:      -9.1      2.631      3.492
REMARK  7 active torsions:
REMARK  status: ('A' for Active; 'I' for Inactive)
REMARK    1  A    between atoms: C_3  and  C_4 
REMARK    2  A    between atoms: C_4  and  S_5 
REMARK    3  A    between atoms: S_5  and  C_6 
REMARK    4  A    between atoms: C_6  and  C_7 
REMARK    5  A    between atoms: C_16  and  C_17 
REMARK       I    between atoms: C_17  and  N_18 
REMARK    6  A    between atoms: N_18  and  C_19 
REMARK    7  A    between atoms: C_19  and  C_20 
ROOT
HETATM    1  C   UNL     1      27.087  42.291  50.458  1.00  0.00     0.162 C 
HETATM    2  N   UNL     1      26.887  43.526  49.650  1.00  0.00    -0.277 NA
HETATM    3  C   UNL     1      25.544  43.903  49.474  1.00  0.00     0.036 A 
HETATM    4  C   UNL     1      24.507  42.950  49.504  1.00  0.00     0.057 A 
HETATM    5  N   UNL     1      24.807  41.609  49.773  1.00  0.00    -0.324 N 
HETATM    6  C   UNL     1      26.075  41.190  50.089  1.00  0.00     0.240 C 
HETATM    7  O   UNL     1      26.345  39.990  50.142  1.00  0.00    -0.271 OA
HETATM    8  C   UNL     1      25.231  45.213  49.097  1.00  0.00     0.027 A 
HETATM    9  C   UNL     1      23.907  45.587  48.839  1.00  0.00     0.019 A 
HETATM   10  C   UNL     1      22.879  44.641  48.927  1.00  0.00     0.034 A 
HETATM   11  C   UNL     1      23.188  43.310  49.235  1.00  0.00     0.048 A 
HETATM   12  H   UNL     1      27.489  44.297  49.921  1.00  0.00     0.128 HD
HETATM   13  H   UNL     1      24.113  40.887  49.632  1.00  0.00     0.169 HD
ENDROOT
BRANCH  10  14
HETATM   14  C   UNL     1      21.452  44.982  48.679  1.00  0.00     0.252 C 
HETATM   15  N   UNL     1      21.050  46.255  49.016  1.00  0.00    -0.353 N 
HETATM   16  H   UNL     1      21.703  46.929  49.389  1.00  0.00     0.163 HD
HETATM   17  O   UNL     1      20.688  44.130  48.240  1.00  0.00    -0.268 OA
BRANCH  15  18
HETATM   18  C   UNL     1      19.671  46.661  48.856  1.00  0.00     0.161 C 
BRANCH  18  19
HETATM   19  C   UNL     1      19.535  48.161  48.759  1.00  0.00    -0.040 A 
HETATM   20  C   UNL     1      20.216  48.872  47.760  1.00  0.00     0.010 A 
HETATM   21  C   UNL     1      20.061  50.257  47.643  1.00  0.00     0.024 A 
HETATM   22  C   UNL     1      19.223  50.937  48.523  1.00  0.00     0.034 A 
HETATM   23 CL   UNL     1      19.033  52.642  48.378  1.00  0.00    -0.084 Cl
HETATM   24  C   UNL     1      18.531  50.246  49.514  1.00  0.00     0.024 A 
HETATM   25  C   UNL     1      18.680  48.862  49.626  1.00  0.00     0.010 A 
ENDBRANCH  18  19
ENDBRANCH  15  18
ENDBRANCH  10  14
BRANCH   1  26
HETATM   26  C   UNL     1      27.018  42.644  51.959  1.00  0.00     0.103 C 
BRANCH  26  27
HETATM   27  S   UNL     1      27.335  44.376  52.451  1.00  0.00    -0.162 SA
BRANCH  27  28
HETATM   28  C   UNL     1      27.216  44.230  54.262  1.00  0.00     0.112 C 
BRANCH  28  29
HETATM   29  C   UNL     1      28.580  44.295  54.911  1.00  0.00    -0.043 A 
HETATM   30  C   UNL     1      29.018  45.423  55.639  1.00  0.00    -0.055 A 
HETATM   31  C   UNL     1      28.145  46.634  55.834  1.00  0.00     0.049 C 
HETATM   32  C   UNL     1      30.301  45.415  56.213  1.00  0.00     0.007 A 
HETATM   33  C   UNL     1      31.150  44.320  56.055  1.00  0.00     0.001 A 
HETATM   34  C   UNL     1      30.728  43.215  55.323  1.00  0.00     0.001 A 
HETATM   35  C   UNL     1      29.456  43.203  54.755  1.00  0.00     0.008 A 
ENDBRANCH  28  29
ENDBRANCH  27  28
ENDBRANCH  26  27
ENDBRANCH   1  26
TORSDOF 7
ENDMDL
MODEL 7
REMARK VINA RESULT:      -9.0      1.452      2.034
REMARK  7 active torsions:
REMARK  status: ('A' for Active; 'I' for Inactive)
REMARK    1  A    between atoms: C_3  and  C_4 
REMARK    2  A    between atoms: C_4  and  S_5 
REMARK    3  A    between atoms: S_5  and  C_6 
REMARK    4  A    between atoms: C_6  and  C_7 
REMARK    5  A    between atoms: C_16  and  C_17 
REMARK       I    between atoms: C_17  and  N_18 
REMARK    6  A    between atoms: N_18  and  C_19 
REMARK    7  A    between atoms: C_19  and  C_20 
ROOT
HETATM    1  C   UNL     1      24.986  43.305  49.879  1.00  0.00     0.162 C 
HETATM    2  N   UNL     1      25.927  44.418  49.576  1.00  0.00    -0.277 NA
HETATM    3  C   UNL     1      25.341  45.696  49.557  1.00  0.00     0.036 A 
HETATM    4  C   UNL     1      23.979  45.871  49.244  1.00  0.00     0.057 A 
HETATM    5  N   UNL     1      23.174  44.750  49.005  1.00  0.00    -0.324 N 
HETATM    6  C   UNL     1      23.644  43.467  49.140  1.00  0.00     0.240 C 
HETATM    7  O   UNL     1      22.976  42.509  48.752  1.00  0.00    -0.271 OA
HETATM    8  C   UNL     1      26.144  46.834  49.684  1.00  0.00     0.027 A 
HETATM    9  C   UNL     1      25.590  48.117  49.587  1.00  0.00     0.019 A 
HETATM   10  C   UNL     1      24.223  48.274  49.330  1.00  0.00     0.034 A 
HETATM   11  C   UNL     1      23.421  47.143  49.132  1.00  0.00     0.048 A 
HETATM   12  H   UNL     1      26.793  44.381  50.105  1.00  0.00     0.128 HD
HETATM   13  H   UNL     1      22.247  44.854  48.615  1.00  0.00     0.169 HD
ENDROOT
BRANCH  10  14
HETATM   14  C   UNL     1      23.574  49.610  49.232  1.00  0.00     0.252 C 
HETATM   15  N   UNL     1      22.426  49.799  49.968  1.00  0.00    -0.353 N 
HETATM   16  H   UNL     1      22.060  49.071  50.564  1.00  0.00     0.163 HD
HETATM   17  O   UNL     1      24.041  50.460  48.484  1.00  0.00    -0.268 OA
BRANCH  15  18
HETATM   18  C   UNL     1      21.702  51.048  49.897  1.00  0.00     0.161 C 
BRANCH  18  19
HETATM   19  C   UNL     1      20.267  50.843  49.475  1.00  0.00    -0.040 A 
HETATM   20  C   UNL     1      19.525  49.768  49.986  1.00  0.00     0.010 A 
HETATM   21  C   UNL     1      18.184  49.597  49.628  1.00  0.00     0.024 A 
HETATM   22  C   UNL     1      17.578  50.501  48.757  1.00  0.00     0.034 A 
HETATM   23 CL   UNL     1      15.928  50.289  48.316  1.00  0.00    -0.084 Cl
HETATM   24  C   UNL     1      18.298  51.579  48.248  1.00  0.00     0.024 A 
HETATM   25  C   UNL     1      19.634  51.754  48.613  1.00  0.00     0.010 A 
ENDBRANCH  18  19
ENDBRANCH  15  18
ENDBRANCH  10  14
BRANCH   1  26
HETATM   26  C   UNL     1      24.784  43.205  51.406  1.00  0.00     0.103 C 
BRANCH  26  27
HETATM   27  S   UNL     1      25.533  44.498  52.459  1.00  0.00    -0.162 SA
BRANCH  27  28
HETATM   28  C   UNL     1      27.078  43.668  52.949  1.00  0.00     0.112 C 
BRANCH  28  29
HETATM   29  C   UNL     1      27.853  44.493  53.952  1.00  0.00    -0.043 A 
HETATM   30  C   UNL     1      29.018  44.012  54.587  1.00  0.00    -0.055 A 
HETATM   31  C   UNL     1      29.579  42.645  54.295  1.00  0.00     0.049 C 
HETATM   32  C   UNL     1      29.686  44.833  55.512  1.00  0.00     0.007 A 
HETATM   33  C   UNL     1      29.202  46.104  55.822  1.00  0.00     0.001 A 
HETATM   34  C   UNL     1      28.045  46.573  55.211  1.00  0.00     0.001 A 
HETATM   35  C   UNL     1      27.375  45.775  54.285  1.00  0.00     0.008 A 
ENDBRANCH  28  29
ENDBRANCH  27  28
ENDBRANCH  26  27
ENDBRANCH   1  26
TORSDOF 7
ENDMDL
MODEL 8
REMARK VINA RESULT:      -9.0      2.336      3.090
REMARK  7 active torsions:
REMARK  status: ('A' for Active; 'I' for Inactive)
REMARK    1  A    between atoms: C_3  and  C_4 
REMARK    2  A    between atoms: C_4  and  S_5 
REMARK    3  A    between atoms: S_5  and  C_6 
REMARK    4  A    between atoms: C_6  and  C_7 
REMARK    5  A    between atoms: C_16  and  C_17 
REMARK       I    between atoms: C_17  and  N_18 
REMARK    6  A    between atoms: N_18  and  C_19 
REMARK    7  A    between atoms: C_19  and  C_20 
ROOT
HETATM    1  C   UNL     1      25.858  43.434  51.680  1.00  0.00     0.162 C 
HETATM    2  N   UNL     1      25.133  42.698  50.607  1.00  0.00    -0.277 NA
HETATM    3  C   UNL     1      24.446  43.517  49.693  1.00  0.00     0.036 A 
HETATM    4  C   UNL     1      23.974  44.790  50.065  1.00  0.00     0.057 A 
HETATM    5  N   UNL     1      24.242  45.281  51.348  1.00  0.00    -0.324 N 
HETATM    6  C   UNL     1      25.023  44.598  52.247  1.00  0.00     0.240 C 
HETATM    7  O   UNL     1      25.094  44.960  53.421  1.00  0.00    -0.271 OA
HETATM    8  C   UNL     1      24.072  43.007  48.445  1.00  0.00     0.027 A 
HETATM    9  C   UNL     1      23.318  43.780  47.553  1.00  0.00     0.019 A 
HETATM   10  C   UNL     1      22.902  45.067  47.916  1.00  0.00     0.034 A 
HETATM   11  C   UNL     1      23.211  45.561  49.189  1.00  0.00     0.048 A 
HETATM   12  H   UNL     1      25.685  41.972  50.161  1.00  0.00     0.128 HD
HETATM   13  H   UNL     1      23.774  46.108  51.692  1.00  0.00     0.169 HD
ENDROOT
BRANCH  10  14
HETATM   14  C   UNL     1      22.112  45.940  47.005  1.00  0.00     0.252 C 
HETATM   15  N   UNL     1      21.301  46.881  47.597  1.00  0.00    -0.353 N 
HETATM   16  H   UNL     1      21.266  46.987  48.601  1.00  0.00     0.163 HD
HETATM   17  O   UNL     1      22.171  45.768  45.794  1.00  0.00    -0.268 OA
BRANCH  15  18
HETATM   18  C   UNL     1      20.461  47.741  46.793  1.00  0.00     0.161 C 
BRANCH  18  19
HETATM   19  C   UNL     1      19.908  48.895  47.594  1.00  0.00    -0.040 A 
HETATM   20  C   UNL     1      20.541  50.146  47.564  1.00  0.00     0.010 A 
HETATM   21  C   UNL     1      20.010  51.228  48.274  1.00  0.00     0.024 A 
HETATM   22  C   UNL     1      18.843  51.064  49.016  1.00  0.00     0.034 A 
HETATM   23 CL   UNL     1      18.191  52.396  49.890  1.00  0.00    -0.084 Cl
HETATM   24  C   UNL     1      18.196  49.831  49.049  1.00  0.00     0.024 A 
HETATM   25  C   UNL     1      18.722  48.754  48.334  1.00  0.00     0.010 A 
ENDBRANCH  18  19
ENDBRANCH  15  18
ENDBRANCH  10  14
BRANCH   1  26
HETATM   26  C   UNL     1      27.218  43.924  51.138  1.00  0.00     0.103 C 
BRANCH  26  27
HETATM   27  S   UNL     1      28.728  43.451  52.054  1.00  0.00    -0.162 SA
BRANCH  27  28
HETATM   28  C   UNL     1      28.072  43.374  53.751  1.00  0.00     0.112 C 
BRANCH  28  29
HETATM   29  C   UNL     1      29.098  43.838  54.760  1.00  0.00    -0.043 A 
HETATM   30  C   UNL     1      29.079  45.137  55.315  1.00  0.00    -0.055 A 
HETATM   31  C   UNL     1      28.021  46.143  54.949  1.00  0.00     0.049 C 
HETATM   32  C   UNL     1      30.067  45.502  56.245  1.00  0.00     0.007 A 
HETATM   33  C   UNL     1      31.072  44.607  56.610  1.00  0.00     0.001 A 
HETATM   34  C   UNL     1      31.104  43.334  56.053  1.00  0.00     0.001 A 
HETATM   35  C   UNL     1      30.127  42.953  55.134  1.00  0.00     0.008 A 
ENDBRANCH  28  29
ENDBRANCH  27  28
ENDBRANCH  26  27
ENDBRANCH   1  26
TORSDOF 7
ENDMDL
MODEL 9
REMARK VINA RESULT:      -8.9      2.134      2.853
REMARK  7 active torsions:
REMARK  status: ('A' for Active; 'I' for Inactive)
REMARK    1  A    between atoms: C_3  and  C_4 
REMARK    2  A    between atoms: C_4  and  S_5 
REMARK    3  A    between atoms: S_5  and  C_6 
REMARK    4  A    between atoms: C_6  and  C_7 
REMARK    5  A    between atoms: C_16  and  C_17 
REMARK       I    between atoms: C_17  and  N_18 
REMARK    6  A    between atoms: N_18  and  C_19 
REMARK    7  A    between atoms: C_19  and  C_20 
ROOT
HETATM    1  C   UNL     1      25.914  46.333  50.638  1.00  0.00     0.162 C 
HETATM    2  N   UNL     1      25.466  47.689  50.216  1.00  0.00    -0.277 NA
HETATM    3  C   UNL     1      24.160  47.743  49.696  1.00  0.00     0.036 A 
HETATM    4  C   UNL     1      23.576  46.624  49.072  1.00  0.00     0.057 A 
HETATM    5  N   UNL     1      24.280  45.414  49.020  1.00  0.00    -0.324 N 
HETATM    6  C   UNL     1      25.500  45.249  49.626  1.00  0.00     0.240 C 
HETATM    7  O   UNL     1      26.175  44.242  49.413  1.00  0.00    -0.271 OA
HETATM    8  C   UNL     1      23.482  48.965  49.639  1.00  0.00     0.027 A 
HETATM    9  C   UNL     1      22.214  49.053  49.051  1.00  0.00     0.019 A 
HETATM   10  C   UNL     1      21.622  47.919  48.485  1.00  0.00     0.034 A 
HETATM   11  C   UNL     1      22.320  46.705  48.473  1.00  0.00     0.048 A 
HETATM   12  H   UNL     1      25.657  48.417  50.898  1.00  0.00     0.128 HD
HETATM   13  H   UNL     1      23.957  44.655  48.435  1.00  0.00     0.169 HD
ENDROOT
BRANCH  10  14
HETATM   14  C   UNL     1      20.271  47.947  47.861  1.00  0.00     0.252 C 
HETATM   15  N   UNL     1      19.894  49.122  47.251  1.00  0.00    -0.353 N 
HETATM   16  H   UNL     1      20.517  49.915  47.209  1.00  0.00     0.163 HD
HETATM   17  O   UNL     1      19.538  46.969  47.947  1.00  0.00    -0.268 OA
BRANCH  15  18
HETATM   18  C   UNL     1      18.580  49.258  46.659  1.00  0.00     0.161 C 
BRANCH  18  19
HETATM   19  C   UNL     1      17.704  50.202  47.448  1.00  0.00    -0.040 A 
HETATM   20  C   UNL     1      16.663  50.897  46.816  1.00  0.00     0.010 A 
HETATM   21  C   UNL     1      15.825  51.741  47.551  1.00  0.00     0.024 A 
HETATM   22  C   UNL     1      16.023  51.893  48.922  1.00  0.00     0.034 A 
HETATM   23 CL   UNL     1      14.992  52.933  49.825  1.00  0.00    -0.084 Cl
HETATM   24  C   UNL     1      17.046  51.203  49.567  1.00  0.00     0.024 A 
HETATM   25  C   UNL     1      17.878  50.354  48.833  1.00  0.00     0.010 A 
ENDBRANCH  18  19
ENDBRANCH  15  18
ENDBRANCH  10  14
BRANCH   1  26
HETATM   26  C   UNL     1      25.368  46.029  52.050  1.00  0.00     0.103 C 
BRANCH  26  27
HETATM   27  S   UNL     1      26.534  46.101  53.456  1.00  0.00    -0.162 SA
BRANCH  27  28
HETATM   28  C   UNL     1      27.431  44.533  53.219  1.00  0.00     0.112 C 
BRANCH  28  29
HETATM   29  C   UNL     1      28.610  44.425  54.160  1.00  0.00    -0.043 A 
HETATM   30  C   UNL     1      29.573  43.398  54.050  1.00  0.00    -0.055 A 
HETATM   31  C   UNL     1      29.498  42.347  52.975  1.00  0.00     0.049 C 
HETATM   32  C   UNL     1      30.641  43.358  54.962  1.00  0.00     0.007 A 
HETATM   33  C   UNL     1      30.750  44.304  55.980  1.00  0.00     0.001 A 
HETATM   34  C   UNL     1      29.794  45.306  56.102  1.00  0.00     0.001 A 
HETATM   35  C   UNL     1      28.732  45.366  55.201  1.00  0.00     0.008 A 
ENDBRANCH  28  29
ENDBRANCH  27  28
ENDBRANCH  26  27
ENDBRANCH   1  26
TORSDOF 7
ENDMDL
MODEL 10
REMARK VINA RESULT:      -8.9      7.824     11.537
REMARK  7 active torsions:
REMARK  status: ('A' for Active; 'I' for Inactive)
REMARK    1  A    between atoms: C_3  and  C_4 
REMARK    2  A    between atoms: C_4  and  S_5 
REMARK    3  A    between atoms: S_5  and  C_6 
REMARK    4  A    between atoms: C_6  and  C_7 
REMARK    5  A    between atoms: C_16  and  C_17 
REMARK       I    between atoms: C_17  and  N_18 
REMARK    6  A    between atoms: N_18  and  C_19 
REMARK    7  A    between atoms: C_19  and  C_20 
ROOT
HETATM    1  C   UNL     1      27.977  37.899  49.011  1.00  0.00     0.162 C 
HETATM    2  N   UNL     1      26.703  38.572  49.387  1.00  0.00    -0.277 NA
HETATM    3  C   UNL     1      26.855  39.863  49.924  1.00  0.00     0.036 A 
HETATM    4  C   UNL     1      28.032  40.240  50.598  1.00  0.00     0.057 A 
HETATM    5  N   UNL     1      29.099  39.337  50.686  1.00  0.00    -0.324 N 
HETATM    6  C   UNL     1      29.075  38.111  50.070  1.00  0.00     0.240 C 
HETATM    7  O   UNL     1      29.941  37.270  50.311  1.00  0.00    -0.271 OA
HETATM    8  C   UNL     1      25.767  40.742  49.944  1.00  0.00     0.027 A 
HETATM    9  C   UNL     1      25.875  42.002  50.545  1.00  0.00     0.019 A 
HETATM   10  C   UNL     1      27.072  42.385  51.163  1.00  0.00     0.034 A 
HETATM   11  C   UNL     1      28.145  41.487  51.211  1.00  0.00     0.048 A 
HETATM   12  H   UNL     1      25.981  38.514  48.676  1.00  0.00     0.128 HD
HETATM   13  H   UNL     1      29.878  39.519  51.304  1.00  0.00     0.169 HD
ENDROOT
BRANCH  10  14
HETATM   14  C   UNL     1      27.252  43.716  51.805  1.00  0.00     0.252 C 
HETATM   15  N   UNL     1      27.434  43.727  53.170  1.00  0.00    -0.353 N 
HETATM   16  H   UNL     1      27.468  42.870  53.702  1.00  0.00     0.163 HD
HETATM   17  O   UNL     1      27.189  44.734  51.126  1.00  0.00    -0.268 OA
BRANCH  15  18
HETATM   18  C   UNL     1      27.569  44.977  53.886  1.00  0.00     0.161 C 
BRANCH  18  19
HETATM   19  C   UNL     1      28.658  44.912  54.929  1.00  0.00    -0.040 A 
HETATM   20  C   UNL     1      28.683  45.832  55.986  1.00  0.00     0.010 A 
HETATM   21  C   UNL     1      29.668  45.750  56.976  1.00  0.00     0.024 A 
HETATM   22  C   UNL     1      30.632  44.747  56.913  1.00  0.00     0.034 A 
HETATM   23 CL   UNL     1      31.844  44.647  58.131  1.00  0.00    -0.084 Cl
HETATM   24  C   UNL     1      30.616  43.818  55.875  1.00  0.00     0.024 A 
HETATM   25  C   UNL     1      29.628  43.896  54.892  1.00  0.00     0.010 A 
ENDBRANCH  18  19
ENDBRANCH  15  18
ENDBRANCH  10  14
BRANCH   1  26
HETATM   26  C   UNL     1      28.427  38.394  47.620  1.00  0.00     0.103 C 
BRANCH  26  27
HETATM   27  S   UNL     1      28.455  37.188  46.246  1.00  0.00    -0.162 SA
BRANCH  27  28
HETATM   28  C   UNL     1      28.154  38.296  44.831  1.00  0.00     0.112 C 
BRANCH  28  29
HETATM   29  C   UNL     1      29.310  38.270  43.856  1.00  0.00    -0.043 A 
HETATM   30  C   UNL     1      29.807  39.440  43.242  1.00  0.00    -0.055 A 
HETATM   31  C   UNL     1      29.228  40.799  43.531  1.00  0.00     0.049 C 
HETATM   32  C   UNL     1      30.882  39.340  42.343  1.00  0.00     0.007 A 
HETATM   33  C   UNL     1      31.449  38.102  42.037  1.00  0.00     0.001 A 
HETATM   34  C   UNL     1      30.949  36.946  42.627  1.00  0.00     0.001 A 
HETATM   35  C   UNL     1      29.888  37.029  43.527  1.00  0.00     0.008 A 
ENDBRANCH  28  29
ENDBRANCH  27  28
ENDBRANCH  26  27
ENDBRANCH   1  26
TORSDOF 7
ENDMDL
