MODEL 1
REMARK VINA RESULT:      -8.9      0.000      0.000
REMARK  5 active torsions:
REMARK  status: ('A' for Active; 'I' for Inactive)
REMARK    1  A    between atoms: C_5  and  N_6 
REMARK       I    between atoms: N_6  and  C_7 
REMARK    2  A    between atoms: C_7  and  C_8 
REMARK    3  A    between atoms: C_9  and  C_10 
REMARK    4  A    between atoms: C_13  and  O_14 
REMARK    5  A    between atoms: N_20  and  C_21 
ROOT
HETATM    1  C   UNL     1      26.689  42.665  52.261  1.00  0.00     0.060 C 
HETATM    2  C   UNL     1      25.534  43.524  51.852  1.00  0.00     0.158 C 
HETATM    3  N   UNL     1      24.745  42.833  50.858  1.00  0.00    -0.354 N 
HETATM    4  C   UNL     1      25.218  41.892  49.986  1.00  0.00     0.179 C 
HETATM    5  S   UNL     1      24.185  41.507  48.717  1.00  0.00    -0.040 SA
HETATM    6  N   UNL     1      26.473  41.320  50.296  1.00  0.00    -0.292 N 
HETATM    7  C   UNL     1      27.171  41.677  51.475  1.00  0.00     0.030 C 
HETATM    8  C   UNL     1      28.503  41.008  51.749  1.00  0.00     0.070 C 
HETATM    9  H   UNL     1      23.876  43.271  50.577  1.00  0.00     0.163 HD
ENDROOT
BRANCH   1  10
HETATM   10  C   UNL     1      27.287  43.040  53.581  1.00  0.00     0.257 C 
HETATM   11  N   UNL     1      28.632  43.326  53.503  1.00  0.00    -0.306 N 
HETATM   12  H   UNL     1      29.110  43.238  52.620  1.00  0.00     0.170 HD
HETATM   13  O   UNL     1      26.599  43.006  54.591  1.00  0.00    -0.267 OA
BRANCH  11  14
HETATM   14  C   UNL     1      29.378  43.823  54.557  1.00  0.00     0.160 A 
HETATM   15  N   UNL     1      29.319  45.067  55.041  1.00  0.00    -0.110 NA
HETATM   16  O   UNL     1      30.261  45.141  56.045  1.00  0.00    -0.216 OA
HETATM   17  C   UNL     1      30.892  43.946  56.160  1.00  0.00     0.078 A 
HETATM   18  C   UNL     1      31.962  43.868  57.170  1.00  0.00     0.079 C 
HETATM   19  C   UNL     1      30.354  43.068  55.252  1.00  0.00     0.087 A 
ENDBRANCH  11  14
ENDBRANCH   1  10
BRANCH   2  20
HETATM   20  C   UNL     1      25.925  44.903  51.335  1.00  0.00    -0.031 A 
HETATM   21  C   UNL     1      25.576  46.081  52.023  1.00  0.00     0.012 A 
HETATM   22  C   UNL     1      25.902  47.336  51.504  1.00  0.00     0.037 A 
HETATM   23  C   UNL     1      26.588  47.422  50.298  1.00  0.00     0.065 A 
HETATM   24  C   UNL     1      26.964  46.276  49.612  1.00  0.00     0.037 A 
HETATM   25  C   UNL     1      26.633  45.020  50.127  1.00  0.00     0.012 A 
BRANCH  23  26
HETATM   26  O   UNL     1      26.907  48.627  49.747  1.00  0.00    -0.361 OA
HETATM   27  H   UNL     1      26.084  49.114  49.578  1.00  0.00     0.217 HD
ENDBRANCH  23  26
ENDBRANCH   2  20
BRANCH   6  28
HETATM   28  C   UNL     1      26.978  40.283  49.442  1.00  0.00     0.042 A 
HETATM   29  C   UNL     1      27.776  40.609  48.339  1.00  0.00     0.030 A 
HETATM   30  C   UNL     1      28.293  39.597  47.528  1.00  0.00     0.002 A 
HETATM   31  C   UNL     1      28.013  38.260  47.815  1.00  0.00     0.000 A 
HETATM   32  C   UNL     1      27.214  37.931  48.910  1.00  0.00     0.002 A 
HETATM   33  C   UNL     1      26.698  38.940  49.724  1.00  0.00     0.030 A 
ENDBRANCH   6  28
TORSDOF 5
ENDMDL
MODEL 2
REMARK VINA RESULT:      -8.3      2.671      3.749
REMARK  5 active torsions:
REMARK  status: ('A' for Active; 'I' for Inactive)
REMARK    1  A    between atoms: C_5  and  N_6 
REMARK       I    between atoms: N_6  and  C_7 
REMARK    2  A    between atoms: C_7  and  C_8 
REMARK    3  A    between atoms: C_9  and  C_10 
REMARK    4  A    between atoms: C_13  and  O_14 
REMARK    5  A    between atoms: N_20  and  C_21 
ROOT
HETATM    1  C   UNL     1      25.644  44.698  50.401  1.00  0.00     0.060 C 
HETATM    2  C   UNL     1      24.857  45.958  50.583  1.00  0.00     0.158 C 
HETATM    3  N   UNL     1      23.489  45.737  50.172  1.00  0.00    -0.354 N 
HETATM    4  C   UNL     1      23.080  44.824  49.240  1.00  0.00     0.179 C 
HETATM    5  S   UNL     1      21.501  45.011  48.697  1.00  0.00    -0.040 SA
HETATM    6  N   UNL     1      24.006  43.809  48.904  1.00  0.00    -0.292 N 
HETATM    7  C   UNL     1      25.267  43.726  49.542  1.00  0.00     0.030 C 
HETATM    8  C   UNL     1      26.199  42.599  49.143  1.00  0.00     0.070 C 
HETATM    9  H   UNL     1      22.832  46.488  50.344  1.00  0.00     0.163 HD
ENDROOT
BRANCH   1  10
HETATM   10  C   UNL     1      26.903  44.647  51.210  1.00  0.00     0.257 C 
HETATM   11  N   UNL     1      26.686  44.828  52.559  1.00  0.00    -0.306 N 
HETATM   12  H   UNL     1      25.752  45.007  52.894  1.00  0.00     0.170 HD
HETATM   13  O   UNL     1      27.981  44.522  50.649  1.00  0.00    -0.267 OA
BRANCH  11  14
HETATM   14  C   UNL     1      27.668  44.692  53.523  1.00  0.00     0.160 A 
HETATM   15  N   UNL     1      28.039  45.627  54.402  1.00  0.00    -0.110 NA
HETATM   16  O   UNL     1      29.076  45.087  55.133  1.00  0.00    -0.216 OA
HETATM   17  C   UNL     1      29.334  43.832  54.690  1.00  0.00     0.078 A 
HETATM   18  C   UNL     1      30.447  43.124  55.346  1.00  0.00     0.079 C 
HETATM   19  C   UNL     1      28.454  43.524  53.682  1.00  0.00     0.087 A 
ENDBRANCH  11  14
ENDBRANCH   1  10
BRANCH   2  20
HETATM   20  C   UNL     1      25.427  47.169  49.857  1.00  0.00    -0.031 A 
HETATM   21  C   UNL     1      26.811  47.333  49.658  1.00  0.00     0.012 A 
HETATM   22  C   UNL     1      27.315  48.476  49.033  1.00  0.00     0.037 A 
HETATM   23  C   UNL     1      26.435  49.460  48.595  1.00  0.00     0.065 A 
HETATM   24  C   UNL     1      25.065  49.313  48.758  1.00  0.00     0.037 A 
HETATM   25  C   UNL     1      24.562  48.172  49.388  1.00  0.00     0.012 A 
BRANCH  23  26
HETATM   26  O   UNL     1      26.887  50.600  47.999  1.00  0.00    -0.361 OA
HETATM   27  H   UNL     1      27.308  50.361  47.158  1.00  0.00     0.217 HD
ENDBRANCH  23  26
ENDBRANCH   2  20
BRANCH   6  28
HETATM   28  C   UNL     1      23.595  42.793  47.978  1.00  0.00     0.042 A 
HETATM   29  C   UNL     1      23.042  41.596  48.450  1.00  0.00     0.030 A 
HETATM   30  C   UNL     1      22.613  40.622  47.548  1.00  0.00     0.002 A 
HETATM   31  C   UNL     1      22.735  40.839  46.174  1.00  0.00     0.000 A 
HETATM   32  C   UNL     1      23.289  42.027  45.700  1.00  0.00     0.002 A 
HETATM   33  C   UNL     1      23.717  43.004  46.599  1.00  0.00     0.030 A 
ENDBRANCH   6  28
TORSDOF 5
ENDMDL
MODEL 3
REMARK VINA RESULT:      -8.3      7.182     10.857
REMARK  5 active torsions:
REMARK  status: ('A' for Active; 'I' for Inactive)
REMARK    1  A    between atoms: C_5  and  N_6 
REMARK       I    between atoms: N_6  and  C_7 
REMARK    2  A    between atoms: C_7  and  C_8 
REMARK    3  A    between atoms: C_9  and  C_10 
REMARK    4  A    between atoms: C_13  and  O_14 
REMARK    5  A    between atoms: N_20  and  C_21 
ROOT
HETATM    1  C   UNL     1      20.844  47.521  47.791  1.00  0.00     0.060 C 
HETATM    2  C   UNL     1      21.545  48.041  49.007  1.00  0.00     0.158 C 
HETATM    3  N   UNL     1      20.663  48.928  49.731  1.00  0.00    -0.354 N 
HETATM    4  C   UNL     1      19.653  49.665  49.178  1.00  0.00     0.179 C 
HETATM    5  S   UNL     1      19.017  50.866  50.167  1.00  0.00    -0.040 SA
HETATM    6  N   UNL     1      19.230  49.283  47.884  1.00  0.00    -0.292 N 
HETATM    7  C   UNL     1      19.799  48.166  47.227  1.00  0.00     0.030 C 
HETATM    8  C   UNL     1      19.282  47.806  45.848  1.00  0.00     0.070 C 
HETATM    9  H   UNL     1      20.989  49.265  50.629  1.00  0.00     0.163 HD
ENDROOT
BRANCH   1  10
HETATM   10  C   UNL     1      21.442  46.266  47.236  1.00  0.00     0.257 C 
HETATM   11  N   UNL     1      21.297  45.182  48.073  1.00  0.00    -0.306 N 
HETATM   12  H   UNL     1      20.851  45.302  48.970  1.00  0.00     0.170 HD
HETATM   13  O   UNL     1      22.042  46.298  46.171  1.00  0.00    -0.267 OA
BRANCH  11  14
HETATM   14  C   UNL     1      21.646  43.889  47.729  1.00  0.00     0.160 A 
HETATM   15  N   UNL     1      20.931  43.061  46.963  1.00  0.00    -0.110 NA
HETATM   16  O   UNL     1      21.621  41.868  46.925  1.00  0.00    -0.216 OA
HETATM   17  C   UNL     1      22.747  41.975  47.673  1.00  0.00     0.078 A 
HETATM   18  C   UNL     1      23.585  40.767  47.767  1.00  0.00     0.079 C 
HETATM   19  C   UNL     1      22.821  43.246  48.189  1.00  0.00     0.087 A 
ENDBRANCH  11  14
ENDBRANCH   1  10
BRANCH   2  20
HETATM   20  C   UNL     1      22.867  48.743  48.722  1.00  0.00    -0.031 A 
HETATM   21  C   UNL     1      22.943  49.875  47.890  1.00  0.00     0.012 A 
HETATM   22  C   UNL     1      24.173  50.472  47.602  1.00  0.00     0.037 A 
HETATM   23  C   UNL     1      25.335  49.944  48.154  1.00  0.00     0.065 A 
HETATM   24  C   UNL     1      25.285  48.842  48.996  1.00  0.00     0.037 A 
HETATM   25  C   UNL     1      24.056  48.242  49.278  1.00  0.00     0.012 A 
BRANCH  23  26
HETATM   26  O   UNL     1      26.557  50.483  47.883  1.00  0.00    -0.361 OA
HETATM   27  H   UNL     1      26.687  50.479  46.921  1.00  0.00     0.217 HD
ENDBRANCH  23  26
ENDBRANCH   2  20
BRANCH   6  28
HETATM   28  C   UNL     1      18.129  49.988  47.292  1.00  0.00     0.042 A 
HETATM   29  C   UNL     1      16.815  49.571  47.541  1.00  0.00     0.030 A 
HETATM   30  C   UNL     1      15.744  50.277  46.992  1.00  0.00     0.002 A 
HETATM   31  C   UNL     1      15.980  51.397  46.193  1.00  0.00     0.000 A 
HETATM   32  C   UNL     1      17.287  51.812  45.938  1.00  0.00     0.002 A 
HETATM   33  C   UNL     1      18.361  51.110  46.487  1.00  0.00     0.030 A 
ENDBRANCH   6  28
TORSDOF 5
ENDMDL
MODEL 4
REMARK VINA RESULT:      -8.2     11.868     13.229
REMARK  5 active torsions:
REMARK  status: ('A' for Active; 'I' for Inactive)
REMARK    1  A    between atoms: C_5  and  N_6 
REMARK       I    between atoms: N_6  and  C_7 
REMARK    2  A    between atoms: C_7  and  C_8 
REMARK    3  A    between atoms: C_9  and  C_10 
REMARK    4  A    between atoms: C_13  and  O_14 
REMARK    5  A    between atoms: N_20  and  C_21 
ROOT
HETATM    1  C   UNL     1      29.682  48.924  41.413  1.00  0.00     0.060 C 
HETATM    2  C   UNL     1      28.590  49.933  41.582  1.00  0.00     0.158 C 
HETATM    3  N   UNL     1      27.306  49.286  41.437  1.00  0.00    -0.354 N 
HETATM    4  C   UNL     1      27.066  48.161  40.697  1.00  0.00     0.179 C 
HETATM    5  S   UNL     1      25.444  47.823  40.412  1.00  0.00    -0.040 SA
HETATM    6  N   UNL     1      28.197  47.398  40.325  1.00  0.00    -0.292 N 
HETATM    7  C   UNL     1      29.498  47.764  40.746  1.00  0.00     0.030 C 
HETATM    8  C   UNL     1      30.660  46.886  40.324  1.00  0.00     0.070 C 
HETATM    9  H   UNL     1      26.485  49.847  41.632  1.00  0.00     0.163 HD
ENDROOT
BRANCH   1  10
HETATM   10  C   UNL     1      30.994  49.346  41.997  1.00  0.00     0.257 C 
HETATM   11  N   UNL     1      31.832  49.933  41.075  1.00  0.00    -0.306 N 
HETATM   12  H   UNL     1      31.539  50.008  40.113  1.00  0.00     0.170 HD
HETATM   13  O   UNL     1      31.247  49.097  43.167  1.00  0.00    -0.267 OA
BRANCH  11  14
HETATM   14  C   UNL     1      33.040  50.524  41.396  1.00  0.00     0.160 A 
HETATM   15  N   UNL     1      33.240  51.822  41.635  1.00  0.00    -0.110 NA
HETATM   16  O   UNL     1      34.592  51.976  41.861  1.00  0.00    -0.216 OA
HETATM   17  C   UNL     1      35.206  50.772  41.752  1.00  0.00     0.078 A 
HETATM   18  C   UNL     1      36.669  50.767  41.930  1.00  0.00     0.079 C 
HETATM   19  C   UNL     1      34.263  49.812  41.478  1.00  0.00     0.087 A 
ENDBRANCH  11  14
ENDBRANCH   1  10
BRANCH   2  20
HETATM   20  C   UNL     1      28.680  51.125  40.638  1.00  0.00    -0.031 A 
HETATM   21  C   UNL     1      29.096  52.394  41.080  1.00  0.00     0.012 A 
HETATM   22  C   UNL     1      29.123  53.484  40.207  1.00  0.00     0.037 A 
HETATM   23  C   UNL     1      28.741  53.309  38.881  1.00  0.00     0.065 A 
HETATM   24  C   UNL     1      28.348  52.063  38.414  1.00  0.00     0.037 A 
HETATM   25  C   UNL     1      28.316  50.974  39.289  1.00  0.00     0.012 A 
BRANCH  23  26
HETATM   26  O   UNL     1      28.733  54.350  38.002  1.00  0.00    -0.361 OA
HETATM   27  H   UNL     1      27.955  54.901  38.187  1.00  0.00     0.217 HD
ENDBRANCH  23  26
ENDBRANCH   2  20
BRANCH   6  28
HETATM   28  C   UNL     1      27.985  46.176  39.603  1.00  0.00     0.042 A 
HETATM   29  C   UNL     1      27.983  46.181  38.203  1.00  0.00     0.030 A 
HETATM   30  C   UNL     1      27.809  44.987  37.501  1.00  0.00     0.002 A 
HETATM   31  C   UNL     1      27.637  43.788  38.194  1.00  0.00     0.000 A 
HETATM   32  C   UNL     1      27.634  43.779  39.589  1.00  0.00     0.002 A 
HETATM   33  C   UNL     1      27.809  44.970  40.293  1.00  0.00     0.030 A 
ENDBRANCH   6  28
TORSDOF 5
ENDMDL
MODEL 5
REMARK VINA RESULT:      -8.2     11.213     14.759
REMARK  5 active torsions:
REMARK  status: ('A' for Active; 'I' for Inactive)
REMARK    1  A    between atoms: C_5  and  N_6 
REMARK       I    between atoms: N_6  and  C_7 
REMARK    2  A    between atoms: C_7  and  C_8 
REMARK    3  A    between atoms: C_9  and  C_10 
REMARK    4  A    between atoms: C_13  and  O_14 
REMARK    5  A    between atoms: N_20  and  C_21 
ROOT
HETATM    1  C   UNL     1      16.787  50.970  48.547  1.00  0.00     0.060 C 
HETATM    2  C   UNL     1      16.216  49.615  48.270  1.00  0.00     0.158 C 
HETATM    3  N   UNL     1      17.179  48.600  48.633  1.00  0.00    -0.354 N 
HETATM    4  C   UNL     1      18.537  48.764  48.638  1.00  0.00     0.179 C 
HETATM    5  S   UNL     1      19.429  47.344  48.756  1.00  0.00    -0.040 SA
HETATM    6  N   UNL     1      19.012  50.095  48.610  1.00  0.00    -0.292 N 
HETATM    7  C   UNL     1      18.118  51.193  48.626  1.00  0.00     0.030 C 
HETATM    8  C   UNL     1      18.701  52.592  48.614  1.00  0.00     0.070 C 
HETATM    9  H   UNL     1      16.869  47.637  48.587  1.00  0.00     0.163 HD
ENDROOT
BRANCH   1  10
HETATM   10  C   UNL     1      15.757  52.050  48.669  1.00  0.00     0.257 C 
HETATM   11  N   UNL     1      15.411  52.321  49.975  1.00  0.00    -0.306 N 
HETATM   12  H   UNL     1      15.825  51.784  50.722  1.00  0.00     0.170 HD
HETATM   13  O   UNL     1      15.272  52.543  47.662  1.00  0.00    -0.267 OA
BRANCH  11  14
HETATM   14  C   UNL     1      14.584  53.362  50.353  1.00  0.00     0.160 A 
HETATM   15  N   UNL     1      13.376  53.242  50.910  1.00  0.00    -0.110 NA
HETATM   16  O   UNL     1      12.889  54.522  51.073  1.00  0.00    -0.216 OA
HETATM   17  C   UNL     1      13.801  55.412  50.608  1.00  0.00     0.078 A 
HETATM   18  C   UNL     1      13.417  56.833  50.674  1.00  0.00     0.079 C 
HETATM   19  C   UNL     1      14.904  54.729  50.159  1.00  0.00     0.087 A 
ENDBRANCH  11  14
ENDBRANCH   1  10
BRANCH   2  20
HETATM   20  C   UNL     1      15.759  49.405  46.832  1.00  0.00    -0.031 A 
HETATM   21  C   UNL     1      16.520  49.855  45.737  1.00  0.00     0.012 A 
HETATM   22  C   UNL     1      16.056  49.695  44.429  1.00  0.00     0.037 A 
HETATM   23  C   UNL     1      14.831  49.076  44.208  1.00  0.00     0.065 A 
HETATM   24  C   UNL     1      14.072  48.603  45.268  1.00  0.00     0.037 A 
HETATM   25  C   UNL     1      14.533  48.768  46.577  1.00  0.00     0.012 A 
BRANCH  23  26
HETATM   26  O   UNL     1      14.332  48.919  42.948  1.00  0.00    -0.361 OA
HETATM   27  H   UNL     1      13.799  48.109  42.929  1.00  0.00     0.217 HD
ENDBRANCH  23  26
ENDBRANCH   2  20
BRANCH   6  28
HETATM   28  C   UNL     1      20.428  50.314  48.679  1.00  0.00     0.042 A 
HETATM   29  C   UNL     1      21.204  50.253  47.515  1.00  0.00     0.030 A 
HETATM   30  C   UNL     1      22.577  50.498  47.578  1.00  0.00     0.002 A 
HETATM   31  C   UNL     1      23.177  50.802  48.800  1.00  0.00     0.000 A 
HETATM   32  C   UNL     1      22.409  50.858  49.963  1.00  0.00     0.002 A 
HETATM   33  C   UNL     1      21.036  50.616  49.904  1.00  0.00     0.030 A 
ENDBRANCH   6  28
TORSDOF 5
ENDMDL
MODEL 6
REMARK VINA RESULT:      -8.1      7.717     11.472
REMARK  5 active torsions:
REMARK  status: ('A' for Active; 'I' for Inactive)
REMARK    1  A    between atoms: C_5  and  N_6 
REMARK       I    between atoms: N_6  and  C_7 
REMARK    2  A    between atoms: C_7  and  C_8 
REMARK    3  A    between atoms: C_9  and  C_10 
REMARK    4  A    between atoms: C_13  and  O_14 
REMARK    5  A    between atoms: N_20  and  C_21 
ROOT
HETATM    1  C   UNL     1      20.589  47.560  47.703  1.00  0.00     0.060 C 
HETATM    2  C   UNL     1      21.335  47.989  48.927  1.00  0.00     0.158 C 
HETATM    3  N   UNL     1      20.520  48.901  49.697  1.00  0.00    -0.354 N 
HETATM    4  C   UNL     1      19.550  49.719  49.186  1.00  0.00     0.179 C 
HETATM    5  S   UNL     1      19.003  50.919  50.228  1.00  0.00    -0.040 SA
HETATM    6  N   UNL     1      19.090  49.414  47.885  1.00  0.00    -0.292 N 
HETATM    7  C   UNL     1      19.579  48.290  47.178  1.00  0.00     0.030 C 
HETATM    8  C   UNL     1      19.024  48.016  45.794  1.00  0.00     0.070 C 
HETATM    9  H   UNL     1      20.876  49.182  50.602  1.00  0.00     0.163 HD
ENDROOT
BRANCH   1  10
HETATM   10  C   UNL     1      21.100  46.293  47.093  1.00  0.00     0.257 C 
HETATM   11  N   UNL     1      20.464  45.168  47.570  1.00  0.00    -0.306 N 
HETATM   12  H   UNL     1      19.757  45.261  48.283  1.00  0.00     0.170 HD
HETATM   13  O   UNL     1      22.037  46.331  46.309  1.00  0.00    -0.267 OA
BRANCH  11  14
HETATM   14  C   UNL     1      20.665  43.896  47.067  1.00  0.00     0.160 A 
HETATM   15  N   UNL     1      21.571  43.015  47.499  1.00  0.00    -0.110 NA
HETATM   16  O   UNL     1      21.458  41.907  46.687  1.00  0.00    -0.216 OA
HETATM   17  C   UNL     1      20.490  42.122  45.762  1.00  0.00     0.078 A 
HETATM   18  C   UNL     1      20.267  41.041  44.787  1.00  0.00     0.079 C 
HETATM   19  C   UNL     1      19.939  43.362  45.972  1.00  0.00     0.087 A 
ENDBRANCH  11  14
ENDBRANCH   1  10
BRANCH   2  20
HETATM   20  C   UNL     1      22.695  48.617  48.650  1.00  0.00    -0.031 A 
HETATM   21  C   UNL     1      23.880  48.096  49.202  1.00  0.00     0.012 A 
HETATM   22  C   UNL     1      25.110  48.719  48.974  1.00  0.00     0.037 A 
HETATM   23  C   UNL     1      25.163  49.862  48.184  1.00  0.00     0.065 A 
HETATM   24  C   UNL     1      24.012  50.383  47.610  1.00  0.00     0.037 A 
HETATM   25  C   UNL     1      22.781  49.764  47.843  1.00  0.00     0.012 A 
BRANCH  23  26
HETATM   26  O   UNL     1      26.339  50.512  47.954  1.00  0.00    -0.361 OA
HETATM   27  H   UNL     1      26.151  51.311  47.436  1.00  0.00     0.217 HD
ENDBRANCH  23  26
ENDBRANCH   2  20
BRANCH   6  28
HETATM   28  C   UNL     1      18.028  50.208  47.336  1.00  0.00     0.042 A 
HETATM   29  C   UNL     1      16.694  49.876  47.603  1.00  0.00     0.030 A 
HETATM   30  C   UNL     1      15.662  50.668  47.096  1.00  0.00     0.002 A 
HETATM   31  C   UNL     1      15.959  51.790  46.320  1.00  0.00     0.000 A 
HETATM   32  C   UNL     1      17.286  52.121  46.047  1.00  0.00     0.002 A 
HETATM   33  C   UNL     1      18.320  51.333  46.554  1.00  0.00     0.030 A 
ENDBRANCH   6  28
TORSDOF 5
ENDMDL
MODEL 7
REMARK VINA RESULT:      -8.0      2.820      5.766
REMARK  5 active torsions:
REMARK  status: ('A' for Active; 'I' for Inactive)
REMARK    1  A    between atoms: C_5  and  N_6 
REMARK       I    between atoms: N_6  and  C_7 
REMARK    2  A    between atoms: C_7  and  C_8 
REMARK    3  A    between atoms: C_9  and  C_10 
REMARK    4  A    between atoms: C_13  and  O_14 
REMARK    5  A    between atoms: N_20  and  C_21 
ROOT
HETATM    1  C   UNL     1      27.387  41.307  50.376  1.00  0.00     0.060 C 
HETATM    2  C   UNL     1      28.362  40.497  49.580  1.00  0.00     0.158 C 
HETATM    3  N   UNL     1      28.081  40.648  48.171  1.00  0.00    -0.354 N 
HETATM    4  C   UNL     1      26.855  40.932  47.635  1.00  0.00     0.179 C 
HETATM    5  S   UNL     1      26.730  40.708  45.974  1.00  0.00    -0.040 SA
HETATM    6  N   UNL     1      25.879  41.436  48.525  1.00  0.00    -0.292 N 
HETATM    7  C   UNL     1      26.183  41.675  49.887  1.00  0.00     0.030 C 
HETATM    8  C   UNL     1      25.090  42.233  50.777  1.00  0.00     0.070 C 
HETATM    9  H   UNL     1      28.738  40.229  47.525  1.00  0.00     0.163 HD
ENDROOT
BRANCH   1  10
HETATM   10  C   UNL     1      27.847  41.615  51.767  1.00  0.00     0.257 C 
HETATM   11  N   UNL     1      28.542  42.801  51.855  1.00  0.00    -0.306 N 
HETATM   12  H   UNL     1      28.716  43.340  51.021  1.00  0.00     0.170 HD
HETATM   13  O   UNL     1      27.646  40.811  52.666  1.00  0.00    -0.267 OA
BRANCH  11  14
HETATM   14  C   UNL     1      28.952  43.368  53.048  1.00  0.00     0.160 A 
HETATM   15  N   UNL     1      28.412  44.439  53.635  1.00  0.00    -0.110 NA
HETATM   16  O   UNL     1      29.160  44.684  54.768  1.00  0.00    -0.216 OA
HETATM   17  C   UNL     1      30.154  43.765  54.859  1.00  0.00     0.078 A 
HETATM   18  C   UNL     1      31.072  43.909  56.001  1.00  0.00     0.079 C 
HETATM   19  C   UNL     1      30.054  42.893  53.803  1.00  0.00     0.087 A 
ENDBRANCH  11  14
ENDBRANCH   1  10
BRANCH   2  20
HETATM   20  C   UNL     1      28.400  39.018  49.945  1.00  0.00    -0.031 A 
HETATM   21  C   UNL     1      27.338  38.148  49.634  1.00  0.00     0.012 A 
HETATM   22  C   UNL     1      27.374  36.807  50.023  1.00  0.00     0.037 A 
HETATM   23  C   UNL     1      28.477  36.325  50.718  1.00  0.00     0.065 A 
HETATM   24  C   UNL     1      29.547  37.156  51.017  1.00  0.00     0.037 A 
HETATM   25  C   UNL     1      29.509  38.498  50.633  1.00  0.00     0.012 A 
BRANCH  23  26
HETATM   26  O   UNL     1      28.543  35.028  51.134  1.00  0.00    -0.361 OA
HETATM   27  H   UNL     1      28.654  35.021  52.098  1.00  0.00     0.217 HD
ENDBRANCH  23  26
ENDBRANCH   2  20
BRANCH   6  28
HETATM   28  C   UNL     1      24.600  41.807  47.992  1.00  0.00     0.042 A 
HETATM   29  C   UNL     1      24.329  43.147  47.687  1.00  0.00     0.030 A 
HETATM   30  C   UNL     1      23.096  43.503  47.139  1.00  0.00     0.002 A 
HETATM   31  C   UNL     1      22.131  42.525  46.895  1.00  0.00     0.000 A 
HETATM   32  C   UNL     1      22.394  41.190  47.202  1.00  0.00     0.002 A 
HETATM   33  C   UNL     1      23.626  40.830  47.749  1.00  0.00     0.030 A 
ENDBRANCH   6  28
TORSDOF 5
ENDMDL
MODEL 8
REMARK VINA RESULT:      -7.9     12.053     15.199
REMARK  5 active torsions:
REMARK  status: ('A' for Active; 'I' for Inactive)
REMARK    1  A    between atoms: C_5  and  N_6 
REMARK       I    between atoms: N_6  and  C_7 
REMARK    2  A    between atoms: C_7  and  C_8 
REMARK    3  A    between atoms: C_9  and  C_10 
REMARK    4  A    between atoms: C_13  and  O_14 
REMARK    5  A    between atoms: N_20  and  C_21 
ROOT
HETATM    1  C   UNL     1      27.422  48.770  39.845  1.00  0.00     0.060 C 
HETATM    2  C   UNL     1      27.624  47.708  40.880  1.00  0.00     0.158 C 
HETATM    3  N   UNL     1      28.649  48.127  41.810  1.00  0.00    -0.354 N 
HETATM    4  C   UNL     1      29.676  48.982  41.522  1.00  0.00     0.179 C 
HETATM    5  S   UNL     1      30.912  49.026  42.661  1.00  0.00    -0.040 SA
HETATM    6  N   UNL     1      29.539  49.762  40.351  1.00  0.00    -0.292 N 
HETATM    7  C   UNL     1      28.372  49.686  39.553  1.00  0.00     0.030 C 
HETATM    8  C   UNL     1      28.289  50.566  38.321  1.00  0.00     0.070 C 
HETATM    9  H   UNL     1      28.804  47.536  42.617  1.00  0.00     0.163 HD
ENDROOT
BRANCH   1  10
HETATM   10  C   UNL     1      26.107  48.684  39.136  1.00  0.00     0.257 C 
HETATM   11  N   UNL     1      25.102  49.378  39.775  1.00  0.00    -0.306 N 
HETATM   12  H   UNL     1      25.297  49.845  40.647  1.00  0.00     0.170 HD
HETATM   13  O   UNL     1      26.001  47.993  38.134  1.00  0.00    -0.267 OA
BRANCH  11  14
HETATM   14  C   UNL     1      23.836  49.559  39.250  1.00  0.00     0.160 A 
HETATM   15  N   UNL     1      23.516  50.365  38.234  1.00  0.00    -0.110 NA
HETATM   16  O   UNL     1      22.148  50.277  38.080  1.00  0.00    -0.216 OA
HETATM   17  C   UNL     1      21.644  49.424  39.007  1.00  0.00     0.078 A 
HETATM   18  C   UNL     1      20.182  49.245  39.003  1.00  0.00     0.079 C 
HETATM   19  C   UNL     1      22.677  48.925  39.762  1.00  0.00     0.087 A 
ENDBRANCH  11  14
ENDBRANCH   1  10
BRANCH   2  20
HETATM   20  C   UNL     1      27.966  46.335  40.316  1.00  0.00    -0.031 A 
HETATM   21  C   UNL     1      27.271  45.176  40.711  1.00  0.00     0.012 A 
HETATM   22  C   UNL     1      27.634  43.920  40.218  1.00  0.00     0.037 A 
HETATM   23  C   UNL     1      28.691  43.817  39.320  1.00  0.00     0.065 A 
HETATM   24  C   UNL     1      29.378  44.946  38.898  1.00  0.00     0.037 A 
HETATM   25  C   UNL     1      29.018  46.201  39.395  1.00  0.00     0.012 A 
BRANCH  23  26
HETATM   26  O   UNL     1      29.091  42.609  38.832  1.00  0.00    -0.361 OA
HETATM   27  H   UNL     1      29.224  42.694  37.874  1.00  0.00     0.217 HD
ENDBRANCH  23  26
ENDBRANCH   2  20
BRANCH   6  28
HETATM   28  C   UNL     1      30.564  50.718  40.046  1.00  0.00     0.042 A 
HETATM   29  C   UNL     1      30.509  52.004  40.598  1.00  0.00     0.030 A 
HETATM   30  C   UNL     1      31.524  52.924  40.328  1.00  0.00     0.002 A 
HETATM   31  C   UNL     1      32.592  52.564  39.505  1.00  0.00     0.000 A 
HETATM   32  C   UNL     1      32.648  51.286  38.949  1.00  0.00     0.002 A 
HETATM   33  C   UNL     1      31.637  50.363  39.219  1.00  0.00     0.030 A 
ENDBRANCH   6  28
TORSDOF 5
ENDMDL
MODEL 9
REMARK VINA RESULT:      -7.7     10.975     14.054
REMARK  5 active torsions:
REMARK  status: ('A' for Active; 'I' for Inactive)
REMARK    1  A    between atoms: C_5  and  N_6 
REMARK       I    between atoms: N_6  and  C_7 
REMARK    2  A    between atoms: C_7  and  C_8 
REMARK    3  A    between atoms: C_9  and  C_10 
REMARK    4  A    between atoms: C_13  and  O_14 
REMARK    5  A    between atoms: N_20  and  C_21 
ROOT
HETATM    1  C   UNL     1      17.159  50.764  47.695  1.00  0.00     0.060 C 
HETATM    2  C   UNL     1      18.464  51.256  47.152  1.00  0.00     0.158 C 
HETATM    3  N   UNL     1      18.535  50.977  45.736  1.00  0.00    -0.354 N 
HETATM    4  C   UNL     1      17.890  49.954  45.098  1.00  0.00     0.179 C 
HETATM    5  S   UNL     1      18.414  49.642  43.531  1.00  0.00    -0.040 SA
HETATM    6  N   UNL     1      16.832  49.337  45.804  1.00  0.00    -0.292 N 
HETATM    7  C   UNL     1      16.439  49.798  47.084  1.00  0.00     0.030 C 
HETATM    8  C   UNL     1      15.283  49.099  47.773  1.00  0.00     0.070 C 
HETATM    9  H   UNL     1      19.329  51.355  45.233  1.00  0.00     0.163 HD
ENDROOT
BRANCH   1  10
HETATM   10  C   UNL     1      16.765  51.397  48.993  1.00  0.00     0.257 C 
HETATM   11  N   UNL     1      15.883  52.443  48.837  1.00  0.00    -0.306 N 
HETATM   12  H   UNL     1      15.600  52.723  47.911  1.00  0.00     0.170 HD
HETATM   13  O   UNL     1      17.271  51.010  50.036  1.00  0.00    -0.267 OA
BRANCH  11  14
HETATM   14  C   UNL     1      15.271  53.100  49.890  1.00  0.00     0.160 A 
HETATM   15  N   UNL     1      14.168  52.700  50.529  1.00  0.00    -0.110 NA
HETATM   16  O   UNL     1      13.884  53.672  51.466  1.00  0.00    -0.216 OA
HETATM   17  C   UNL     1      14.811  54.659  51.386  1.00  0.00     0.078 A 
HETATM   18  C   UNL     1      14.630  55.799  52.300  1.00  0.00     0.079 C 
HETATM   19  C   UNL     1      15.726  54.335  50.415  1.00  0.00     0.087 A 
ENDBRANCH  11  14
ENDBRANCH   1  10
BRANCH   2  20
HETATM   20  C   UNL     1      19.693  50.692  47.853  1.00  0.00    -0.031 A 
HETATM   21  C   UNL     1      19.976  49.314  47.862  1.00  0.00     0.012 A 
HETATM   22  C   UNL     1      21.082  48.814  48.554  1.00  0.00     0.037 A 
HETATM   23  C   UNL     1      21.918  49.693  49.235  1.00  0.00     0.065 A 
HETATM   24  C   UNL     1      21.673  51.059  49.224  1.00  0.00     0.037 A 
HETATM   25  C   UNL     1      20.564  51.557  48.536  1.00  0.00     0.012 A 
BRANCH  23  26
HETATM   26  O   UNL     1      22.995  49.245  49.941  1.00  0.00    -0.361 OA
HETATM   27  H   UNL     1      22.761  48.397  50.352  1.00  0.00     0.217 HD
ENDBRANCH  23  26
ENDBRANCH   2  20
BRANCH   6  28
HETATM   28  C   UNL     1      16.087  48.302  45.147  1.00  0.00     0.042 A 
HETATM   29  C   UNL     1      14.920  48.618  44.441  1.00  0.00     0.030 A 
HETATM   30  C   UNL     1      14.214  47.615  43.775  1.00  0.00     0.002 A 
HETATM   31  C   UNL     1      14.669  46.297  43.813  1.00  0.00     0.000 A 
HETATM   32  C   UNL     1      15.828  45.976  44.519  1.00  0.00     0.002 A 
HETATM   33  C   UNL     1      16.538  46.976  45.185  1.00  0.00     0.030 A 
ENDBRANCH   6  28
TORSDOF 5
ENDMDL
MODEL 10
REMARK VINA RESULT:      -7.7      3.418      6.105
REMARK  5 active torsions:
REMARK  status: ('A' for Active; 'I' for Inactive)
REMARK    1  A    between atoms: C_5  and  N_6 
REMARK       I    between atoms: N_6  and  C_7 
REMARK    2  A    between atoms: C_7  and  C_8 
REMARK    3  A    between atoms: C_9  and  C_10 
REMARK    4  A    between atoms: C_13  and  O_14 
REMARK    5  A    between atoms: N_20  and  C_21 
ROOT
HETATM    1  C   UNL     1      26.328  41.827  48.546  1.00  0.00     0.060 C 
HETATM    2  C   UNL     1      27.332  40.951  47.863  1.00  0.00     0.158 C 
HETATM    3  N   UNL     1      26.854  40.607  46.543  1.00  0.00    -0.354 N 
HETATM    4  C   UNL     1      25.541  40.531  46.172  1.00  0.00     0.179 C 
HETATM    5  S   UNL     1      25.255  39.775  44.698  1.00  0.00    -0.040 SA
HETATM    6  N   UNL     1      24.605  41.149  47.034  1.00  0.00    -0.292 N 
HETATM    7  C   UNL     1      25.025  41.848  48.191  1.00  0.00     0.030 C 
HETATM    8  C   UNL     1      23.966  42.501  49.057  1.00  0.00     0.070 C 
HETATM    9  H   UNL     1      27.494  40.100  45.943  1.00  0.00     0.163 HD
ENDROOT
BRANCH   1  10
HETATM   10  C   UNL     1      26.891  42.622  49.683  1.00  0.00     0.257 C 
HETATM   11  N   UNL     1      26.939  41.916  50.865  1.00  0.00    -0.306 N 
HETATM   12  H   UNL     1      26.583  40.973  50.897  1.00  0.00     0.170 HD
HETATM   13  O   UNL     1      27.191  43.795  49.514  1.00  0.00    -0.267 OA
BRANCH  11  14
HETATM   14  C   UNL     1      27.537  42.385  52.020  1.00  0.00     0.160 A 
HETATM   15  N   UNL     1      26.943  43.109  52.973  1.00  0.00    -0.110 NA
HETATM   16  O   UNL     1      27.915  43.400  53.907  1.00  0.00    -0.216 OA
HETATM   17  C   UNL     1      29.094  42.857  53.514  1.00  0.00     0.078 A 
HETATM   18  C   UNL     1      30.252  43.109  54.390  1.00  0.00     0.079 C 
HETATM   19  C   UNL     1      28.905  42.184  52.332  1.00  0.00     0.087 A 
ENDBRANCH  11  14
ENDBRANCH   1  10
BRANCH   2  20
HETATM   20  C   UNL     1      27.692  39.686  48.631  1.00  0.00    -0.031 A 
HETATM   21  C   UNL     1      26.741  38.683  48.899  1.00  0.00     0.012 A 
HETATM   22  C   UNL     1      27.082  37.555  49.648  1.00  0.00     0.037 A 
HETATM   23  C   UNL     1      28.380  37.417  50.127  1.00  0.00     0.065 A 
HETATM   24  C   UNL     1      29.342  38.380  49.859  1.00  0.00     0.037 A 
HETATM   25  C   UNL     1      29.000  39.512  49.114  1.00  0.00     0.012 A 
BRANCH  23  26
HETATM   26  O   UNL     1      28.748  36.342  50.880  1.00  0.00    -0.361 OA
HETATM   27  H   UNL     1      28.442  36.485  51.790  1.00  0.00     0.217 HD
ENDBRANCH  23  26
ENDBRANCH   2  20
BRANCH   6  28
HETATM   28  C   UNL     1      23.223  41.149  46.649  1.00  0.00     0.042 A 
HETATM   29  C   UNL     1      22.707  42.205  45.888  1.00  0.00     0.030 A 
HETATM   30  C   UNL     1      21.370  42.188  45.487  1.00  0.00     0.002 A 
HETATM   31  C   UNL     1      20.546  41.120  45.845  1.00  0.00     0.000 A 
HETATM   32  C   UNL     1      21.055  40.068  46.608  1.00  0.00     0.002 A 
HETATM   33  C   UNL     1      22.391  40.081  47.009  1.00  0.00     0.030 A 
ENDBRANCH   6  28
TORSDOF 5
ENDMDL
