MODEL 1
REMARK VINA RESULT:      -9.2      0.000      0.000
REMARK  8 active torsions:
REMARK  status: ('A' for Active; 'I' for Inactive)
REMARK    1  A    between atoms: O_2  and  C_3 
REMARK    2  A    between atoms: C_3  and  C_4 
REMARK    3  A    between atoms: C_9  and  N_10 
REMARK       I    between atoms: N_10  and  C_11 
REMARK    4  A    between atoms: C_11  and  C_12 
REMARK    5  A    between atoms: C_12  and  N_13 
REMARK    6  A    between atoms: N_17  and  C_19 
REMARK    7  A    between atoms: C_19  and  C_20 
REMARK    8  A    between atoms: C_23  and  N_24 
ROOT
HETATM    1  C   UNL     1      23.972  45.128  50.324  1.00  0.00     0.337 C 
ENDROOT
BRANCH   1   2
HETATM    2  C   UNL     1      23.805  44.907  48.827  1.00  0.00     0.248 C 
HETATM    3  N   UNL     1      23.017  45.715  48.070  1.00  0.00    -0.323 N 
HETATM    4  H   UNL     1      22.796  45.324  47.148  1.00  0.00     0.169 HD
HETATM    5  O   UNL     1      24.312  43.882  48.362  1.00  0.00    -0.271 OA
BRANCH   3   6
HETATM    6  C   UNL     1      22.283  46.842  48.427  1.00  0.00     0.080 C 
HETATM    7  C   UNL     1      20.912  46.758  48.635  1.00  0.00     0.136 C 
HETATM    8  N   UNL     1      20.492  47.984  49.091  1.00  0.00    -0.349 N 
HETATM    9  H   UNL     1      19.529  48.206  49.324  1.00  0.00     0.166 HD
HETATM   10  C   UNL     1      21.539  48.871  49.130  1.00  0.00     0.045 A 
HETATM   11  C   UNL     1      22.657  48.216  48.611  1.00  0.00     0.020 A 
HETATM   12  C   UNL     1      21.549  50.214  49.527  1.00  0.00     0.030 A 
HETATM   13  C   UNL     1      23.803  49.005  48.352  1.00  0.00     0.016 A 
HETATM   14  C   UNL     1      23.831  50.352  48.734  1.00  0.00     0.001 A 
HETATM   15  C   UNL     1      22.725  50.939  49.336  1.00  0.00     0.002 A 
BRANCH   7  16
HETATM   16  C   UNL     1      20.040  45.620  48.462  1.00  0.00     0.312 C 
HETATM   17  O   UNL     1      20.438  44.467  48.371  1.00  0.00    -0.258 OA
BRANCH  16  18
HETATM   18  O   UNL     1      18.744  46.027  48.434  1.00  0.00    -0.321 OA
HETATM   19  C   UNL     1      17.979  45.473  47.359  1.00  0.00     0.213 C 
ENDBRANCH  16  18
ENDBRANCH   7  16
ENDBRANCH   3   6
ENDBRANCH   1   2
BRANCH   1  20
HETATM   20  N   UNL     1      25.115  46.143  50.597  1.00  0.00    -0.060 N 
HETATM   21  H   UNL     1      24.748  47.004  50.135  1.00  0.00     0.280 HD
HETATM   22  C   UNL     1      26.414  45.819  49.877  1.00  0.00     0.263 C 
HETATM   23  C   UNL     1      27.166  44.643  50.551  1.00  0.00     0.263 C 
HETATM   24  N   UNL     1      27.318  44.828  52.066  1.00  0.00    -0.064 N 
HETATM   25  H   UNL     1      28.034  45.555  52.221  1.00  0.00     0.280 HD
HETATM   26  C   UNL     1      26.032  45.263  52.774  1.00  0.00     0.263 C 
HETATM   27  C   UNL     1      25.338  46.447  52.059  1.00  0.00     0.263 C 
BRANCH  24  28
HETATM   28  C   UNL     1      27.883  43.575  52.744  1.00  0.00     0.273 C 
BRANCH  28  29
HETATM   29  C   UNL     1      28.723  43.870  53.956  1.00  0.00    -0.032 A 
HETATM   30  C   UNL     1      29.775  43.012  54.319  1.00  0.00     0.011 A 
HETATM   31  C   UNL     1      30.562  43.286  55.442  1.00  0.00     0.037 A 
HETATM   32  C   UNL     1      30.295  44.422  56.217  1.00  0.00     0.102 A 
HETATM   33  C   UNL     1      29.249  45.284  55.870  1.00  0.00     0.037 A 
HETATM   34  C   UNL     1      28.471  45.009  54.741  1.00  0.00     0.011 A 
BRANCH  32  35
HETATM   35  N   UNL     1      31.115  44.709  57.402  1.00  0.00    -0.116 N 
HETATM   36  O   UNL     1      31.967  43.871  57.723  1.00  0.00    -0.532 OA
HETATM   37  O   UNL     1      30.882  45.762  58.011  1.00  0.00    -0.532 OA
ENDBRANCH  32  35
ENDBRANCH  28  29
ENDBRANCH  24  28
ENDBRANCH   1  20
TORSDOF 8
ENDMDL
MODEL 2
REMARK VINA RESULT:      -8.9      2.139      3.593
REMARK  8 active torsions:
REMARK  status: ('A' for Active; 'I' for Inactive)
REMARK    1  A    between atoms: O_2  and  C_3 
REMARK    2  A    between atoms: C_3  and  C_4 
REMARK    3  A    between atoms: C_9  and  N_10 
REMARK       I    between atoms: N_10  and  C_11 
REMARK    4  A    between atoms: C_11  and  C_12 
REMARK    5  A    between atoms: C_12  and  N_13 
REMARK    6  A    between atoms: N_17  and  C_19 
REMARK    7  A    between atoms: C_19  and  C_20 
REMARK    8  A    between atoms: C_23  and  N_24 
ROOT
HETATM    1  C   UNL     1      23.254  45.830  49.515  1.00  0.00     0.337 C 
ENDROOT
BRANCH   1   2
HETATM    2  C   UNL     1      22.871  46.081  48.064  1.00  0.00     0.248 C 
HETATM    3  N   UNL     1      22.213  47.207  47.683  1.00  0.00    -0.323 N 
HETATM    4  H   UNL     1      21.803  47.145  46.745  1.00  0.00     0.169 HD
HETATM    5  O   UNL     1      23.069  45.153  47.273  1.00  0.00    -0.271 OA
BRANCH   3   6
HETATM    6  C   UNL     1      21.807  48.306  48.435  1.00  0.00     0.080 C 
HETATM    7  C   UNL     1      22.653  49.394  48.612  1.00  0.00     0.136 C 
HETATM    8  N   UNL     1      21.942  50.360  49.282  1.00  0.00    -0.349 N 
HETATM    9  H   UNL     1      22.318  51.265  49.545  1.00  0.00     0.166 HD
HETATM   10  C   UNL     1      20.683  49.908  49.590  1.00  0.00     0.045 A 
HETATM   11  C   UNL     1      20.605  48.578  49.171  1.00  0.00     0.020 A 
HETATM   12  C   UNL     1      19.646  50.564  50.263  1.00  0.00     0.030 A 
HETATM   13  C   UNL     1      19.471  47.839  49.581  1.00  0.00     0.016 A 
HETATM   14  C   UNL     1      18.424  48.475  50.262  1.00  0.00     0.001 A 
HETATM   15  C   UNL     1      18.504  49.827  50.575  1.00  0.00     0.002 A 
BRANCH   7  16
HETATM   16  C   UNL     1      24.018  49.559  48.169  1.00  0.00     0.312 C 
HETATM   17  O   UNL     1      24.345  50.267  47.226  1.00  0.00    -0.258 OA
BRANCH  16  18
HETATM   18  O   UNL     1      24.854  48.834  48.957  1.00  0.00    -0.321 OA
HETATM   19  C   UNL     1      26.227  49.223  48.867  1.00  0.00     0.213 C 
ENDBRANCH  16  18
ENDBRANCH   7  16
ENDBRANCH   3   6
ENDBRANCH   1   2
BRANCH   1  20
HETATM   20  N   UNL     1      24.443  44.835  49.596  1.00  0.00    -0.060 N 
HETATM   21  H   UNL     1      24.299  44.261  48.737  1.00  0.00     0.280 HD
HETATM   22  C   UNL     1      24.351  43.855  50.756  1.00  0.00     0.263 C 
HETATM   23  C   UNL     1      24.697  44.531  52.107  1.00  0.00     0.263 C 
HETATM   24  N   UNL     1      26.012  45.318  52.055  1.00  0.00    -0.064 N 
HETATM   25  H   UNL     1      26.785  44.634  52.043  1.00  0.00     0.280 HD
HETATM   26  C   UNL     1      26.151  46.222  50.826  1.00  0.00     0.263 C 
HETATM   27  C   UNL     1      25.803  45.484  49.511  1.00  0.00     0.263 C 
BRANCH  24  28
HETATM   28  C   UNL     1      26.241  46.140  53.329  1.00  0.00     0.273 C 
BRANCH  28  29
HETATM   29  C   UNL     1      27.421  45.680  54.141  1.00  0.00    -0.032 A 
HETATM   30  C   UNL     1      27.998  46.529  55.100  1.00  0.00     0.011 A 
HETATM   31  C   UNL     1      29.092  46.102  55.861  1.00  0.00     0.037 A 
HETATM   32  C   UNL     1      29.621  44.820  55.660  1.00  0.00     0.102 A 
HETATM   33  C   UNL     1      29.058  43.966  54.706  1.00  0.00     0.037 A 
HETATM   34  C   UNL     1      27.959  44.395  53.954  1.00  0.00     0.011 A 
BRANCH  32  35
HETATM   35  N   UNL     1      30.775  44.372  56.453  1.00  0.00    -0.116 N 
HETATM   36  O   UNL     1      31.011  44.975  57.506  1.00  0.00    -0.532 OA
HETATM   37  O   UNL     1      31.443  43.434  55.999  1.00  0.00    -0.532 OA
ENDBRANCH  32  35
ENDBRANCH  28  29
ENDBRANCH  24  28
ENDBRANCH   1  20
TORSDOF 8
ENDMDL
MODEL 3
REMARK VINA RESULT:      -8.6      2.298      3.904
REMARK  8 active torsions:
REMARK  status: ('A' for Active; 'I' for Inactive)
REMARK    1  A    between atoms: O_2  and  C_3 
REMARK    2  A    between atoms: C_3  and  C_4 
REMARK    3  A    between atoms: C_9  and  N_10 
REMARK       I    between atoms: N_10  and  C_11 
REMARK    4  A    between atoms: C_11  and  C_12 
REMARK    5  A    between atoms: C_12  and  N_13 
REMARK    6  A    between atoms: N_17  and  C_19 
REMARK    7  A    between atoms: C_19  and  C_20 
REMARK    8  A    between atoms: C_23  and  N_24 
ROOT
HETATM    1  C   UNL     1      23.373  47.875  49.527  1.00  0.00     0.337 C 
ENDROOT
BRANCH   1   2
HETATM    2  C   UNL     1      23.150  48.922  48.445  1.00  0.00     0.248 C 
HETATM    3  N   UNL     1      21.903  49.271  48.036  1.00  0.00    -0.323 N 
HETATM    4  H   UNL     1      21.893  49.791  47.151  1.00  0.00     0.169 HD
HETATM    5  O   UNL     1      24.159  49.339  47.866  1.00  0.00    -0.271 OA
BRANCH   3   6
HETATM    6  C   UNL     1      20.658  48.838  48.483  1.00  0.00     0.080 C 
HETATM    7  C   UNL     1      19.918  49.608  49.371  1.00  0.00     0.136 C 
HETATM    8  N   UNL     1      18.699  48.992  49.528  1.00  0.00    -0.349 N 
HETATM    9  H   UNL     1      17.958  49.341  50.127  1.00  0.00     0.166 HD
HETATM   10  C   UNL     1      18.653  47.822  48.813  1.00  0.00     0.045 A 
HETATM   11  C   UNL     1      19.910  47.639  48.234  1.00  0.00     0.020 A 
HETATM   12  C   UNL     1      17.610  46.894  48.698  1.00  0.00     0.030 A 
HETATM   13  C   UNL     1      20.163  46.386  47.626  1.00  0.00     0.016 A 
HETATM   14  C   UNL     1      19.136  45.441  47.507  1.00  0.00     0.001 A 
HETATM   15  C   UNL     1      17.870  45.706  48.016  1.00  0.00     0.002 A 
BRANCH   7  16
HETATM   16  C   UNL     1      20.283  50.849  50.014  1.00  0.00     0.312 C 
HETATM   17  O   UNL     1      21.346  51.027  50.591  1.00  0.00    -0.258 OA
BRANCH  16  18
HETATM   18  O   UNL     1      19.288  51.761  49.862  1.00  0.00    -0.321 OA
HETATM   19  C   UNL     1      19.252  52.379  48.572  1.00  0.00     0.213 C 
ENDBRANCH  16  18
ENDBRANCH   7  16
ENDBRANCH   3   6
ENDBRANCH   1   2
BRANCH   1  20
HETATM   20  N   UNL     1      24.660  47.058  49.233  1.00  0.00    -0.060 N 
HETATM   21  H   UNL     1      24.800  47.241  48.215  1.00  0.00     0.280 HD
HETATM   22  C   UNL     1      24.477  45.553  49.352  1.00  0.00     0.263 C 
HETATM   23  C   UNL     1      24.410  45.099  50.833  1.00  0.00     0.263 C 
HETATM   24  N   UNL     1      25.561  45.659  51.677  1.00  0.00    -0.064 N 
HETATM   25  H   UNL     1      26.418  45.146  51.415  1.00  0.00     0.280 HD
HETATM   26  C   UNL     1      25.816  47.155  51.471  1.00  0.00     0.263 C 
HETATM   27  C   UNL     1      25.884  47.540  49.974  1.00  0.00     0.263 C 
BRANCH  24  28
HETATM   28  C   UNL     1      25.374  45.367  53.170  1.00  0.00     0.273 C 
BRANCH  28  29
HETATM   29  C   UNL     1      26.666  45.282  53.936  1.00  0.00    -0.032 A 
HETATM   30  C   UNL     1      27.494  44.154  53.810  1.00  0.00     0.011 A 
HETATM   31  C   UNL     1      28.699  44.074  54.516  1.00  0.00     0.037 A 
HETATM   32  C   UNL     1      29.080  45.123  55.363  1.00  0.00     0.102 A 
HETATM   33  C   UNL     1      28.263  46.251  55.501  1.00  0.00     0.037 A 
HETATM   34  C   UNL     1      27.064  46.329  54.785  1.00  0.00     0.011 A 
BRANCH  32  35
HETATM   35  N   UNL     1      30.341  45.039  56.113  1.00  0.00    -0.116 N 
HETATM   36  O   UNL     1      30.592  45.951  56.909  1.00  0.00    -0.532 OA
HETATM   37  O   UNL     1      31.074  44.069  55.879  1.00  0.00    -0.532 OA
ENDBRANCH  32  35
ENDBRANCH  28  29
ENDBRANCH  24  28
ENDBRANCH   1  20
TORSDOF 8
ENDMDL
MODEL 4
REMARK VINA RESULT:      -8.6      3.505      9.625
REMARK  8 active torsions:
REMARK  status: ('A' for Active; 'I' for Inactive)
REMARK    1  A    between atoms: O_2  and  C_3 
REMARK    2  A    between atoms: C_3  and  C_4 
REMARK    3  A    between atoms: C_9  and  N_10 
REMARK       I    between atoms: N_10  and  C_11 
REMARK    4  A    between atoms: C_11  and  C_12 
REMARK    5  A    between atoms: C_12  and  N_13 
REMARK    6  A    between atoms: N_17  and  C_19 
REMARK    7  A    between atoms: C_19  and  C_20 
REMARK    8  A    between atoms: C_23  and  N_24 
ROOT
HETATM    1  C   UNL     1      26.458  45.443  49.504  1.00  0.00     0.337 C 
ENDROOT
BRANCH   1   2
HETATM    2  C   UNL     1      25.492  44.287  49.718  1.00  0.00     0.248 C 
HETATM    3  N   UNL     1      25.795  43.244  50.535  1.00  0.00    -0.323 N 
HETATM    4  H   UNL     1      25.183  42.431  50.405  1.00  0.00     0.169 HD
HETATM    5  O   UNL     1      24.477  44.279  49.013  1.00  0.00    -0.271 OA
BRANCH   3   6
HETATM    6  C   UNL     1      26.921  43.019  51.321  1.00  0.00     0.080 C 
HETATM    7  C   UNL     1      27.836  42.031  50.980  1.00  0.00     0.136 C 
HETATM    8  N   UNL     1      28.889  42.129  51.858  1.00  0.00    -0.349 N 
HETATM    9  H   UNL     1      29.704  41.524  51.840  1.00  0.00     0.166 HD
HETATM   10  C   UNL     1      28.655  43.112  52.787  1.00  0.00     0.045 A 
HETATM   11  C   UNL     1      27.376  43.616  52.545  1.00  0.00     0.020 A 
HETATM   12  C   UNL     1      29.461  43.535  53.851  1.00  0.00     0.030 A 
HETATM   13  C   UNL     1      26.834  44.491  53.516  1.00  0.00     0.016 A 
HETATM   14  C   UNL     1      27.620  44.921  54.593  1.00  0.00     0.001 A 
HETATM   15  C   UNL     1      28.925  44.466  54.741  1.00  0.00     0.002 A 
BRANCH   7  16
HETATM   16  C   UNL     1      27.774  41.075  49.899  1.00  0.00     0.312 C 
HETATM   17  O   UNL     1      27.822  39.863  50.060  1.00  0.00    -0.258 OA
BRANCH  16  18
HETATM   18  O   UNL     1      27.642  41.723  48.713  1.00  0.00    -0.321 OA
HETATM   19  C   UNL     1      26.769  41.074  47.785  1.00  0.00     0.213 C 
ENDBRANCH  16  18
ENDBRANCH   7  16
ENDBRANCH   3   6
ENDBRANCH   1   2
BRANCH   1  20
HETATM   20  N   UNL     1      26.242  46.538  50.583  1.00  0.00    -0.060 N 
HETATM   21  H   UNL     1      26.716  46.115  51.411  1.00  0.00     0.280 HD
HETATM   22  C   UNL     1      24.790  46.720  50.997  1.00  0.00     0.263 C 
HETATM   23  C   UNL     1      23.978  47.483  49.920  1.00  0.00     0.263 C 
HETATM   24  N   UNL     1      24.667  48.776  49.465  1.00  0.00    -0.064 N 
HETATM   25  H   UNL     1      24.567  49.466  50.226  1.00  0.00     0.280 HD
HETATM   26  C   UNL     1      26.158  48.614  49.155  1.00  0.00     0.263 C 
HETATM   27  C   UNL     1      26.912  47.855  50.273  1.00  0.00     0.263 C 
BRANCH  24  28
HETATM   28  C   UNL     1      23.957  49.415  48.266  1.00  0.00     0.273 C 
BRANCH  28  29
HETATM   29  C   UNL     1      22.554  49.868  48.565  1.00  0.00    -0.032 A 
HETATM   30  C   UNL     1      22.285  50.644  49.705  1.00  0.00     0.011 A 
HETATM   31  C   UNL     1      20.982  51.072  49.983  1.00  0.00     0.037 A 
HETATM   32  C   UNL     1      19.935  50.716  49.122  1.00  0.00     0.102 A 
HETATM   33  C   UNL     1      20.188  49.941  47.986  1.00  0.00     0.037 A 
HETATM   34  C   UNL     1      21.494  49.524  47.708  1.00  0.00     0.011 A 
BRANCH  32  35
HETATM   35  N   UNL     1      18.564  51.157  49.416  1.00  0.00    -0.116 N 
HETATM   36  O   UNL     1      18.421  52.284  49.905  1.00  0.00    -0.532 OA
HETATM   37  O   UNL     1      17.649  50.360  49.172  1.00  0.00    -0.532 OA
ENDBRANCH  32  35
ENDBRANCH  28  29
ENDBRANCH  24  28
ENDBRANCH   1  20
TORSDOF 8
ENDMDL
MODEL 5
REMARK VINA RESULT:      -8.2      6.912     11.920
REMARK  8 active torsions:
REMARK  status: ('A' for Active; 'I' for Inactive)
REMARK    1  A    between atoms: O_2  and  C_3 
REMARK    2  A    between atoms: C_3  and  C_4 
REMARK    3  A    between atoms: C_9  and  N_10 
REMARK       I    between atoms: N_10  and  C_11 
REMARK    4  A    between atoms: C_11  and  C_12 
REMARK    5  A    between atoms: C_12  and  N_13 
REMARK    6  A    between atoms: N_17  and  C_19 
REMARK    7  A    between atoms: C_19  and  C_20 
REMARK    8  A    between atoms: C_23  and  N_24 
ROOT
HETATM    1  C   UNL     1      19.340  46.828  47.217  1.00  0.00     0.337 C 
ENDROOT
BRANCH   1   2
HETATM    2  C   UNL     1      20.055  46.652  48.549  1.00  0.00     0.248 C 
HETATM    3  N   UNL     1      20.582  47.709  49.221  1.00  0.00    -0.323 N 
HETATM    4  H   UNL     1      21.237  47.437  49.962  1.00  0.00     0.169 HD
HETATM    5  O   UNL     1      20.249  45.490  48.921  1.00  0.00    -0.271 OA
BRANCH   3   6
HETATM    6  C   UNL     1      20.565  49.066  48.914  1.00  0.00     0.080 C 
HETATM    7  C   UNL     1      21.648  49.662  48.278  1.00  0.00     0.136 C 
HETATM    8  N   UNL     1      21.293  50.959  47.998  1.00  0.00    -0.349 N 
HETATM    9  H   UNL     1      21.900  51.628  47.534  1.00  0.00     0.166 HD
HETATM   10  C   UNL     1      20.039  51.234  48.482  1.00  0.00     0.045 A 
HETATM   11  C   UNL     1      19.599  50.097  49.163  1.00  0.00     0.020 A 
HETATM   12  C   UNL     1      19.304  52.424  48.416  1.00  0.00     0.030 A 
HETATM   13  C   UNL     1      18.418  50.224  49.932  1.00  0.00     0.016 A 
HETATM   14  C   UNL     1      17.671  51.409  49.886  1.00  0.00     0.001 A 
HETATM   15  C   UNL     1      18.100  52.484  49.117  1.00  0.00     0.002 A 
BRANCH   7  16
HETATM   16  C   UNL     1      22.917  49.077  47.916  1.00  0.00     0.312 C 
HETATM   17  O   UNL     1      23.189  47.894  48.070  1.00  0.00    -0.258 OA
BRANCH  16  18
HETATM   18  O   UNL     1      23.729  50.024  47.378  1.00  0.00    -0.321 OA
HETATM   19  C   UNL     1      25.035  50.075  47.960  1.00  0.00     0.213 C 
ENDBRANCH  16  18
ENDBRANCH   7  16
ENDBRANCH   3   6
ENDBRANCH   1   2
BRANCH   1  20
HETATM   20  N   UNL     1      18.045  45.973  47.181  1.00  0.00    -0.060 N 
HETATM   21  H   UNL     1      18.431  45.003  47.174  1.00  0.00     0.280 HD
HETATM   22  C   UNL     1      17.254  46.102  45.888  1.00  0.00     0.263 C 
HETATM   23  C   UNL     1      16.485  47.446  45.818  1.00  0.00     0.263 C 
HETATM   24  N   UNL     1      15.666  47.726  47.084  1.00  0.00    -0.064 N 
HETATM   25  H   UNL     1      14.847  47.099  47.070  1.00  0.00     0.280 HD
HETATM   26  C   UNL     1      16.432  47.487  48.389  1.00  0.00     0.263 C 
HETATM   27  C   UNL     1      17.167  46.125  48.400  1.00  0.00     0.263 C 
BRANCH  24  28
HETATM   28  C   UNL     1      15.073  49.140  47.085  1.00  0.00     0.273 C 
BRANCH  28  29
HETATM   29  C   UNL     1      15.670  50.046  46.043  1.00  0.00    -0.032 A 
HETATM   30  C   UNL     1      14.936  50.390  44.895  1.00  0.00     0.011 A 
HETATM   31  C   UNL     1      15.486  51.237  43.927  1.00  0.00     0.037 A 
HETATM   32  C   UNL     1      16.782  51.740  44.098  1.00  0.00     0.102 A 
HETATM   33  C   UNL     1      17.525  51.402  45.235  1.00  0.00     0.037 A 
HETATM   34  C   UNL     1      16.967  50.562  46.203  1.00  0.00     0.011 A 
BRANCH  32  35
HETATM   35  N   UNL     1      17.365  52.623  43.079  1.00  0.00    -0.116 N 
HETATM   36  O   UNL     1      18.090  52.104  42.222  1.00  0.00    -0.532 OA
HETATM   37  O   UNL     1      17.108  53.831  43.162  1.00  0.00    -0.532 OA
ENDBRANCH  32  35
ENDBRANCH  28  29
ENDBRANCH  24  28
ENDBRANCH   1  20
TORSDOF 8
ENDMDL
MODEL 6
REMARK VINA RESULT:      -8.1     12.811     14.151
REMARK  8 active torsions:
REMARK  status: ('A' for Active; 'I' for Inactive)
REMARK    1  A    between atoms: O_2  and  C_3 
REMARK    2  A    between atoms: C_3  and  C_4 
REMARK    3  A    between atoms: C_9  and  N_10 
REMARK       I    between atoms: N_10  and  C_11 
REMARK    4  A    between atoms: C_11  and  C_12 
REMARK    5  A    between atoms: C_12  and  N_13 
REMARK    6  A    between atoms: N_17  and  C_19 
REMARK    7  A    between atoms: C_19  and  C_20 
REMARK    8  A    between atoms: C_23  and  N_24 
ROOT
HETATM    1  C   UNL     1      31.893  49.108  41.995  1.00  0.00     0.337 C 
ENDROOT
BRANCH   1   2
HETATM    2  C   UNL     1      32.126  48.095  40.883  1.00  0.00     0.248 C 
HETATM    3  N   UNL     1      31.237  47.930  39.869  1.00  0.00    -0.323 N 
HETATM    4  H   UNL     1      31.382  47.067  39.333  1.00  0.00     0.169 HD
HETATM    5  O   UNL     1      33.094  47.339  41.021  1.00  0.00    -0.271 OA
BRANCH   3   6
HETATM    6  C   UNL     1      30.047  48.600  39.602  1.00  0.00     0.080 C 
HETATM    7  C   UNL     1      28.822  48.013  39.895  1.00  0.00     0.136 C 
HETATM    8  N   UNL     1      27.849  48.950  39.642  1.00  0.00    -0.349 N 
HETATM    9  H   UNL     1      26.856  48.788  39.771  1.00  0.00     0.166 HD
HETATM   10  C   UNL     1      28.404  50.102  39.143  1.00  0.00     0.045 A 
HETATM   11  C   UNL     1      29.774  49.874  38.999  1.00  0.00     0.020 A 
HETATM   12  C   UNL     1      27.777  51.292  38.754  1.00  0.00     0.030 A 
HETATM   13  C   UNL     1      30.519  50.850  38.296  1.00  0.00     0.016 A 
HETATM   14  C   UNL     1      29.909  52.045  37.891  1.00  0.00     0.001 A 
HETATM   15  C   UNL     1      28.560  52.270  38.142  1.00  0.00     0.002 A 
BRANCH   7  16
HETATM   16  C   UNL     1      28.554  46.690  40.408  1.00  0.00     0.312 C 
HETATM   17  O   UNL     1      27.659  46.439  41.203  1.00  0.00    -0.258 OA
BRANCH  16  18
HETATM   18  O   UNL     1      29.422  45.797  39.867  1.00  0.00    -0.321 OA
HETATM   19  C   UNL     1      28.798  44.766  39.096  1.00  0.00     0.213 C 
ENDBRANCH  16  18
ENDBRANCH   7  16
ENDBRANCH   3   6
ENDBRANCH   1   2
BRANCH   1  20
HETATM   20  N   UNL     1      32.096  50.552  41.462  1.00  0.00    -0.060 N 
HETATM   21  H   UNL     1      31.209  50.710  40.935  1.00  0.00     0.280 HD
HETATM   22  C   UNL     1      33.207  50.681  40.432  1.00  0.00     0.263 C 
HETATM   23  C   UNL     1      34.609  50.622  41.090  1.00  0.00     0.263 C 
HETATM   24  N   UNL     1      34.745  51.579  42.281  1.00  0.00    -0.064 N 
HETATM   25  H   UNL     1      34.810  52.538  41.904  1.00  0.00     0.280 HD
HETATM   26  C   UNL     1      33.569  51.528  43.260  1.00  0.00     0.263 C 
HETATM   27  C   UNL     1      32.200  51.602  42.541  1.00  0.00     0.263 C 
BRANCH  24  28
HETATM   28  C   UNL     1      36.059  51.369  43.040  1.00  0.00     0.273 C 
BRANCH  28  29
HETATM   29  C   UNL     1      36.732  52.651  43.450  1.00  0.00    -0.032 A 
HETATM   30  C   UNL     1      36.921  52.951  44.809  1.00  0.00     0.011 A 
HETATM   31  C   UNL     1      37.552  54.139  45.194  1.00  0.00     0.037 A 
HETATM   32  C   UNL     1      37.991  55.041  44.216  1.00  0.00     0.102 A 
HETATM   33  C   UNL     1      37.806  54.757  42.859  1.00  0.00     0.037 A 
HETATM   34  C   UNL     1      37.183  53.563  42.480  1.00  0.00     0.011 A 
BRANCH  32  35
HETATM   35  N   UNL     1      38.647  56.294  44.617  1.00  0.00    -0.116 N 
HETATM   36  O   UNL     1      39.157  56.981  43.724  1.00  0.00    -0.532 OA
HETATM   37  O   UNL     1      38.662  56.564  45.825  1.00  0.00    -0.532 OA
ENDBRANCH  32  35
ENDBRANCH  28  29
ENDBRANCH  24  28
ENDBRANCH   1  20
TORSDOF 8
ENDMDL
MODEL 7
REMARK VINA RESULT:      -8.1     11.383     14.977
REMARK  8 active torsions:
REMARK  status: ('A' for Active; 'I' for Inactive)
REMARK    1  A    between atoms: O_2  and  C_3 
REMARK    2  A    between atoms: C_3  and  C_4 
REMARK    3  A    between atoms: C_9  and  N_10 
REMARK       I    between atoms: N_10  and  C_11 
REMARK    4  A    between atoms: C_11  and  C_12 
REMARK    5  A    between atoms: C_12  and  N_13 
REMARK    6  A    between atoms: N_17  and  C_19 
REMARK    7  A    between atoms: C_19  and  C_20 
REMARK    8  A    between atoms: C_23  and  N_24 
ROOT
HETATM    1  C   UNL     1      33.496  49.904  41.772  1.00  0.00     0.337 C 
ENDROOT
BRANCH   1   2
HETATM    2  C   UNL     1      33.124  51.201  42.475  1.00  0.00     0.248 C 
HETATM    3  N   UNL     1      32.433  52.184  41.841  1.00  0.00    -0.323 N 
HETATM    4  H   UNL     1      32.459  53.085  42.331  1.00  0.00     0.169 HD
HETATM    5  O   UNL     1      33.595  51.371  43.605  1.00  0.00    -0.271 OA
BRANCH   3   6
HETATM    6  C   UNL     1      31.916  52.227  40.550  1.00  0.00     0.080 C 
HETATM    7  C   UNL     1      32.759  52.357  39.453  1.00  0.00     0.136 C 
HETATM    8  N   UNL     1      31.983  52.244  38.325  1.00  0.00    -0.349 N 
HETATM    9  H   UNL     1      32.343  52.302  37.378  1.00  0.00     0.166 HD
HETATM   10  C   UNL     1      30.660  52.101  38.660  1.00  0.00     0.045 A 
HETATM   11  C   UNL     1      30.570  52.200  40.050  1.00  0.00     0.020 A 
HETATM   12  C   UNL     1      29.545  51.958  37.826  1.00  0.00     0.030 A 
HETATM   13  C   UNL     1      29.273  52.299  40.607  1.00  0.00     0.016 A 
HETATM   14  C   UNL     1      28.144  52.166  39.789  1.00  0.00     0.001 A 
HETATM   15  C   UNL     1      28.283  51.973  38.419  1.00  0.00     0.002 A 
BRANCH   7  16
HETATM   16  C   UNL     1      34.192  52.539  39.432  1.00  0.00     0.312 C 
HETATM   17  O   UNL     1      34.764  53.488  39.950  1.00  0.00    -0.258 OA
BRANCH  16  18
HETATM   18  O   UNL     1      34.781  51.507  38.774  1.00  0.00    -0.321 OA
HETATM   19  C   UNL     1      36.053  51.125  39.305  1.00  0.00     0.213 C 
ENDBRANCH  16  18
ENDBRANCH   7  16
ENDBRANCH   3   6
ENDBRANCH   1   2
BRANCH   1  20
HETATM   20  N   UNL     1      32.735  48.707  42.405  1.00  0.00    -0.060 N 
HETATM   21  H   UNL     1      33.341  48.479  43.224  1.00  0.00     0.280 HD
HETATM   22  C   UNL     1      32.729  47.454  41.545  1.00  0.00     0.263 C 
HETATM   23  C   UNL     1      31.742  47.578  40.357  1.00  0.00     0.263 C 
HETATM   24  N   UNL     1      30.347  48.047  40.792  1.00  0.00    -0.064 N 
HETATM   25  H   UNL     1      29.888  47.256  41.269  1.00  0.00     0.280 HD
HETATM   26  C   UNL     1      30.361  49.242  41.749  1.00  0.00     0.263 C 
HETATM   27  C   UNL     1      31.357  49.050  42.918  1.00  0.00     0.263 C 
BRANCH  24  28
HETATM   28  C   UNL     1      29.444  48.355  39.592  1.00  0.00     0.273 C 
BRANCH  28  29
HETATM   29  C   UNL     1      27.990  48.058  39.838  1.00  0.00    -0.032 A 
HETATM   30  C   UNL     1      26.994  48.736  39.115  1.00  0.00     0.011 A 
HETATM   31  C   UNL     1      25.641  48.458  39.337  1.00  0.00     0.037 A 
HETATM   32  C   UNL     1      25.275  47.502  40.294  1.00  0.00     0.102 A 
HETATM   33  C   UNL     1      26.257  46.822  41.023  1.00  0.00     0.037 A 
HETATM   34  C   UNL     1      27.608  47.098  40.790  1.00  0.00     0.011 A 
BRANCH  32  35
HETATM   35  N   UNL     1      23.855  47.213  40.535  1.00  0.00    -0.116 N 
HETATM   36  O   UNL     1      23.543  46.038  40.761  1.00  0.00    -0.532 OA
HETATM   37  O   UNL     1      23.065  48.165  40.474  1.00  0.00    -0.532 OA
ENDBRANCH  32  35
ENDBRANCH  28  29
ENDBRANCH  24  28
ENDBRANCH   1  20
TORSDOF 8
ENDMDL
MODEL 8
REMARK VINA RESULT:      -8.1      4.358     10.715
REMARK  8 active torsions:
REMARK  status: ('A' for Active; 'I' for Inactive)
REMARK    1  A    between atoms: O_2  and  C_3 
REMARK    2  A    between atoms: C_3  and  C_4 
REMARK    3  A    between atoms: C_9  and  N_10 
REMARK       I    between atoms: N_10  and  C_11 
REMARK    4  A    between atoms: C_11  and  C_12 
REMARK    5  A    between atoms: C_12  and  N_13 
REMARK    6  A    between atoms: N_17  and  C_19 
REMARK    7  A    between atoms: C_19  and  C_20 
REMARK    8  A    between atoms: C_23  and  N_24 
ROOT
HETATM    1  C   UNL     1      20.714  46.436  47.169  1.00  0.00     0.337 C 
ENDROOT
BRANCH   1   2
HETATM    2  C   UNL     1      21.060  45.600  48.392  1.00  0.00     0.248 C 
HETATM    3  N   UNL     1      22.078  45.940  49.225  1.00  0.00    -0.323 N 
HETATM    4  H   UNL     1      22.362  45.182  49.856  1.00  0.00     0.169 HD
HETATM    5  O   UNL     1      20.458  44.528  48.515  1.00  0.00    -0.271 OA
BRANCH   3   6
HETATM    6  C   UNL     1      22.935  47.037  49.193  1.00  0.00     0.080 C 
HETATM    7  C   UNL     1      24.302  46.873  49.379  1.00  0.00     0.136 C 
HETATM    8  N   UNL     1      24.892  48.096  49.171  1.00  0.00    -0.349 N 
HETATM    9  H   UNL     1      25.889  48.267  49.243  1.00  0.00     0.166 HD
HETATM   10  C   UNL     1      23.943  49.053  48.912  1.00  0.00     0.045 A 
HETATM   11  C   UNL     1      22.693  48.442  49.030  1.00  0.00     0.020 A 
HETATM   12  C   UNL     1      24.109  50.418  48.648  1.00  0.00     0.030 A 
HETATM   13  C   UNL     1      21.558  49.287  49.019  1.00  0.00     0.016 A 
HETATM   14  C   UNL     1      21.703  50.657  48.764  1.00  0.00     0.001 A 
HETATM   15  C   UNL     1      22.963  51.208  48.557  1.00  0.00     0.002 A 
BRANCH   7  16
HETATM   16  C   UNL     1      25.033  45.668  49.694  1.00  0.00     0.312 C 
HETATM   17  O   UNL     1      26.120  45.387  49.207  1.00  0.00    -0.258 OA
BRANCH  16  18
HETATM   18  O   UNL     1      24.345  44.930  50.603  1.00  0.00    -0.321 OA
HETATM   19  C   UNL     1      24.769  45.122  51.956  1.00  0.00     0.213 C 
ENDBRANCH  16  18
ENDBRANCH   7  16
ENDBRANCH   3   6
ENDBRANCH   1   2
BRANCH   1  20
HETATM   20  N   UNL     1      19.179  46.442  46.934  1.00  0.00    -0.060 N 
HETATM   21  H   UNL     1      18.973  45.422  46.852  1.00  0.00     0.280 HD
HETATM   22  C   UNL     1      18.760  47.047  45.603  1.00  0.00     0.263 C 
HETATM   23  C   UNL     1      18.862  48.593  45.619  1.00  0.00     0.263 C 
HETATM   24  N   UNL     1      18.172  49.220  46.837  1.00  0.00    -0.064 N 
HETATM   25  H   UNL     1      17.154  49.152  46.688  1.00  0.00     0.280 HD
HETATM   26  C   UNL     1      18.510  48.537  48.166  1.00  0.00     0.263 C 
HETATM   27  C   UNL     1      18.377  46.997  48.086  1.00  0.00     0.263 C 
BRANCH  24  28
HETATM   28  C   UNL     1      18.450  50.724  46.944  1.00  0.00     0.273 C 
BRANCH  28  29
HETATM   29  C   UNL     1      17.547  51.438  47.913  1.00  0.00    -0.032 A 
HETATM   30  C   UNL     1      16.152  51.382  47.758  1.00  0.00     0.011 A 
HETATM   31  C   UNL     1      15.309  52.040  48.660  1.00  0.00     0.037 A 
HETATM   32  C   UNL     1      15.861  52.767  49.723  1.00  0.00     0.102 A 
HETATM   33  C   UNL     1      17.249  52.833  49.888  1.00  0.00     0.037 A 
HETATM   34  C   UNL     1      18.086  52.166  48.987  1.00  0.00     0.011 A 
BRANCH  32  35
HETATM   35  N   UNL     1      14.979  53.466  50.668  1.00  0.00    -0.116 N 
HETATM   36  O   UNL     1      15.367  54.554  51.111  1.00  0.00    -0.532 OA
HETATM   37  O   UNL     1      13.917  52.907  50.972  1.00  0.00    -0.532 OA
ENDBRANCH  32  35
ENDBRANCH  28  29
ENDBRANCH  24  28
ENDBRANCH   1  20
TORSDOF 8
ENDMDL
MODEL 9
REMARK VINA RESULT:      -8.0      5.592     10.765
REMARK  8 active torsions:
REMARK  status: ('A' for Active; 'I' for Inactive)
REMARK    1  A    between atoms: O_2  and  C_3 
REMARK    2  A    between atoms: C_3  and  C_4 
REMARK    3  A    between atoms: C_9  and  N_10 
REMARK       I    between atoms: N_10  and  C_11 
REMARK    4  A    between atoms: C_11  and  C_12 
REMARK    5  A    between atoms: C_12  and  N_13 
REMARK    6  A    between atoms: N_17  and  C_19 
REMARK    7  A    between atoms: C_19  and  C_20 
REMARK    8  A    between atoms: C_23  and  N_24 
ROOT
HETATM    1  C   UNL     1      21.162  46.578  47.516  1.00  0.00     0.337 C 
ENDROOT
BRANCH   1   2
HETATM    2  C   UNL     1      22.227  46.528  48.601  1.00  0.00     0.248 C 
HETATM    3  N   UNL     1      22.691  47.656  49.199  1.00  0.00    -0.323 N 
HETATM    4  H   UNL     1      23.562  47.514  49.723  1.00  0.00     0.169 HD
HETATM    5  O   UNL     1      22.744  45.426  48.815  1.00  0.00    -0.271 OA
BRANCH   3   6
HETATM    6  C   UNL     1      22.319  48.985  49.018  1.00  0.00     0.080 C 
HETATM    7  C   UNL     1      23.241  49.923  48.569  1.00  0.00     0.136 C 
HETATM    8  N   UNL     1      22.561  51.101  48.370  1.00  0.00    -0.349 N 
HETATM    9  H   UNL     1      22.993  51.959  48.042  1.00  0.00     0.166 HD
HETATM   10  C   UNL     1      21.243  50.965  48.729  1.00  0.00     0.045 A 
HETATM   11  C   UNL     1      21.084  49.679  49.247  1.00  0.00     0.020 A 
HETATM   12  C   UNL     1      20.212  51.911  48.687  1.00  0.00     0.030 A 
HETATM   13  C   UNL     1      19.853  49.388  49.882  1.00  0.00     0.016 A 
HETATM   14  C   UNL     1      18.811  50.323  49.859  1.00  0.00     0.001 A 
HETATM   15  C   UNL     1      18.984  51.559  49.246  1.00  0.00     0.002 A 
BRANCH   7  16
HETATM   16  C   UNL     1      24.650  49.751  48.304  1.00  0.00     0.312 C 
HETATM   17  O   UNL     1      25.202  50.141  47.285  1.00  0.00    -0.258 OA
BRANCH  16  18
HETATM   18  O   UNL     1      25.245  49.118  49.348  1.00  0.00    -0.321 OA
HETATM   19  C   UNL     1      26.614  48.769  49.119  1.00  0.00     0.213 C 
ENDBRANCH  16  18
ENDBRANCH   7  16
ENDBRANCH   3   6
ENDBRANCH   1   2
BRANCH   1  20
HETATM   20  N   UNL     1      20.380  45.238  47.462  1.00  0.00    -0.060 N 
HETATM   21  H   UNL     1      21.023  44.597  47.977  1.00  0.00     0.280 HD
HETATM   22  C   UNL     1      20.256  44.650  46.065  1.00  0.00     0.263 C 
HETATM   23  C   UNL     1      19.207  45.409  45.214  1.00  0.00     0.263 C 
HETATM   24  N   UNL     1      17.867  45.582  45.942  1.00  0.00    -0.064 N 
HETATM   25  H   UNL     1      17.397  44.663  45.952  1.00  0.00     0.280 HD
HETATM   26  C   UNL     1      18.001  46.068  47.388  1.00  0.00     0.263 C 
HETATM   27  C   UNL     1      19.055  45.263  48.185  1.00  0.00     0.263 C 
BRANCH  24  28
HETATM   28  C   UNL     1      16.910  46.500  45.174  1.00  0.00     0.273 C 
BRANCH  28  29
HETATM   29  C   UNL     1      16.618  47.795  45.881  1.00  0.00    -0.032 A 
HETATM   30  C   UNL     1      15.464  47.929  46.672  1.00  0.00     0.011 A 
HETATM   31  C   UNL     1      15.192  49.130  47.335  1.00  0.00     0.037 A 
HETATM   32  C   UNL     1      16.073  50.212  47.204  1.00  0.00     0.102 A 
HETATM   33  C   UNL     1      17.223  50.093  46.417  1.00  0.00     0.037 A 
HETATM   34  C   UNL     1      17.495  48.887  45.763  1.00  0.00     0.011 A 
BRANCH  32  35
HETATM   35  N   UNL     1      15.786  51.478  47.893  1.00  0.00    -0.116 N 
HETATM   36  O   UNL     1      15.433  51.415  49.077  1.00  0.00    -0.532 OA
HETATM   37  O   UNL     1      15.897  52.519  47.233  1.00  0.00    -0.532 OA
ENDBRANCH  32  35
ENDBRANCH  28  29
ENDBRANCH  24  28
ENDBRANCH   1  20
TORSDOF 8
ENDMDL
MODEL 10
REMARK VINA RESULT:      -8.0      7.278     12.558
REMARK  8 active torsions:
REMARK  status: ('A' for Active; 'I' for Inactive)
REMARK    1  A    between atoms: O_2  and  C_3 
REMARK    2  A    between atoms: C_3  and  C_4 
REMARK    3  A    between atoms: C_9  and  N_10 
REMARK       I    between atoms: N_10  and  C_11 
REMARK    4  A    between atoms: C_11  and  C_12 
REMARK    5  A    between atoms: C_12  and  N_13 
REMARK    6  A    between atoms: N_17  and  C_19 
REMARK    7  A    between atoms: C_19  and  C_20 
REMARK    8  A    between atoms: C_23  and  N_24 
ROOT
HETATM    1  C   UNL     1      17.888  49.551  49.247  1.00  0.00     0.337 C 
ENDROOT
BRANCH   1   2
HETATM    2  C   UNL     1      18.865  48.954  50.250  1.00  0.00     0.248 C 
HETATM    3  N   UNL     1      19.786  48.025  49.883  1.00  0.00    -0.323 N 
HETATM    4  H   UNL     1      20.209  47.532  50.677  1.00  0.00     0.169 HD
HETATM    5  O   UNL     1      18.691  49.257  51.435  1.00  0.00    -0.271 OA
BRANCH   3   6
HETATM    6  C   UNL     1      20.062  47.480  48.632  1.00  0.00     0.080 C 
HETATM    7  C   UNL     1      21.198  47.861  47.929  1.00  0.00     0.136 C 
HETATM    8  N   UNL     1      21.265  47.074  46.804  1.00  0.00    -0.349 N 
HETATM    9  H   UNL     1      21.999  47.139  46.107  1.00  0.00     0.166 HD
HETATM   10  C   UNL     1      20.179  46.237  46.734  1.00  0.00     0.045 A 
HETATM   11  C   UNL     1      19.345  46.547  47.810  1.00  0.00     0.020 A 
HETATM   12  C   UNL     1      19.856  45.284  45.760  1.00  0.00     0.030 A 
HETATM   13  C   UNL     1      18.058  45.960  47.818  1.00  0.00     0.016 A 
HETATM   14  C   UNL     1      17.712  45.009  46.849  1.00  0.00     0.001 A 
HETATM   15  C   UNL     1      18.612  44.660  45.849  1.00  0.00     0.002 A 
BRANCH   7  16
HETATM   16  C   UNL     1      22.184  48.858  48.275  1.00  0.00     0.312 C 
HETATM   17  O   UNL     1      23.382  48.629  48.354  1.00  0.00    -0.258 OA
BRANCH  16  18
HETATM   18  O   UNL     1      21.580  50.058  48.476  1.00  0.00    -0.321 OA
HETATM   19  C   UNL     1      22.105  50.800  49.581  1.00  0.00     0.213 C 
ENDBRANCH  16  18
ENDBRANCH   7  16
ENDBRANCH   3   6
ENDBRANCH   1   2
BRANCH   1  20
HETATM   20  N   UNL     1      18.462  50.861  48.645  1.00  0.00    -0.060 N 
HETATM   21  H   UNL     1      19.441  50.580  48.420  1.00  0.00     0.280 HD
HETATM   22  C   UNL     1      18.588  51.998  49.647  1.00  0.00     0.263 C 
HETATM   23  C   UNL     1      17.212  52.634  49.970  1.00  0.00     0.263 C 
HETATM   24  N   UNL     1      16.416  52.996  48.709  1.00  0.00    -0.064 N 
HETATM   25  H   UNL     1      16.857  53.829  48.291  1.00  0.00     0.280 HD
HETATM   26  C   UNL     1      16.384  51.888  47.653  1.00  0.00     0.263 C 
HETATM   27  C   UNL     1      17.789  51.304  47.368  1.00  0.00     0.263 C 
BRANCH  24  28
HETATM   28  C   UNL     1      14.986  53.437  49.039  1.00  0.00     0.273 C 
BRANCH  28  29
HETATM   29  C   UNL     1      14.908  54.473  50.127  1.00  0.00    -0.032 A 
HETATM   30  C   UNL     1      15.300  55.798  49.876  1.00  0.00     0.011 A 
HETATM   31  C   UNL     1      15.223  56.766  50.884  1.00  0.00     0.037 A 
HETATM   32  C   UNL     1      14.760  56.408  52.157  1.00  0.00     0.102 A 
HETATM   33  C   UNL     1      14.371  55.090  52.422  1.00  0.00     0.037 A 
HETATM   34  C   UNL     1      14.441  54.130  51.408  1.00  0.00     0.011 A 
BRANCH  32  35
HETATM   35  N   UNL     1      14.686  57.420  53.220  1.00  0.00    -0.116 N 
HETATM   36  O   UNL     1      13.747  57.337  54.021  1.00  0.00    -0.532 OA
HETATM   37  O   UNL     1      15.559  58.298  53.228  1.00  0.00    -0.532 OA
ENDBRANCH  32  35
ENDBRANCH  28  29
ENDBRANCH  24  28
ENDBRANCH   1  20
TORSDOF 8
ENDMDL
