MODEL 1
REMARK VINA RESULT:     -10.6      0.000      0.000
REMARK  3 active torsions:
REMARK  status: ('A' for Active; 'I' for Inactive)
REMARK    1  A    between atoms: C_2  and  N_3 
REMARK    2  A    between atoms: C_8  and  C_9 
REMARK       I    between atoms: C_9  and  N_10 
REMARK    3  A    between atoms: N_10  and  C_11 
ROOT
HETATM    1  C   UNL     1      24.518  45.388  50.331  1.00  0.00     0.036 A 
HETATM    2  C   UNL     1      25.270  45.313  51.502  1.00  0.00     0.049 A 
HETATM    3  C   UNL     1      25.995  44.153  51.836  1.00  0.00     0.061 A 
HETATM    4  C   UNL     1      25.987  43.055  50.967  1.00  0.00     0.050 A 
HETATM    5  N   UNL     1      26.755  41.886  51.106  1.00  0.00    -0.324 N 
HETATM    6  C   UNL     1      27.986  41.743  51.691  1.00  0.00     0.245 C 
HETATM    7  O   UNL     1      28.580  40.673  51.536  1.00  0.00    -0.271 OA
HETATM    8  C   UNL     1      28.639  42.971  52.326  1.00  0.00     0.180 C 
HETATM    9  N   UNL     1      27.794  43.503  53.381  1.00  0.00    -0.334 N 
HETATM   10  C   UNL     1      26.596  44.145  53.193  1.00  0.00     0.256 C 
HETATM   11  O   UNL     1      26.007  44.715  54.109  1.00  0.00    -0.267 OA
HETATM   12  C   UNL     1      29.964  42.646  53.028  1.00  0.00     0.037 C 
HETATM   13  C   UNL     1      29.967  43.575  54.235  1.00  0.00     0.022 C 
HETATM   14  C   UNL     1      28.504  43.589  54.645  1.00  0.00     0.127 C 
HETATM   15  C   UNL     1      25.153  43.100  49.840  1.00  0.00     0.033 A 
HETATM   16  C   UNL     1      24.424  44.254  49.525  1.00  0.00     0.032 A 
HETATM   17  H   UNL     1      26.511  41.080  50.542  1.00  0.00     0.169 HD
ENDROOT
BRANCH   1  18
HETATM   18  N   UNL     1      23.820  46.547  49.927  1.00  0.00    -0.323 N 
HETATM   19  C   UNL     1      24.401  47.736  49.514  1.00  0.00     0.256 C 
HETATM   20  O   UNL     1      25.604  47.930  49.375  1.00  0.00    -0.267 OA
HETATM   21  H   UNL     1      22.814  46.473  49.903  1.00  0.00     0.169 HD
BRANCH  19  22
HETATM   22  C   UNL     1      23.475  48.868  49.206  1.00  0.00     0.034 A 
HETATM   23  C   UNL     1      23.911  50.123  48.774  1.00  0.00     0.018 A 
HETATM   24  C   UNL     1      22.985  51.143  48.502  1.00  0.00     0.015 A 
HETATM   25  C   UNL     1      21.607  50.905  48.678  1.00  0.00    -0.008 A 
HETATM   26  C   UNL     1      21.187  49.654  49.132  1.00  0.00     0.045 A 
HETATM   27  C   UNL     1      20.443  51.695  48.489  1.00  0.00     0.031 A 
HETATM   28  N   UNL     1      19.806  49.692  49.228  1.00  0.00    -0.352 N 
HETATM   29  C   UNL     1      22.104  48.625  49.400  1.00  0.00     0.047 A 
HETATM   30  C   UNL     1      19.353  50.922  48.818  1.00  0.00     0.092 A 
BRANCH  28  31
HETATM   31  C   UNL     1      18.963  48.569  49.643  1.00  0.00     0.081 C 
HETATM   32  C   UNL     1      17.733  48.459  48.744  1.00  0.00     0.032 C 
HETATM   33  C   UNL     1      18.566  48.621  51.122  1.00  0.00     0.032 C 
ENDBRANCH  28  31
ENDBRANCH  19  22
ENDBRANCH   1  18
TORSDOF 3
ENDMDL
MODEL 2
REMARK VINA RESULT:     -10.4      2.208      9.541
REMARK  3 active torsions:
REMARK  status: ('A' for Active; 'I' for Inactive)
REMARK    1  A    between atoms: C_2  and  N_3 
REMARK    2  A    between atoms: C_8  and  C_9 
REMARK       I    between atoms: C_9  and  N_10 
REMARK    3  A    between atoms: N_10  and  C_11 
ROOT
HETATM    1  C   UNL     1      24.673  45.652  49.682  1.00  0.00     0.036 A 
HETATM    2  C   UNL     1      24.285  46.985  49.813  1.00  0.00     0.049 A 
HETATM    3  C   UNL     1      23.174  47.497  49.118  1.00  0.00     0.061 A 
HETATM    4  C   UNL     1      22.418  46.653  48.296  1.00  0.00     0.050 A 
HETATM    5  N   UNL     1      21.220  46.990  47.642  1.00  0.00    -0.324 N 
HETATM    6  C   UNL     1      20.264  47.891  48.033  1.00  0.00     0.245 C 
HETATM    7  O   UNL     1      19.192  47.898  47.424  1.00  0.00    -0.271 OA
HETATM    8  C   UNL     1      20.496  48.690  49.316  1.00  0.00     0.180 C 
HETATM    9  N   UNL     1      21.714  49.475  49.208  1.00  0.00    -0.334 N 
HETATM   10  C   UNL     1      22.989  48.968  49.206  1.00  0.00     0.256 C 
HETATM   11  O   UNL     1      23.982  49.689  49.275  1.00  0.00    -0.267 OA
HETATM   12  C   UNL     1      19.397  49.728  49.579  1.00  0.00     0.037 C 
HETATM   13  C   UNL     1      20.150  50.896  50.204  1.00  0.00     0.022 C 
HETATM   14  C   UNL     1      21.466  50.885  49.443  1.00  0.00     0.127 C 
HETATM   15  C   UNL     1      22.868  45.339  48.093  1.00  0.00     0.033 A 
HETATM   16  C   UNL     1      23.985  44.843  48.778  1.00  0.00     0.032 A 
HETATM   17  H   UNL     1      20.880  46.374  46.912  1.00  0.00     0.169 HD
ENDROOT
BRANCH   1  18
HETATM   18  N   UNL     1      25.745  45.080  50.399  1.00  0.00    -0.323 N 
HETATM   19  C   UNL     1      25.645  44.428  51.619  1.00  0.00     0.256 C 
HETATM   20  O   UNL     1      24.600  44.195  52.218  1.00  0.00    -0.267 OA
HETATM   21  H   UNL     1      26.649  45.119  49.953  1.00  0.00     0.169 HD
BRANCH  19  22
HETATM   22  C   UNL     1      26.921  43.966  52.245  1.00  0.00     0.034 A 
HETATM   23  C   UNL     1      27.698  42.926  51.730  1.00  0.00     0.018 A 
HETATM   24  C   UNL     1      28.888  42.543  52.369  1.00  0.00     0.015 A 
HETATM   25  C   UNL     1      29.297  43.203  53.545  1.00  0.00    -0.008 A 
HETATM   26  C   UNL     1      28.499  44.225  54.062  1.00  0.00     0.045 A 
HETATM   27  C   UNL     1      30.417  43.071  54.406  1.00  0.00     0.031 A 
HETATM   28  N   UNL     1      29.115  44.689  55.212  1.00  0.00    -0.352 N 
HETATM   29  C   UNL     1      27.310  44.621  53.426  1.00  0.00     0.047 A 
HETATM   30  C   UNL     1      30.289  44.004  55.410  1.00  0.00     0.092 A 
BRANCH  28  31
HETATM   31  C   UNL     1      28.617  45.784  56.048  1.00  0.00     0.081 C 
HETATM   32  C   UNL     1      28.543  47.081  55.245  1.00  0.00     0.032 C 
HETATM   33  C   UNL     1      29.417  45.975  57.339  1.00  0.00     0.032 C 
ENDBRANCH  28  31
ENDBRANCH  19  22
ENDBRANCH   1  18
TORSDOF 3
ENDMDL
MODEL 3
REMARK VINA RESULT:      -9.2      1.775      2.802
REMARK  3 active torsions:
REMARK  status: ('A' for Active; 'I' for Inactive)
REMARK    1  A    between atoms: C_2  and  N_3 
REMARK    2  A    between atoms: C_8  and  C_9 
REMARK       I    between atoms: C_9  and  N_10 
REMARK    3  A    between atoms: N_10  and  C_11 
ROOT
HETATM    1  C   UNL     1      24.891  46.820  51.115  1.00  0.00     0.036 A 
HETATM    2  C   UNL     1      25.487  45.666  50.608  1.00  0.00     0.049 A 
HETATM    3  C   UNL     1      26.489  44.983  51.322  1.00  0.00     0.061 A 
HETATM    4  C   UNL     1      26.885  45.448  52.582  1.00  0.00     0.050 A 
HETATM    5  N   UNL     1      27.778  44.805  53.458  1.00  0.00    -0.324 N 
HETATM    6  C   UNL     1      28.016  43.462  53.592  1.00  0.00     0.245 C 
HETATM    7  O   UNL     1      28.690  43.088  54.555  1.00  0.00    -0.271 OA
HETATM    8  C   UNL     1      27.274  42.494  52.671  1.00  0.00     0.180 C 
HETATM    9  N   UNL     1      27.585  42.781  51.281  1.00  0.00    -0.334 N 
HETATM   10  C   UNL     1      27.163  43.885  50.584  1.00  0.00     0.256 C 
HETATM   11  O   UNL     1      27.321  43.993  49.369  1.00  0.00    -0.267 OA
HETATM   12  C   UNL     1      27.709  41.035  52.864  1.00  0.00     0.037 C 
HETATM   13  C   UNL     1      27.642  40.453  51.458  1.00  0.00     0.022 C 
HETATM   14  C   UNL     1      28.110  41.614  50.597  1.00  0.00     0.127 C 
HETATM   15  C   UNL     1      26.352  46.661  53.044  1.00  0.00     0.033 A 
HETATM   16  C   UNL     1      25.366  47.341  52.319  1.00  0.00     0.032 A 
HETATM   17  H   UNL     1      28.149  45.333  54.239  1.00  0.00     0.169 HD
ENDROOT
BRANCH   1  18
HETATM   18  N   UNL     1      23.846  47.507  50.462  1.00  0.00    -0.323 N 
HETATM   19  C   UNL     1      24.000  48.589  49.608  1.00  0.00     0.256 C 
HETATM   20  O   UNL     1      25.072  49.061  49.244  1.00  0.00    -0.267 OA
HETATM   21  H   UNL     1      22.916  47.142  50.607  1.00  0.00     0.169 HD
BRANCH  19  22
HETATM   22  C   UNL     1      22.750  49.220  49.087  1.00  0.00     0.034 A 
HETATM   23  C   UNL     1      22.598  50.598  48.915  1.00  0.00     0.018 A 
HETATM   24  C   UNL     1      21.395  51.125  48.419  1.00  0.00     0.015 A 
HETATM   25  C   UNL     1      20.327  50.261  48.104  1.00  0.00    -0.008 A 
HETATM   26  C   UNL     1      20.485  48.888  48.302  1.00  0.00     0.045 A 
HETATM   27  C   UNL     1      19.020  50.462  47.590  1.00  0.00     0.031 A 
HETATM   28  N   UNL     1      19.298  48.278  47.930  1.00  0.00    -0.352 N 
HETATM   29  C   UNL     1      21.686  48.350  48.791  1.00  0.00     0.047 A 
HETATM   30  C   UNL     1      18.417  49.230  47.478  1.00  0.00     0.092 A 
BRANCH  28  31
HETATM   31  C   UNL     1      19.052  46.835  47.958  1.00  0.00     0.081 C 
HETATM   32  C   UNL     1      19.536  46.182  46.665  1.00  0.00     0.032 C 
HETATM   33  C   UNL     1      17.593  46.473  48.250  1.00  0.00     0.032 C 
ENDBRANCH  28  31
ENDBRANCH  19  22
ENDBRANCH   1  18
TORSDOF 3
ENDMDL
MODEL 4
REMARK VINA RESULT:      -9.0      1.869      3.168
REMARK  3 active torsions:
REMARK  status: ('A' for Active; 'I' for Inactive)
REMARK    1  A    between atoms: C_2  and  N_3 
REMARK    2  A    between atoms: C_8  and  C_9 
REMARK       I    between atoms: C_9  and  N_10 
REMARK    3  A    between atoms: N_10  and  C_11 
ROOT
HETATM    1  C   UNL     1      24.427  46.147  50.378  1.00  0.00     0.036 A 
HETATM    2  C   UNL     1      25.195  44.993  50.231  1.00  0.00     0.049 A 
HETATM    3  C   UNL     1      26.276  44.716  51.089  1.00  0.00     0.061 A 
HETATM    4  C   UNL     1      26.578  45.598  52.134  1.00  0.00     0.050 A 
HETATM    5  N   UNL     1      27.541  45.393  53.137  1.00  0.00    -0.324 N 
HETATM    6  C   UNL     1      27.973  44.207  53.670  1.00  0.00     0.245 C 
HETATM    7  O   UNL     1      28.679  44.249  54.680  1.00  0.00    -0.271 OA
HETATM    8  C   UNL     1      27.397  42.905  53.112  1.00  0.00     0.180 C 
HETATM    9  N   UNL     1      27.685  42.793  51.692  1.00  0.00    -0.334 N 
HETATM   10  C   UNL     1      27.116  43.555  50.703  1.00  0.00     0.256 C 
HETATM   11  O   UNL     1      27.277  43.307  49.510  1.00  0.00    -0.267 OA
HETATM   12  C   UNL     1      28.041  41.656  53.729  1.00  0.00     0.037 C 
HETATM   13  C   UNL     1      28.084  40.666  52.572  1.00  0.00     0.022 C 
HETATM   14  C   UNL     1      28.389  41.562  51.382  1.00  0.00     0.127 C 
HETATM   15  C   UNL     1      25.863  46.803  52.219  1.00  0.00     0.033 A 
HETATM   16  C   UNL     1      24.799  47.076  51.350  1.00  0.00     0.032 A 
HETATM   17  H   UNL     1      27.817  46.184  53.708  1.00  0.00     0.169 HD
ENDROOT
BRANCH   1  18
HETATM   18  N   UNL     1      23.302  46.440  49.578  1.00  0.00    -0.323 N 
HETATM   19  C   UNL     1      23.119  47.596  48.834  1.00  0.00     0.256 C 
HETATM   20  O   UNL     1      23.939  48.501  48.711  1.00  0.00    -0.267 OA
HETATM   21  H   UNL     1      22.599  45.719  49.519  1.00  0.00     0.169 HD
BRANCH  19  22
HETATM   22  C   UNL     1      21.815  47.740  48.120  1.00  0.00     0.034 A 
HETATM   23  C   UNL     1      21.403  46.889  47.092  1.00  0.00     0.018 A 
HETATM   24  C   UNL     1      20.162  47.081  46.463  1.00  0.00     0.015 A 
HETATM   25  C   UNL     1      19.331  48.147  46.861  1.00  0.00    -0.008 A 
HETATM   26  C   UNL     1      19.765  49.004  47.874  1.00  0.00     0.045 A 
HETATM   27  C   UNL     1      18.051  48.601  46.449  1.00  0.00     0.031 A 
HETATM   28  N   UNL     1      18.778  49.957  48.060  1.00  0.00    -0.352 N 
HETATM   29  C   UNL     1      21.001  48.816  48.515  1.00  0.00     0.047 A 
HETATM   30  C   UNL     1      17.730  49.701  47.210  1.00  0.00     0.092 A 
BRANCH  28  31
HETATM   31  C   UNL     1      18.826  51.033  49.053  1.00  0.00     0.081 C 
HETATM   32  C   UNL     1      17.461  51.216  49.712  1.00  0.00     0.032 C 
HETATM   33  C   UNL     1      19.354  52.356  48.491  1.00  0.00     0.032 C 
ENDBRANCH  28  31
ENDBRANCH  19  22
ENDBRANCH   1  18
TORSDOF 3
ENDMDL
MODEL 5
REMARK VINA RESULT:      -8.9      2.084      2.616
REMARK  3 active torsions:
REMARK  status: ('A' for Active; 'I' for Inactive)
REMARK    1  A    between atoms: C_2  and  N_3 
REMARK    2  A    between atoms: C_8  and  C_9 
REMARK       I    between atoms: C_9  and  N_10 
REMARK    3  A    between atoms: N_10  and  C_11 
ROOT
HETATM    1  C   UNL     1      23.750  44.505  49.750  1.00  0.00     0.036 A 
HETATM    2  C   UNL     1      24.297  44.755  51.008  1.00  0.00     0.049 A 
HETATM    3  C   UNL     1      25.192  43.851  51.612  1.00  0.00     0.061 A 
HETATM    4  C   UNL     1      25.567  42.685  50.933  1.00  0.00     0.050 A 
HETATM    5  N   UNL     1      26.537  41.759  51.354  1.00  0.00    -0.324 N 
HETATM    6  C   UNL     1      27.656  41.986  52.111  1.00  0.00     0.245 C 
HETATM    7  O   UNL     1      28.485  41.078  52.205  1.00  0.00    -0.271 OA
HETATM    8  C   UNL     1      27.912  43.402  52.627  1.00  0.00     0.180 C 
HETATM    9  N   UNL     1      26.809  43.842  53.465  1.00  0.00    -0.334 N 
HETATM   10  C   UNL     1      25.548  44.152  53.021  1.00  0.00     0.256 C 
HETATM   11  O   UNL     1      24.706  44.671  53.751  1.00  0.00    -0.267 OA
HETATM   12  C   UNL     1      29.141  43.491  53.541  1.00  0.00     0.037 C 
HETATM   13  C   UNL     1      28.742  44.534  54.577  1.00  0.00     0.022 C 
HETATM   14  C   UNL     1      27.264  44.248  54.782  1.00  0.00     0.127 C 
HETATM   15  C   UNL     1      24.940  42.392  49.711  1.00  0.00     0.033 A 
HETATM   16  C   UNL     1      24.040  43.292  49.126  1.00  0.00     0.032 A 
HETATM   17  H   UNL     1      26.571  40.855  50.894  1.00  0.00     0.169 HD
ENDROOT
BRANCH   1  18
HETATM   18  N   UNL     1      22.894  45.406  49.082  1.00  0.00    -0.323 N 
HETATM   19  C   UNL     1      21.559  45.180  48.782  1.00  0.00     0.256 C 
HETATM   20  O   UNL     1      20.912  44.192  49.114  1.00  0.00    -0.267 OA
HETATM   21  H   UNL     1      23.290  46.303  48.846  1.00  0.00     0.169 HD
BRANCH  19  22
HETATM   22  C   UNL     1      20.856  46.237  47.994  1.00  0.00     0.034 A 
HETATM   23  C   UNL     1      20.539  46.105  46.640  1.00  0.00     0.018 A 
HETATM   24  C   UNL     1      19.876  47.139  45.960  1.00  0.00     0.015 A 
HETATM   25  C   UNL     1      19.538  48.325  46.643  1.00  0.00    -0.008 A 
HETATM   26  C   UNL     1      19.881  48.452  47.991  1.00  0.00     0.045 A 
HETATM   27  C   UNL     1      18.877  49.522  46.264  1.00  0.00     0.031 A 
HETATM   28  N   UNL     1      19.451  49.700  48.410  1.00  0.00    -0.352 N 
HETATM   29  C   UNL     1      20.538  47.421  48.682  1.00  0.00     0.047 A 
HETATM   30  C   UNL     1      18.823  50.341  47.369  1.00  0.00     0.092 A 
BRANCH  28  31
HETATM   31  C   UNL     1      19.591  50.222  49.771  1.00  0.00     0.081 C 
HETATM   32  C   UNL     1      18.703  49.443  50.739  1.00  0.00     0.032 C 
HETATM   33  C   UNL     1      19.335  51.729  49.872  1.00  0.00     0.032 C 
ENDBRANCH  28  31
ENDBRANCH  19  22
ENDBRANCH   1  18
TORSDOF 3
ENDMDL
MODEL 6
REMARK VINA RESULT:      -8.9      3.606      6.680
REMARK  3 active torsions:
REMARK  status: ('A' for Active; 'I' for Inactive)
REMARK    1  A    between atoms: C_2  and  N_3 
REMARK    2  A    between atoms: C_8  and  C_9 
REMARK       I    between atoms: C_9  and  N_10 
REMARK    3  A    between atoms: N_10  and  C_11 
ROOT
HETATM    1  C   UNL     1      21.501  50.439  48.945  1.00  0.00     0.036 A 
HETATM    2  C   UNL     1      21.768  49.091  49.180  1.00  0.00     0.049 A 
HETATM    3  C   UNL     1      23.071  48.571  49.070  1.00  0.00     0.061 A 
HETATM    4  C   UNL     1      24.134  49.421  48.745  1.00  0.00     0.050 A 
HETATM    5  N   UNL     1      25.496  49.072  48.721  1.00  0.00    -0.324 N 
HETATM    6  C   UNL     1      26.143  48.127  49.474  1.00  0.00     0.245 C 
HETATM    7  O   UNL     1      27.376  48.109  49.445  1.00  0.00    -0.271 OA
HETATM    8  C   UNL     1      25.323  47.288  50.454  1.00  0.00     0.180 C 
HETATM    9  N   UNL     1      24.294  46.546  49.746  1.00  0.00    -0.334 N 
HETATM   10  C   UNL     1      23.177  47.093  49.164  1.00  0.00     0.256 C 
HETATM   11  O   UNL     1      22.263  46.401  48.721  1.00  0.00    -0.267 OA
HETATM   12  C   UNL     1      26.155  46.207  51.156  1.00  0.00     0.037 C 
HETATM   13  C   UNL     1      25.184  45.041  51.293  1.00  0.00     0.022 C 
HETATM   14  C   UNL     1      24.387  45.121  50.002  1.00  0.00     0.127 C 
HETATM   15  C   UNL     1      23.847  50.756  48.417  1.00  0.00     0.033 A 
HETATM   16  C   UNL     1      22.544  51.260  48.515  1.00  0.00     0.032 A 
HETATM   17  H   UNL     1      26.147  49.704  48.269  1.00  0.00     0.169 HD
ENDROOT
BRANCH   1  18
HETATM   18  N   UNL     1      20.223  51.018  49.096  1.00  0.00    -0.323 N 
HETATM   19  C   UNL     1      19.205  50.984  48.155  1.00  0.00     0.256 C 
HETATM   20  O   UNL     1      19.246  50.389  47.083  1.00  0.00    -0.267 OA
HETATM   21  H   UNL     1      20.034  51.453  49.987  1.00  0.00     0.169 HD
BRANCH  19  22
HETATM   22  C   UNL     1      17.954  51.732  48.487  1.00  0.00     0.034 A 
HETATM   23  C   UNL     1      17.598  52.098  49.787  1.00  0.00     0.018 A 
HETATM   24  C   UNL     1      16.407  52.801  50.027  1.00  0.00     0.015 A 
HETATM   25  C   UNL     1      15.557  53.130  48.953  1.00  0.00    -0.008 A 
HETATM   26  C   UNL     1      15.914  52.738  47.661  1.00  0.00     0.045 A 
HETATM   27  C   UNL     1      14.322  53.822  48.854  1.00  0.00     0.031 A 
HETATM   28  N   UNL     1      14.913  53.170  46.807  1.00  0.00    -0.352 N 
HETATM   29  C   UNL     1      17.106  52.041  47.409  1.00  0.00     0.047 A 
HETATM   30  C   UNL     1      13.958  53.846  47.527  1.00  0.00     0.092 A 
BRANCH  28  31
HETATM   31  C   UNL     1      14.912  52.986  45.354  1.00  0.00     0.081 C 
HETATM   32  C   UNL     1      14.829  54.335  44.643  1.00  0.00     0.032 C 
HETATM   33  C   UNL     1      13.820  52.032  44.864  1.00  0.00     0.032 C 
ENDBRANCH  28  31
ENDBRANCH  19  22
ENDBRANCH   1  18
TORSDOF 3
ENDMDL
MODEL 7
REMARK VINA RESULT:      -8.8      5.840      9.185
REMARK  3 active torsions:
REMARK  status: ('A' for Active; 'I' for Inactive)
REMARK    1  A    between atoms: C_2  and  N_3 
REMARK    2  A    between atoms: C_8  and  C_9 
REMARK       I    between atoms: C_9  and  N_10 
REMARK    3  A    between atoms: N_10  and  C_11 
ROOT
HETATM    1  C   UNL     1      28.593  39.639  50.256  1.00  0.00     0.036 A 
HETATM    2  C   UNL     1      27.432  39.651  49.483  1.00  0.00     0.049 A 
HETATM    3  C   UNL     1      27.217  38.700  48.468  1.00  0.00     0.061 A 
HETATM    4  C   UNL     1      28.171  37.702  48.237  1.00  0.00     0.050 A 
HETATM    5  N   UNL     1      28.039  36.621  47.348  1.00  0.00    -0.324 N 
HETATM    6  C   UNL     1      26.893  35.977  46.959  1.00  0.00     0.245 C 
HETATM    7  O   UNL     1      27.007  34.925  46.326  1.00  0.00    -0.271 OA
HETATM    8  C   UNL     1      25.554  36.481  47.499  1.00  0.00     0.180 C 
HETATM    9  N   UNL     1      25.343  37.865  47.112  1.00  0.00    -0.334 N 
HETATM   10  C   UNL     1      26.033  38.943  47.607  1.00  0.00     0.256 C 
HETATM   11  O   UNL     1      25.701  40.102  47.363  1.00  0.00    -0.267 OA
HETATM   12  C   UNL     1      24.353  35.733  46.906  1.00  0.00     0.037 C 
HETATM   13  C   UNL     1      23.284  36.812  46.785  1.00  0.00     0.022 C 
HETATM   14  C   UNL     1      24.094  38.037  46.392  1.00  0.00     0.127 C 
HETATM   15  C   UNL     1      29.379  37.753  48.951  1.00  0.00     0.033 A 
HETATM   16  C   UNL     1      29.588  38.712  49.950  1.00  0.00     0.032 A 
HETATM   17  H   UNL     1      28.868  36.089  47.109  1.00  0.00     0.169 HD
ENDROOT
BRANCH   1  18
HETATM   18  N   UNL     1      28.828  40.536  51.320  1.00  0.00    -0.323 N 
HETATM   19  C   UNL     1      28.373  41.844  51.389  1.00  0.00     0.256 C 
HETATM   20  O   UNL     1      27.645  42.389  50.567  1.00  0.00    -0.267 OA
HETATM   21  H   UNL     1      29.336  40.165  52.109  1.00  0.00     0.169 HD
BRANCH  19  22
HETATM   22  C   UNL     1      28.806  42.647  52.573  1.00  0.00     0.034 A 
HETATM   23  C   UNL     1      29.928  42.336  53.346  1.00  0.00     0.018 A 
HETATM   24  C   UNL     1      30.278  43.135  54.446  1.00  0.00     0.015 A 
HETATM   25  C   UNL     1      29.487  44.252  54.782  1.00  0.00    -0.008 A 
HETATM   26  C   UNL     1      28.356  44.538  54.015  1.00  0.00     0.045 A 
HETATM   27  C   UNL     1      29.567  45.241  55.797  1.00  0.00     0.031 A 
HETATM   28  N   UNL     1      27.761  45.663  54.562  1.00  0.00    -0.352 N 
HETATM   29  C   UNL     1      28.001  43.749  52.909  1.00  0.00     0.047 A 
HETATM   30  C   UNL     1      28.506  46.102  55.629  1.00  0.00     0.092 A 
BRANCH  28  31
HETATM   31  C   UNL     1      26.558  46.314  54.037  1.00  0.00     0.081 C 
HETATM   32  C   UNL     1      26.332  47.658  54.726  1.00  0.00     0.032 C 
HETATM   33  C   UNL     1      25.308  45.433  54.115  1.00  0.00     0.032 C 
ENDBRANCH  28  31
ENDBRANCH  19  22
ENDBRANCH   1  18
TORSDOF 3
ENDMDL
MODEL 8
REMARK VINA RESULT:      -8.7      3.812      7.075
REMARK  3 active torsions:
REMARK  status: ('A' for Active; 'I' for Inactive)
REMARK    1  A    between atoms: C_2  and  N_3 
REMARK    2  A    between atoms: C_8  and  C_9 
REMARK       I    between atoms: C_9  and  N_10 
REMARK    3  A    between atoms: N_10  and  C_11 
ROOT
HETATM    1  C   UNL     1      21.068  50.396  48.234  1.00  0.00     0.036 A 
HETATM    2  C   UNL     1      21.307  49.024  48.280  1.00  0.00     0.049 A 
HETATM    3  C   UNL     1      22.598  48.511  48.507  1.00  0.00     0.061 A 
HETATM    4  C   UNL     1      23.668  49.389  48.718  1.00  0.00     0.050 A 
HETATM    5  N   UNL     1      24.978  49.026  49.076  1.00  0.00    -0.324 N 
HETATM    6  C   UNL     1      25.389  47.940  49.804  1.00  0.00     0.245 C 
HETATM    7  O   UNL     1      26.564  47.906  50.179  1.00  0.00    -0.271 OA
HETATM    8  C   UNL     1      24.336  46.940  50.281  1.00  0.00     0.180 C 
HETATM    9  N   UNL     1      23.630  46.371  49.145  1.00  0.00    -0.334 N 
HETATM   10  C   UNL     1      22.739  47.042  48.345  1.00  0.00     0.256 C 
HETATM   11  O   UNL     1      22.053  46.467  47.503  1.00  0.00    -0.267 OA
HETATM   12  C   UNL     1      24.945  45.727  50.995  1.00  0.00     0.037 C 
HETATM   13  C   UNL     1      24.039  44.575  50.580  1.00  0.00     0.022 C 
HETATM   14  C   UNL     1      23.702  44.922  49.140  1.00  0.00     0.127 C 
HETATM   15  C   UNL     1      23.440  50.767  48.576  1.00  0.00     0.033 A 
HETATM   16  C   UNL     1      22.153  51.266  48.335  1.00  0.00     0.032 A 
HETATM   17  H   UNL     1      25.710  49.722  48.993  1.00  0.00     0.169 HD
ENDROOT
BRANCH   1  18
HETATM   18  N   UNL     1      19.784  50.957  48.065  1.00  0.00    -0.323 N 
HETATM   19  C   UNL     1      19.013  51.528  49.066  1.00  0.00     0.256 C 
HETATM   20  O   UNL     1      19.364  51.688  50.230  1.00  0.00    -0.267 OA
HETATM   21  H   UNL     1      19.428  50.974  47.121  1.00  0.00     0.169 HD
BRANCH  19  22
HETATM   22  C   UNL     1      17.644  51.990  48.684  1.00  0.00     0.034 A 
HETATM   23  C   UNL     1      16.934  51.476  47.596  1.00  0.00     0.018 A 
HETATM   24  C   UNL     1      15.651  51.957  47.294  1.00  0.00     0.015 A 
HETATM   25  C   UNL     1      15.077  52.974  48.083  1.00  0.00    -0.008 A 
HETATM   26  C   UNL     1      15.808  53.495  49.152  1.00  0.00     0.045 A 
HETATM   27  C   UNL     1      13.833  53.656  48.053  1.00  0.00     0.031 A 
HETATM   28  N   UNL     1      15.029  54.475  49.744  1.00  0.00    -0.352 N 
HETATM   29  C   UNL     1      17.089  53.016  49.468  1.00  0.00     0.047 A 
HETATM   30  C   UNL     1      13.824  54.559  49.092  1.00  0.00     0.092 A 
BRANCH  28  31
HETATM   31  C   UNL     1      15.415  55.254  50.924  1.00  0.00     0.081 C 
HETATM   32  C   UNL     1      14.548  54.877  52.123  1.00  0.00     0.032 C 
HETATM   33  C   UNL     1      15.402  56.766  50.683  1.00  0.00     0.032 C 
ENDBRANCH  28  31
ENDBRANCH  19  22
ENDBRANCH   1  18
TORSDOF 3
ENDMDL
MODEL 9
REMARK VINA RESULT:      -8.6     12.763     15.954
REMARK  3 active torsions:
REMARK  status: ('A' for Active; 'I' for Inactive)
REMARK    1  A    between atoms: C_2  and  N_3 
REMARK    2  A    between atoms: C_8  and  C_9 
REMARK       I    between atoms: C_9  and  N_10 
REMARK    3  A    between atoms: N_10  and  C_11 
ROOT
HETATM    1  C   UNL     1      32.428  51.189  41.027  1.00  0.00     0.036 A 
HETATM    2  C   UNL     1      31.500  50.167  41.220  1.00  0.00     0.049 A 
HETATM    3  C   UNL     1      30.205  50.238  40.673  1.00  0.00     0.061 A 
HETATM    4  C   UNL     1      29.839  51.342  39.894  1.00  0.00     0.050 A 
HETATM    5  N   UNL     1      28.634  51.492  39.187  1.00  0.00    -0.324 N 
HETATM    6  C   UNL     1      27.846  50.516  38.635  1.00  0.00     0.245 C 
HETATM    7  O   UNL     1      26.933  50.865  37.883  1.00  0.00    -0.271 OA
HETATM    8  C   UNL     1      28.261  49.056  38.814  1.00  0.00     0.180 C 
HETATM    9  N   UNL     1      28.323  48.718  40.226  1.00  0.00    -0.334 N 
HETATM   10  C   UNL     1      29.268  49.173  41.112  1.00  0.00     0.256 C 
HETATM   11  O   UNL     1      29.365  48.728  42.253  1.00  0.00    -0.267 OA
HETATM   12  C   UNL     1      27.240  48.069  38.233  1.00  0.00     0.037 C 
HETATM   13  C   UNL     1      27.286  46.894  39.201  1.00  0.00     0.022 C 
HETATM   14  C   UNL     1      27.481  47.580  40.544  1.00  0.00     0.127 C 
HETATM   15  C   UNL     1      30.743  52.411  39.783  1.00  0.00     0.033 A 
HETATM   16  C   UNL     1      32.023  52.336  40.345  1.00  0.00     0.032 A 
HETATM   17  H   UNL     1      28.392  52.413  38.837  1.00  0.00     0.169 HD
ENDROOT
BRANCH   1  18
HETATM   18  N   UNL     1      33.753  51.139  41.509  1.00  0.00    -0.323 N 
HETATM   19  C   UNL     1      34.183  51.603  42.743  1.00  0.00     0.256 C 
HETATM   20  O   UNL     1      33.460  52.062  43.622  1.00  0.00    -0.267 OA
HETATM   21  H   UNL     1      34.427  50.685  40.910  1.00  0.00     0.169 HD
BRANCH  19  22
HETATM   22  C   UNL     1      35.649  51.524  43.021  1.00  0.00     0.034 A 
HETATM   23  C   UNL     1      36.487  50.555  42.465  1.00  0.00     0.018 A 
HETATM   24  C   UNL     1      37.857  50.540  42.769  1.00  0.00     0.015 A 
HETATM   25  C   UNL     1      38.391  51.500  43.651  1.00  0.00    -0.008 A 
HETATM   26  C   UNL     1      37.538  52.448  44.219  1.00  0.00     0.045 A 
HETATM   27  C   UNL     1      39.695  51.760  44.147  1.00  0.00     0.031 A 
HETATM   28  N   UNL     1      38.306  53.252  45.045  1.00  0.00    -0.352 N 
HETATM   29  C   UNL     1      36.167  52.477  43.916  1.00  0.00     0.047 A 
HETATM   30  C   UNL     1      39.617  52.849  44.985  1.00  0.00     0.092 A 
BRANCH  28  31
HETATM   31  C   UNL     1      37.800  54.393  45.811  1.00  0.00     0.081 C 
HETATM   32  C   UNL     1      38.179  55.707  45.131  1.00  0.00     0.032 C 
HETATM   33  C   UNL     1      38.238  54.381  47.279  1.00  0.00     0.032 C 
ENDBRANCH  28  31
ENDBRANCH  19  22
ENDBRANCH   1  18
TORSDOF 3
ENDMDL
MODEL 10
REMARK VINA RESULT:      -8.6     13.350     16.888
REMARK  3 active torsions:
REMARK  status: ('A' for Active; 'I' for Inactive)
REMARK    1  A    between atoms: C_2  and  N_3 
REMARK    2  A    between atoms: C_8  and  C_9 
REMARK       I    between atoms: C_9  and  N_10 
REMARK    3  A    between atoms: N_10  and  C_11 
ROOT
HETATM    1  C   UNL     1      33.770  51.576  43.324  1.00  0.00     0.036 A 
HETATM    2  C   UNL     1      33.274  51.162  42.089  1.00  0.00     0.049 A 
HETATM    3  C   UNL     1      31.910  51.287  41.766  1.00  0.00     0.061 A 
HETATM    4  C   UNL     1      31.028  51.864  42.687  1.00  0.00     0.050 A 
HETATM    5  N   UNL     1      29.674  52.165  42.459  1.00  0.00    -0.324 N 
HETATM    6  C   UNL     1      29.066  52.500  41.277  1.00  0.00     0.245 C 
HETATM    7  O   UNL     1      27.908  52.922  41.321  1.00  0.00    -0.271 OA
HETATM    8  C   UNL     1      29.912  52.526  40.004  1.00  0.00     0.180 C 
HETATM    9  N   UNL     1      30.493  51.218  39.757  1.00  0.00    -0.334 N 
HETATM   10  C   UNL     1      31.492  50.638  40.498  1.00  0.00     0.256 C 
HETATM   11  O   UNL     1      32.054  49.603  40.146  1.00  0.00    -0.267 OA
HETATM   12  C   UNL     1      29.086  52.819  38.744  1.00  0.00     0.037 C 
HETATM   13  C   UNL     1      29.755  51.968  37.672  1.00  0.00     0.022 C 
HETATM   14  C   UNL     1      30.146  50.716  38.440  1.00  0.00     0.127 C 
HETATM   15  C   UNL     1      31.513  52.191  43.964  1.00  0.00     0.033 A 
HETATM   16  C   UNL     1      32.870  52.048  44.280  1.00  0.00     0.032 A 
HETATM   17  H   UNL     1      29.087  52.380  43.257  1.00  0.00     0.169 HD
ENDROOT
BRANCH   1  18
HETATM   18  N   UNL     1      35.137  51.521  43.673  1.00  0.00    -0.323 N 
HETATM   19  C   UNL     1      36.170  52.146  42.991  1.00  0.00     0.256 C 
HETATM   20  O   UNL     1      36.038  52.892  42.026  1.00  0.00    -0.267 OA
HETATM   21  H   UNL     1      35.360  51.015  44.517  1.00  0.00     0.169 HD
BRANCH  19  22
HETATM   22  C   UNL     1      37.557  51.889  43.485  1.00  0.00     0.034 A 
HETATM   23  C   UNL     1      38.434  50.986  42.881  1.00  0.00     0.018 A 
HETATM   24  C   UNL     1      39.725  50.794  43.398  1.00  0.00     0.015 A 
HETATM   25  C   UNL     1      40.137  51.507  44.542  1.00  0.00    -0.008 A 
HETATM   26  C   UNL     1      39.241  52.390  45.149  1.00  0.00     0.045 A 
HETATM   27  C   UNL     1      41.341  51.551  45.291  1.00  0.00     0.031 A 
HETATM   28  N   UNL     1      39.885  52.941  46.244  1.00  0.00    -0.352 N 
HETATM   29  C   UNL     1      37.950  52.594  44.636  1.00  0.00     0.047 A 
HETATM   30  C   UNL     1      41.165  52.450  46.319  1.00  0.00     0.092 A 
BRANCH  28  31
HETATM   31  C   UNL     1      39.304  53.942  47.143  1.00  0.00     0.081 C 
HETATM   32  C   UNL     1      39.490  55.347  46.574  1.00  0.00     0.032 C 
HETATM   33  C   UNL     1      39.831  53.850  48.577  1.00  0.00     0.032 C 
ENDBRANCH  28  31
ENDBRANCH  19  22
ENDBRANCH   1  18
TORSDOF 3
ENDMDL
