MODEL 1
REMARK VINA RESULT:      -9.6      0.000      0.000
REMARK  5 active torsions:
REMARK  status: ('A' for Active; 'I' for Inactive)
REMARK    1  A    between atoms: C_3  and  N_4 
REMARK       I    between atoms: N_4  and  C_5 
REMARK    2  A    between atoms: C_5  and  C_6 
REMARK    3  A    between atoms: C_6  and  N_7 
REMARK       I    between atoms: N_7  and  C_8 
REMARK    4  A    between atoms: C_8  and  C_9 
REMARK    5  A    between atoms: C_13  and  C_14 
ROOT
HETATM    1  N   UNL     1      23.910  47.689  50.288  1.00  0.00    -0.347 N 
HETATM    2  C   UNL     1      24.386  46.404  50.244  1.00  0.00     0.270 C 
HETATM    3  O   UNL     1      24.149  45.671  49.288  1.00  0.00    -0.266 OA
HETATM    4  H   UNL     1      24.071  48.256  51.108  1.00  0.00     0.163 HD
ENDROOT
BRANCH   2   5
HETATM    5  C   UNL     1      25.120  45.956  51.392  1.00  0.00     0.120 A 
HETATM    6  N   UNL     1      24.719  44.859  52.109  1.00  0.00    -0.272 N 
HETATM    7  H   UNL     1      23.914  44.269  51.922  1.00  0.00     0.189 HD
HETATM    8  N   UNL     1      25.504  44.568  53.154  1.00  0.00    -0.173 NA
HETATM    9  C   UNL     1      26.446  45.516  53.124  1.00  0.00     0.093 A 
HETATM   10  C   UNL     1      26.263  46.397  52.032  1.00  0.00     0.071 A 
BRANCH   9  11
HETATM   11  C   UNL     1      27.528  45.588  54.105  1.00  0.00     0.044 A 
HETATM   12  C   UNL     1      28.568  44.692  54.294  1.00  0.00     0.041 A 
HETATM   13  C   UNL     1      28.928  43.443  53.574  1.00  0.00     0.071 C 
HETATM   14  N   UNL     1      29.274  45.176  55.364  1.00  0.00    -0.278 N 
HETATM   15  C   UNL     1      30.423  44.595  56.019  1.00  0.00     0.179 C 
HETATM   16  N   UNL     1      28.800  46.343  55.840  1.00  0.00    -0.177 NA
HETATM   17  C   UNL     1      27.712  46.585  55.098  1.00  0.00     0.065 A 
HETATM   18  C   UNL     1      26.883  47.778  55.408  1.00  0.00     0.073 C 
ENDBRANCH   9  11
ENDBRANCH   2   5
BRANCH   1  19
HETATM   19  C   UNL     1      23.286  48.327  49.136  1.00  0.00     0.226 C 
BRANCH  19  20
HETATM   20  C   UNL     1      22.401  49.542  49.461  1.00  0.00     0.239 C 
HETATM   21  N   UNL     1      21.087  49.390  49.058  1.00  0.00    -0.325 N 
HETATM   22  H   UNL     1      20.881  48.517  48.580  1.00  0.00     0.169 HD
HETATM   23  O   UNL     1      22.905  50.555  49.940  1.00  0.00    -0.271 OA
BRANCH  21  24
HETATM   24  C   UNL     1      20.020  50.312  49.162  1.00  0.00     0.040 A 
HETATM   25  C   UNL     1      18.897  49.963  49.948  1.00  0.00    -0.034 A 
HETATM   26  C   UNL     1      18.813  48.665  50.707  1.00  0.00     0.050 C 
HETATM   27  C   UNL     1      17.811  50.855  50.037  1.00  0.00     0.028 A 
HETATM   28  C   UNL     1      17.840  52.075  49.367  1.00  0.00     0.011 A 
HETATM   29  C   UNL     1      18.946  52.427  48.606  1.00  0.00     0.021 A 
HETATM   30 BR   UNL     1      16.369  53.255  49.495  1.00  0.00    -0.051 Br
HETATM   31  C   UNL     1      20.031  51.549  48.508  1.00  0.00     0.031 A 
ENDBRANCH  21  24
ENDBRANCH  19  20
ENDBRANCH   1  19
TORSDOF 5
ENDMDL
MODEL 2
REMARK VINA RESULT:      -9.5      0.615      1.663
REMARK  5 active torsions:
REMARK  status: ('A' for Active; 'I' for Inactive)
REMARK    1  A    between atoms: C_3  and  N_4 
REMARK       I    between atoms: N_4  and  C_5 
REMARK    2  A    between atoms: C_5  and  C_6 
REMARK    3  A    between atoms: C_6  and  N_7 
REMARK       I    between atoms: N_7  and  C_8 
REMARK    4  A    between atoms: C_8  and  C_9 
REMARK    5  A    between atoms: C_13  and  C_14 
ROOT
HETATM    1  N   UNL     1      23.940  47.926  50.064  1.00  0.00    -0.347 N 
HETATM    2  C   UNL     1      24.146  46.574  49.968  1.00  0.00     0.270 C 
HETATM    3  O   UNL     1      23.708  45.930  49.019  1.00  0.00    -0.266 OA
HETATM    4  H   UNL     1      24.262  48.426  50.880  1.00  0.00     0.163 HD
ENDROOT
BRANCH   2   5
HETATM    5  C   UNL     1      24.847  45.957  51.057  1.00  0.00     0.120 A 
HETATM    6  N   UNL     1      24.290  44.927  51.769  1.00  0.00    -0.272 N 
HETATM    7  H   UNL     1      23.380  44.502  51.616  1.00  0.00     0.189 HD
HETATM    8  N   UNL     1      25.063  44.458  52.756  1.00  0.00    -0.173 NA
HETATM    9  C   UNL     1      26.162  45.217  52.692  1.00  0.00     0.093 A 
HETATM   10  C   UNL     1      26.086  46.156  51.637  1.00  0.00     0.071 A 
BRANCH   9  11
HETATM   11  C   UNL     1      27.292  45.052  53.607  1.00  0.00     0.044 A 
HETATM   12  C   UNL     1      27.695  45.902  54.624  1.00  0.00     0.041 A 
HETATM   13  C   UNL     1      27.120  47.180  55.119  1.00  0.00     0.071 C 
HETATM   14  N   UNL     1      28.827  45.333  55.145  1.00  0.00    -0.278 N 
HETATM   15  C   UNL     1      29.686  45.838  56.191  1.00  0.00     0.179 C 
HETATM   16  N   UNL     1      29.149  44.155  54.577  1.00  0.00    -0.177 NA
HETATM   17  C   UNL     1      28.235  43.992  53.613  1.00  0.00     0.065 A 
HETATM   18  C   UNL     1      28.337  42.810  52.720  1.00  0.00     0.073 C 
ENDBRANCH   9  11
ENDBRANCH   2   5
BRANCH   1  19
HETATM   19  C   UNL     1      23.385  48.708  48.967  1.00  0.00     0.226 C 
BRANCH  19  20
HETATM   20  C   UNL     1      22.425  49.834  49.386  1.00  0.00     0.239 C 
HETATM   21  N   UNL     1      21.127  49.642  48.947  1.00  0.00    -0.325 N 
HETATM   22  H   UNL     1      20.981  48.808  48.386  1.00  0.00     0.169 HD
HETATM   23  O   UNL     1      22.860  50.825  49.966  1.00  0.00    -0.271 OA
BRANCH  21  24
HETATM   24  C   UNL     1      20.006  50.487  49.115  1.00  0.00     0.040 A 
HETATM   25  C   UNL     1      18.916  50.020  49.886  1.00  0.00    -0.034 A 
HETATM   26  C   UNL     1      18.922  48.675  50.564  1.00  0.00     0.050 C 
HETATM   27  C   UNL     1      17.777  50.834  50.038  1.00  0.00     0.028 A 
HETATM   28  C   UNL     1      17.721  52.092  49.445  1.00  0.00     0.011 A 
HETATM   29  C   UNL     1      18.795  52.559  48.700  1.00  0.00     0.021 A 
HETATM   30 BR   UNL     1      16.181  53.166  49.656  1.00  0.00    -0.051 Br
HETATM   31  C   UNL     1      19.931  51.760  48.539  1.00  0.00     0.031 A 
ENDBRANCH  21  24
ENDBRANCH  19  20
ENDBRANCH   1  19
TORSDOF 5
ENDMDL
MODEL 3
REMARK VINA RESULT:      -9.1      4.326     10.345
REMARK  5 active torsions:
REMARK  status: ('A' for Active; 'I' for Inactive)
REMARK    1  A    between atoms: C_3  and  N_4 
REMARK       I    between atoms: N_4  and  C_5 
REMARK    2  A    between atoms: C_5  and  C_6 
REMARK    3  A    between atoms: C_6  and  N_7 
REMARK       I    between atoms: N_7  and  C_8 
REMARK    4  A    between atoms: C_8  and  C_9 
REMARK    5  A    between atoms: C_13  and  C_14 
ROOT
HETATM    1  N   UNL     1      25.779  44.739  49.503  1.00  0.00    -0.347 N 
HETATM    2  C   UNL     1      24.492  44.902  49.061  1.00  0.00     0.270 C 
HETATM    3  O   UNL     1      23.882  43.982  48.523  1.00  0.00    -0.266 OA
HETATM    4  H   UNL     1      26.280  45.524  49.893  1.00  0.00     0.163 HD
ENDROOT
BRANCH   2   5
HETATM    5  C   UNL     1      23.927  46.212  49.212  1.00  0.00     0.120 A 
HETATM    6  N   UNL     1      24.492  47.138  50.049  1.00  0.00    -0.272 N 
HETATM    7  H   UNL     1      25.325  47.019  50.617  1.00  0.00     0.189 HD
HETATM    8  N   UNL     1      23.848  48.312  50.085  1.00  0.00    -0.173 NA
HETATM    9  C   UNL     1      22.820  48.142  49.249  1.00  0.00     0.093 A 
HETATM   10  C   UNL     1      22.832  46.855  48.663  1.00  0.00     0.071 A 
BRANCH   9  11
HETATM   11  C   UNL     1      21.834  49.190  48.984  1.00  0.00     0.044 A 
HETATM   12  C   UNL     1      20.461  49.131  49.158  1.00  0.00     0.041 A 
HETATM   13  C   UNL     1      19.585  48.050  49.679  1.00  0.00     0.071 C 
HETATM   14  N   UNL     1      19.987  50.339  48.717  1.00  0.00    -0.278 N 
HETATM   15  C   UNL     1      18.616  50.785  48.622  1.00  0.00     0.179 C 
HETATM   16  N   UNL     1      20.956  51.188  48.326  1.00  0.00    -0.177 NA
HETATM   17  C   UNL     1      22.087  50.482  48.454  1.00  0.00     0.065 A 
HETATM   18  C   UNL     1      23.369  51.098  48.029  1.00  0.00     0.073 C 
ENDBRANCH   9  11
ENDBRANCH   2   5
BRANCH   1  19
HETATM   19  C   UNL     1      26.422  43.432  49.557  1.00  0.00     0.226 C 
BRANCH  19  20
HETATM   20  C   UNL     1      26.952  43.020  50.940  1.00  0.00     0.239 C 
HETATM   21  N   UNL     1      27.950  43.852  51.418  1.00  0.00    -0.325 N 
HETATM   22  H   UNL     1      28.221  44.603  50.790  1.00  0.00     0.169 HD
HETATM   23  O   UNL     1      26.554  41.983  51.465  1.00  0.00    -0.271 OA
BRANCH  21  24
HETATM   24  C   UNL     1      28.681  43.750  52.623  1.00  0.00     0.040 A 
HETATM   25  C   UNL     1      28.274  44.531  53.731  1.00  0.00    -0.034 A 
HETATM   26  C   UNL     1      27.071  45.435  53.683  1.00  0.00     0.050 C 
HETATM   27  C   UNL     1      29.009  44.466  54.929  1.00  0.00     0.028 A 
HETATM   28  C   UNL     1      30.122  43.638  55.034  1.00  0.00     0.011 A 
HETATM   29  C   UNL     1      30.516  42.859  53.955  1.00  0.00     0.021 A 
HETATM   30 BR   UNL     1      31.099  43.571  56.651  1.00  0.00    -0.051 Br
HETATM   31  C   UNL     1      29.796  42.914  52.757  1.00  0.00     0.031 A 
ENDBRANCH  21  24
ENDBRANCH  19  20
ENDBRANCH   1  19
TORSDOF 5
ENDMDL
MODEL 4
REMARK VINA RESULT:      -9.0      1.635      2.110
REMARK  5 active torsions:
REMARK  status: ('A' for Active; 'I' for Inactive)
REMARK    1  A    between atoms: C_3  and  N_4 
REMARK       I    between atoms: N_4  and  C_5 
REMARK    2  A    between atoms: C_5  and  C_6 
REMARK    3  A    between atoms: C_6  and  N_7 
REMARK       I    between atoms: N_7  and  C_8 
REMARK    4  A    between atoms: C_8  and  C_9 
REMARK    5  A    between atoms: C_13  and  C_14 
ROOT
HETATM    1  N   UNL     1      23.766  47.885  49.119  1.00  0.00    -0.347 N 
HETATM    2  C   UNL     1      24.970  47.823  49.771  1.00  0.00     0.270 C 
HETATM    3  O   UNL     1      25.819  48.698  49.623  1.00  0.00    -0.266 OA
HETATM    4  H   UNL     1      23.104  47.128  49.213  1.00  0.00     0.163 HD
ENDROOT
BRANCH   2   5
HETATM    5  C   UNL     1      25.198  46.663  50.583  1.00  0.00     0.120 A 
HETATM    6  N   UNL     1      24.163  45.858  50.979  1.00  0.00    -0.272 N 
HETATM    7  H   UNL     1      23.179  45.975  50.755  1.00  0.00     0.189 HD
HETATM    8  N   UNL     1      24.534  44.817  51.735  1.00  0.00    -0.173 NA
HETATM    9  C   UNL     1      25.859  44.953  51.844  1.00  0.00     0.093 A 
HETATM   10  C   UNL     1      26.327  46.080  51.128  1.00  0.00     0.071 A 
BRANCH   9  11
HETATM   11  C   UNL     1      26.690  44.020  52.604  1.00  0.00     0.044 A 
HETATM   12  C   UNL     1      27.032  42.719  52.272  1.00  0.00     0.041 A 
HETATM   13  C   UNL     1      26.712  41.896  51.077  1.00  0.00     0.071 C 
HETATM   14  N   UNL     1      27.773  42.258  53.329  1.00  0.00    -0.278 N 
HETATM   15  C   UNL     1      28.332  40.940  53.526  1.00  0.00     0.179 C 
HETATM   16  N   UNL     1      27.979  43.182  54.286  1.00  0.00    -0.177 NA
HETATM   17  C   UNL     1      27.293  44.252  53.868  1.00  0.00     0.065 A 
HETATM   18  C   UNL     1      27.237  45.454  54.738  1.00  0.00     0.073 C 
ENDBRANCH   9  11
ENDBRANCH   2   5
BRANCH   1  19
HETATM   19  C   UNL     1      23.336  49.072  48.390  1.00  0.00     0.226 C 
BRANCH  19  20
HETATM   20  C   UNL     1      22.292  49.940  49.111  1.00  0.00     0.239 C 
HETATM   21  N   UNL     1      21.058  49.951  48.487  1.00  0.00    -0.325 N 
HETATM   22  H   UNL     1      21.006  49.413  47.627  1.00  0.00     0.169 HD
HETATM   23  O   UNL     1      22.623  50.613  50.085  1.00  0.00    -0.271 OA
BRANCH  21  24
HETATM   24  C   UNL     1      19.893  50.664  48.849  1.00  0.00     0.040 A 
HETATM   25  C   UNL     1      18.924  50.018  49.652  1.00  0.00    -0.034 A 
HETATM   26  C   UNL     1      19.107  48.613  50.164  1.00  0.00     0.050 C 
HETATM   27  C   UNL     1      17.742  50.701  49.996  1.00  0.00     0.028 A 
HETATM   28  C   UNL     1      17.526  52.005  49.561  1.00  0.00     0.011 A 
HETATM   29  C   UNL     1      18.480  52.649  48.785  1.00  0.00     0.021 A 
HETATM   30 BR   UNL     1      15.930  52.902  50.029  1.00  0.00    -0.051 Br
HETATM   31  C   UNL     1      19.658  51.981  48.435  1.00  0.00     0.031 A 
ENDBRANCH  21  24
ENDBRANCH  19  20
ENDBRANCH   1  19
TORSDOF 5
ENDMDL
MODEL 5
REMARK VINA RESULT:      -9.0      1.259      1.498
REMARK  5 active torsions:
REMARK  status: ('A' for Active; 'I' for Inactive)
REMARK    1  A    between atoms: C_3  and  N_4 
REMARK       I    between atoms: N_4  and  C_5 
REMARK    2  A    between atoms: C_5  and  C_6 
REMARK    3  A    between atoms: C_6  and  N_7 
REMARK       I    between atoms: N_7  and  C_8 
REMARK    4  A    between atoms: C_8  and  C_9 
REMARK    5  A    between atoms: C_13  and  C_14 
ROOT
HETATM    1  N   UNL     1      24.737  46.328  50.592  1.00  0.00    -0.347 N 
HETATM    2  C   UNL     1      24.551  45.141  51.251  1.00  0.00     0.270 C 
HETATM    3  O   UNL     1      23.588  44.420  51.003  1.00  0.00    -0.266 OA
HETATM    4  H   UNL     1      25.505  46.930  50.849  1.00  0.00     0.163 HD
ENDROOT
BRANCH   2   5
HETATM    5  C   UNL     1      25.506  44.821  52.272  1.00  0.00     0.120 A 
HETATM    6  N   UNL     1      25.461  43.626  52.940  1.00  0.00    -0.272 N 
HETATM    7  H   UNL     1      24.796  42.872  52.796  1.00  0.00     0.189 HD
HETATM    8  N   UNL     1      26.416  43.476  53.866  1.00  0.00    -0.173 NA
HETATM    9  C   UNL     1      27.104  44.621  53.807  1.00  0.00     0.093 A 
HETATM   10  C   UNL     1      26.588  45.488  52.816  1.00  0.00     0.071 A 
BRANCH   9  11
HETATM   11  C   UNL     1      28.255  44.897  54.667  1.00  0.00     0.044 A 
HETATM   12  C   UNL     1      29.359  44.093  54.897  1.00  0.00     0.041 A 
HETATM   13  C   UNL     1      29.736  42.765  54.346  1.00  0.00     0.071 C 
HETATM   14  N   UNL     1      30.118  44.772  55.814  1.00  0.00    -0.278 N 
HETATM   15  C   UNL     1      31.349  44.356  56.445  1.00  0.00     0.179 C 
HETATM   16  N   UNL     1      29.613  45.975  56.147  1.00  0.00    -0.177 NA
HETATM   17  C   UNL     1      28.456  46.046  55.476  1.00  0.00     0.065 A 
HETATM   18  C   UNL     1      27.584  47.231  55.674  1.00  0.00     0.073 C 
ENDBRANCH   9  11
ENDBRANCH   2   5
BRANCH   1  19
HETATM   19  C   UNL     1      23.940  46.706  49.431  1.00  0.00     0.226 C 
BRANCH  19  20
HETATM   20  C   UNL     1      23.290  48.098  49.509  1.00  0.00     0.239 C 
HETATM   21  N   UNL     1      21.950  48.099  49.167  1.00  0.00    -0.325 N 
HETATM   22  H   UNL     1      21.576  47.198  48.885  1.00  0.00     0.169 HD
HETATM   23  O   UNL     1      23.981  49.083  49.758  1.00  0.00    -0.271 OA
BRANCH  21  24
HETATM   24  C   UNL     1      21.060  49.195  49.093  1.00  0.00     0.040 A 
HETATM   25  C   UNL     1      19.700  48.989  49.423  1.00  0.00    -0.034 A 
HETATM   26  C   UNL     1      19.175  47.655  49.886  1.00  0.00     0.050 C 
HETATM   27  C   UNL     1      18.794  50.061  49.324  1.00  0.00     0.028 A 
HETATM   28  C   UNL     1      19.226  51.318  48.914  1.00  0.00     0.011 A 
HETATM   29  C   UNL     1      20.562  51.529  48.603  1.00  0.00     0.021 A 
HETATM   30 BR   UNL     1      17.991  52.743  48.781  1.00  0.00    -0.051 Br
HETATM   31  C   UNL     1      21.473  50.472  48.696  1.00  0.00     0.031 A 
ENDBRANCH  21  24
ENDBRANCH  19  20
ENDBRANCH   1  19
TORSDOF 5
ENDMDL
MODEL 6
REMARK VINA RESULT:      -9.0      1.742      2.728
REMARK  5 active torsions:
REMARK  status: ('A' for Active; 'I' for Inactive)
REMARK    1  A    between atoms: C_3  and  N_4 
REMARK       I    between atoms: N_4  and  C_5 
REMARK    2  A    between atoms: C_5  and  C_6 
REMARK    3  A    between atoms: C_6  and  N_7 
REMARK       I    between atoms: N_7  and  C_8 
REMARK    4  A    between atoms: C_8  and  C_9 
REMARK    5  A    between atoms: C_13  and  C_14 
ROOT
HETATM    1  N   UNL     1      25.369  45.907  50.808  1.00  0.00    -0.347 N 
HETATM    2  C   UNL     1      24.968  44.979  51.732  1.00  0.00     0.270 C 
HETATM    3  O   UNL     1      23.831  44.514  51.715  1.00  0.00    -0.266 OA
HETATM    4  H   UNL     1      26.291  46.315  50.873  1.00  0.00     0.163 HD
ENDROOT
BRANCH   2   5
HETATM    5  C   UNL     1      25.925  44.628  52.742  1.00  0.00     0.120 A 
HETATM    6  N   UNL     1      25.856  43.429  53.402  1.00  0.00    -0.272 N 
HETATM    7  H   UNL     1      25.169  42.694  53.261  1.00  0.00     0.189 HD
HETATM    8  N   UNL     1      26.816  43.249  54.317  1.00  0.00    -0.173 NA
HETATM    9  C   UNL     1      27.533  44.375  54.259  1.00  0.00     0.093 A 
HETATM   10  C   UNL     1      27.030  45.262  53.278  1.00  0.00     0.071 A 
BRANCH   9  11
HETATM   11  C   UNL     1      28.700  44.616  55.108  1.00  0.00     0.044 A 
HETATM   12  C   UNL     1      28.838  45.551  56.121  1.00  0.00     0.041 A 
HETATM   13  C   UNL     1      27.881  46.543  56.675  1.00  0.00     0.071 C 
HETATM   14  N   UNL     1      30.126  45.415  56.567  1.00  0.00    -0.278 N 
HETATM   15  C   UNL     1      30.813  46.187  57.577  1.00  0.00     0.179 C 
HETATM   16  N   UNL     1      30.807  44.427  55.956  1.00  0.00    -0.177 NA
HETATM   17  C   UNL     1      29.954  43.955  55.038  1.00  0.00     0.065 A 
HETATM   18  C   UNL     1      30.412  42.887  54.114  1.00  0.00     0.073 C 
ENDBRANCH   9  11
ENDBRANCH   2   5
BRANCH   1  19
HETATM   19  C   UNL     1      24.563  46.241  49.640  1.00  0.00     0.226 C 
BRANCH  19  20
HETATM   20  C   UNL     1      23.929  47.642  49.662  1.00  0.00     0.239 C 
HETATM   21  N   UNL     1      22.637  47.669  49.168  1.00  0.00    -0.325 N 
HETATM   22  H   UNL     1      22.285  46.777  48.833  1.00  0.00     0.169 HD
HETATM   23  O   UNL     1      24.601  48.612  50.002  1.00  0.00    -0.271 OA
BRANCH  21  24
HETATM   24  C   UNL     1      21.779  48.780  49.007  1.00  0.00     0.040 A 
HETATM   25  C   UNL     1      20.387  48.552  48.895  1.00  0.00    -0.034 A 
HETATM   26  C   UNL     1      19.786  47.173  48.979  1.00  0.00     0.050 C 
HETATM   27  C   UNL     1      19.520  49.643  48.702  1.00  0.00     0.028 A 
HETATM   28  C   UNL     1      20.019  50.940  48.630  1.00  0.00     0.011 A 
HETATM   29  C   UNL     1      21.382  51.171  48.754  1.00  0.00     0.021 A 
HETATM   30 BR   UNL     1      18.838  52.391  48.363  1.00  0.00    -0.051 Br
HETATM   31  C   UNL     1      22.255  50.095  48.945  1.00  0.00     0.031 A 
ENDBRANCH  21  24
ENDBRANCH  19  20
ENDBRANCH   1  19
TORSDOF 5
ENDMDL
MODEL 7
REMARK VINA RESULT:      -8.9      1.361      2.139
REMARK  5 active torsions:
REMARK  status: ('A' for Active; 'I' for Inactive)
REMARK    1  A    between atoms: C_3  and  N_4 
REMARK       I    between atoms: N_4  and  C_5 
REMARK    2  A    between atoms: C_5  and  C_6 
REMARK    3  A    between atoms: C_6  and  N_7 
REMARK       I    between atoms: N_7  and  C_8 
REMARK    4  A    between atoms: C_8  and  C_9 
REMARK    5  A    between atoms: C_13  and  C_14 
ROOT
HETATM    1  N   UNL     1      23.652  45.940  49.913  1.00  0.00    -0.347 N 
HETATM    2  C   UNL     1      24.791  45.180  49.977  1.00  0.00     0.270 C 
HETATM    3  O   UNL     1      25.226  44.601  48.986  1.00  0.00    -0.266 OA
HETATM    4  H   UNL     1      23.283  46.363  50.751  1.00  0.00     0.163 HD
ENDROOT
BRANCH   2   5
HETATM    5  C   UNL     1      25.405  45.059  51.268  1.00  0.00     0.120 A 
HETATM    6  N   UNL     1      24.654  45.028  52.413  1.00  0.00    -0.272 N 
HETATM    7  H   UNL     1      23.641  45.076  52.479  1.00  0.00     0.189 HD
HETATM    8  N   UNL     1      25.370  44.915  53.539  1.00  0.00    -0.173 NA
HETATM    9  C   UNL     1      26.637  44.881  53.113  1.00  0.00     0.093 A 
HETATM   10  C   UNL     1      26.714  44.950  51.702  1.00  0.00     0.071 A 
BRANCH   9  11
HETATM   11  C   UNL     1      27.775  44.768  54.024  1.00  0.00     0.044 A 
HETATM   12  C   UNL     1      28.322  45.753  54.830  1.00  0.00     0.041 A 
HETATM   13  C   UNL     1      27.930  47.169  55.050  1.00  0.00     0.071 C 
HETATM   14  N   UNL     1      29.398  45.164  55.443  1.00  0.00    -0.278 N 
HETATM   15  C   UNL     1      30.356  45.763  56.344  1.00  0.00     0.179 C 
HETATM   16  N   UNL     1      29.548  43.863  55.134  1.00  0.00    -0.177 NA
HETATM   17  C   UNL     1      28.581  43.620  54.241  1.00  0.00     0.065 A 
HETATM   18  C   UNL     1      28.500  42.274  53.619  1.00  0.00     0.073 C 
ENDBRANCH   9  11
ENDBRANCH   2   5
BRANCH   1  19
HETATM   19  C   UNL     1      23.014  46.278  48.647  1.00  0.00     0.226 C 
BRANCH  19  20
HETATM   20  C   UNL     1      22.388  47.682  48.585  1.00  0.00     0.239 C 
HETATM   21  N   UNL     1      21.202  47.787  49.290  1.00  0.00    -0.325 N 
HETATM   22  H   UNL     1      20.885  46.929  49.731  1.00  0.00     0.169 HD
HETATM   23  O   UNL     1      22.893  48.546  47.874  1.00  0.00    -0.271 OA
BRANCH  21  24
HETATM   24  C   UNL     1      20.348  48.907  49.416  1.00  0.00     0.040 A 
HETATM   25  C   UNL     1      18.966  48.736  49.170  1.00  0.00    -0.034 A 
HETATM   26  C   UNL     1      18.367  47.399  48.817  1.00  0.00     0.050 C 
HETATM   27  C   UNL     1      18.104  49.846  49.258  1.00  0.00     0.028 A 
HETATM   28  C   UNL     1      18.600  51.102  49.593  1.00  0.00     0.011 A 
HETATM   29  C   UNL     1      19.954  51.272  49.849  1.00  0.00     0.021 A 
HETATM   30 BR   UNL     1      17.429  52.581  49.700  1.00  0.00    -0.051 Br
HETATM   31  C   UNL     1      20.821  50.177  49.763  1.00  0.00     0.031 A 
ENDBRANCH  21  24
ENDBRANCH  19  20
ENDBRANCH   1  19
TORSDOF 5
ENDMDL
MODEL 8
REMARK VINA RESULT:      -8.8      1.558      2.158
REMARK  5 active torsions:
REMARK  status: ('A' for Active; 'I' for Inactive)
REMARK    1  A    between atoms: C_3  and  N_4 
REMARK       I    between atoms: N_4  and  C_5 
REMARK    2  A    between atoms: C_5  and  C_6 
REMARK    3  A    between atoms: C_6  and  N_7 
REMARK       I    between atoms: N_7  and  C_8 
REMARK    4  A    between atoms: C_8  and  C_9 
REMARK    5  A    between atoms: C_13  and  C_14 
ROOT
HETATM    1  N   UNL     1      23.484  45.469  49.553  1.00  0.00    -0.347 N 
HETATM    2  C   UNL     1      24.636  44.780  49.831  1.00  0.00     0.270 C 
HETATM    3  O   UNL     1      25.161  44.053  48.992  1.00  0.00    -0.266 OA
HETATM    4  H   UNL     1      23.040  46.018  50.275  1.00  0.00     0.163 HD
ENDROOT
BRANCH   2   5
HETATM    5  C   UNL     1      25.154  44.914  51.162  1.00  0.00     0.120 A 
HETATM    6  N   UNL     1      24.451  44.463  52.248  1.00  0.00    -0.272 N 
HETATM    7  H   UNL     1      23.545  44.004  52.240  1.00  0.00     0.189 HD
HETATM    8  N   UNL     1      25.063  44.663  53.422  1.00  0.00    -0.173 NA
HETATM    9  C   UNL     1      26.203  45.277  53.091  1.00  0.00     0.093 A 
HETATM   10  C   UNL     1      26.318  45.442  51.690  1.00  0.00     0.071 A 
BRANCH   9  11
HETATM   11  C   UNL     1      27.194  45.695  54.082  1.00  0.00     0.044 A 
HETATM   12  C   UNL     1      28.315  45.002  54.510  1.00  0.00     0.041 A 
HETATM   13  C   UNL     1      28.872  43.688  54.097  1.00  0.00     0.071 C 
HETATM   14  N   UNL     1      28.879  45.789  55.480  1.00  0.00    -0.278 N 
HETATM   15  C   UNL     1      30.037  45.513  56.298  1.00  0.00     0.179 C 
HETATM   16  N   UNL     1      28.237  46.957  55.668  1.00  0.00    -0.177 NA
HETATM   17  C   UNL     1      27.185  46.894  54.841  1.00  0.00     0.065 A 
HETATM   18  C   UNL     1      26.201  48.006  54.845  1.00  0.00     0.073 C 
ENDBRANCH   9  11
ENDBRANCH   2   5
BRANCH   1  19
HETATM   19  C   UNL     1      22.933  45.551  48.206  1.00  0.00     0.226 C 
BRANCH  19  20
HETATM   20  C   UNL     1      22.057  46.784  47.932  1.00  0.00     0.239 C 
HETATM   21  N   UNL     1      21.596  47.399  49.083  1.00  0.00    -0.325 N 
HETATM   22  H   UNL     1      21.868  46.947  49.951  1.00  0.00     0.169 HD
HETATM   23  O   UNL     1      21.753  47.075  46.778  1.00  0.00    -0.271 OA
BRANCH  21  24
HETATM   24  C   UNL     1      20.745  48.521  49.203  1.00  0.00     0.040 A 
HETATM   25  C   UNL     1      21.327  49.806  49.297  1.00  0.00    -0.034 A 
HETATM   26  C   UNL     1      22.816  50.025  49.235  1.00  0.00     0.050 C 
HETATM   27  C   UNL     1      20.496  50.933  49.449  1.00  0.00     0.028 A 
HETATM   28  C   UNL     1      19.113  50.791  49.499  1.00  0.00     0.011 A 
HETATM   29  C   UNL     1      18.536  49.533  49.392  1.00  0.00     0.021 A 
HETATM   30 BR   UNL     1      18.016  52.316  49.710  1.00  0.00    -0.051 Br
HETATM   31  C   UNL     1      19.350  48.405  49.242  1.00  0.00     0.031 A 
ENDBRANCH  21  24
ENDBRANCH  19  20
ENDBRANCH   1  19
TORSDOF 5
ENDMDL
MODEL 9
REMARK VINA RESULT:      -8.8      4.246     10.487
REMARK  5 active torsions:
REMARK  status: ('A' for Active; 'I' for Inactive)
REMARK    1  A    between atoms: C_3  and  N_4 
REMARK       I    between atoms: N_4  and  C_5 
REMARK    2  A    between atoms: C_5  and  C_6 
REMARK    3  A    between atoms: C_6  and  N_7 
REMARK       I    between atoms: N_7  and  C_8 
REMARK    4  A    between atoms: C_8  and  C_9 
REMARK    5  A    between atoms: C_13  and  C_14 
ROOT
HETATM    1  N   UNL     1      24.286  44.648  50.645  1.00  0.00    -0.347 N 
HETATM    2  C   UNL     1      24.626  45.519  49.643  1.00  0.00     0.270 C 
HETATM    3  O   UNL     1      25.753  45.521  49.157  1.00  0.00    -0.266 OA
HETATM    4  H   UNL     1      23.370  44.701  51.067  1.00  0.00     0.163 HD
ENDROOT
BRANCH   2   5
HETATM    5  C   UNL     1      23.615  46.454  49.240  1.00  0.00     0.120 A 
HETATM    6  N   UNL     1      22.722  46.152  48.245  1.00  0.00    -0.272 N 
HETATM    7  H   UNL     1      22.669  45.286  47.716  1.00  0.00     0.189 HD
HETATM    8  N   UNL     1      21.843  47.126  47.980  1.00  0.00    -0.173 NA
HETATM    9  C   UNL     1      22.180  48.104  48.826  1.00  0.00     0.093 A 
HETATM   10  C   UNL     1      23.269  47.729  49.648  1.00  0.00     0.071 A 
BRANCH   9  11
HETATM   11  C   UNL     1      21.474  49.384  48.879  1.00  0.00     0.044 A 
HETATM   12  C   UNL     1      20.193  49.631  49.346  1.00  0.00     0.041 A 
HETATM   13  C   UNL     1      19.179  48.729  49.951  1.00  0.00     0.071 C 
HETATM   14  N   UNL     1      19.980  50.967  49.129  1.00  0.00    -0.278 N 
HETATM   15  C   UNL     1      18.783  51.737  49.379  1.00  0.00     0.179 C 
HETATM   16  N   UNL     1      21.045  51.606  48.609  1.00  0.00    -0.177 NA
HETATM   17  C   UNL     1      21.952  50.639  48.422  1.00  0.00     0.065 A 
HETATM   18  C   UNL     1      23.246  50.984  47.780  1.00  0.00     0.073 C 
ENDBRANCH   9  11
ENDBRANCH   2   5
BRANCH   1  19
HETATM   19  C   UNL     1      25.153  43.547  51.046  1.00  0.00     0.226 C 
BRANCH  19  20
HETATM   20  C   UNL     1      25.862  43.733  52.398  1.00  0.00     0.239 C 
HETATM   21  N   UNL     1      27.242  43.672  52.309  1.00  0.00    -0.325 N 
HETATM   22  H   UNL     1      27.605  43.487  51.378  1.00  0.00     0.169 HD
HETATM   23  O   UNL     1      25.201  43.820  53.429  1.00  0.00    -0.271 OA
BRANCH  21  24
HETATM   24  C   UNL     1      28.197  43.762  53.347  1.00  0.00     0.040 A 
HETATM   25  C   UNL     1      29.090  42.683  53.542  1.00  0.00    -0.034 A 
HETATM   26  C   UNL     1      29.086  41.461  52.661  1.00  0.00     0.050 C 
HETATM   27  C   UNL     1      30.027  42.741  54.591  1.00  0.00     0.028 A 
HETATM   28  C   UNL     1      30.085  43.851  55.428  1.00  0.00     0.011 A 
HETATM   29  C   UNL     1      29.220  44.919  55.231  1.00  0.00     0.021 A 
HETATM   30 BR   UNL     1      31.346  43.907  56.834  1.00  0.00    -0.051 Br
HETATM   31  C   UNL     1      28.283  44.873  54.193  1.00  0.00     0.031 A 
ENDBRANCH  21  24
ENDBRANCH  19  20
ENDBRANCH   1  19
TORSDOF 5
ENDMDL
MODEL 10
REMARK VINA RESULT:      -8.5      3.801     10.797
REMARK  5 active torsions:
REMARK  status: ('A' for Active; 'I' for Inactive)
REMARK    1  A    between atoms: C_3  and  N_4 
REMARK       I    between atoms: N_4  and  C_5 
REMARK    2  A    between atoms: C_5  and  C_6 
REMARK    3  A    between atoms: C_6  and  N_7 
REMARK       I    between atoms: N_7  and  C_8 
REMARK    4  A    between atoms: C_8  and  C_9 
REMARK    5  A    between atoms: C_13  and  C_14 
ROOT
HETATM    1  N   UNL     1      22.775  47.309  49.535  1.00  0.00    -0.347 N 
HETATM    2  C   UNL     1      22.462  48.346  48.696  1.00  0.00     0.270 C 
HETATM    3  O   UNL     1      23.308  48.845  47.959  1.00  0.00    -0.266 OA
HETATM    4  H   UNL     1      22.078  46.949  50.171  1.00  0.00     0.163 HD
ENDROOT
BRANCH   2   5
HETATM    5  C   UNL     1      21.119  48.843  48.770  1.00  0.00     0.120 A 
HETATM    6  N   UNL     1      20.342  48.633  49.879  1.00  0.00    -0.272 N 
HETATM    7  H   UNL     1      20.610  48.140  50.726  1.00  0.00     0.189 HD
HETATM    8  N   UNL     1      19.112  49.154  49.796  1.00  0.00    -0.173 NA
HETATM    9  C   UNL     1      19.080  49.717  48.584  1.00  0.00     0.093 A 
HETATM   10  C   UNL     1      20.315  49.568  47.908  1.00  0.00     0.071 A 
BRANCH   9  11
HETATM   11  C   UNL     1      17.902  50.410  48.063  1.00  0.00     0.044 A 
HETATM   12  C   UNL     1      17.336  51.589  48.520  1.00  0.00     0.041 A 
HETATM   13  C   UNL     1      17.740  52.511  49.613  1.00  0.00     0.071 C 
HETATM   14  N   UNL     1      16.227  51.785  47.740  1.00  0.00    -0.278 N 
HETATM   15  C   UNL     1      15.240  52.837  47.830  1.00  0.00     0.179 C 
HETATM   16  N   UNL     1      16.070  50.852  46.782  1.00  0.00    -0.177 NA
HETATM   17  C   UNL     1      17.071  49.989  46.993  1.00  0.00     0.065 A 
HETATM   18  C   UNL     1      17.158  48.771  46.148  1.00  0.00     0.073 C 
ENDBRANCH   9  11
ENDBRANCH   2   5
BRANCH   1  19
HETATM   19  C   UNL     1      24.048  46.603  49.458  1.00  0.00     0.226 C 
BRANCH  19  20
HETATM   20  C   UNL     1      25.083  47.003  50.523  1.00  0.00     0.239 C 
HETATM   21  N   UNL     1      25.178  46.099  51.566  1.00  0.00    -0.325 N 
HETATM   22  H   UNL     1      24.542  45.309  51.510  1.00  0.00     0.169 HD
HETATM   23  O   UNL     1      25.657  48.086  50.442  1.00  0.00    -0.271 OA
BRANCH  21  24
HETATM   24  C   UNL     1      25.989  46.168  52.721  1.00  0.00     0.040 A 
HETATM   25  C   UNL     1      26.947  45.151  52.939  1.00  0.00    -0.034 A 
HETATM   26  C   UNL     1      27.160  44.020  51.967  1.00  0.00     0.050 C 
HETATM   27  C   UNL     1      27.741  45.185  54.101  1.00  0.00     0.028 A 
HETATM   28  C   UNL     1      27.597  46.214  55.027  1.00  0.00     0.011 A 
HETATM   29  C   UNL     1      26.668  47.222  54.810  1.00  0.00     0.021 A 
HETATM   30 BR   UNL     1      28.668  46.238  56.584  1.00  0.00    -0.051 Br
HETATM   31  C   UNL     1      25.871  47.199  53.661  1.00  0.00     0.031 A 
ENDBRANCH  21  24
ENDBRANCH  19  20
ENDBRANCH   1  19
TORSDOF 5
ENDMDL
