MODEL 1
REMARK VINA RESULT:     -10.6      0.000      0.000
REMARK  5 active torsions:
REMARK  status: ('A' for Active; 'I' for Inactive)
REMARK    1  A    between atoms: C_4  and  O_5 
REMARK    2  A    between atoms: O_5  and  C_6 
REMARK    3  A    between atoms: C_6  and  C_7 
REMARK       I    between atoms: C_7  and  N_8 
REMARK    4  A    between atoms: N_8  and  C_9 
REMARK    5  A    between atoms: C_12  and  C_13 
ROOT
HETATM    1  C   UNL     1      25.079  46.422  51.444  1.00  0.00     0.034 A 
HETATM    2  C   UNL     1      25.387  47.172  52.581  1.00  0.00     0.030 A 
HETATM    3  C   UNL     1      26.368  46.741  53.481  1.00  0.00     0.017 A 
HETATM    4  C   UNL     1      27.057  45.547  53.252  1.00  0.00     0.010 A 
HETATM    5  C   UNL     1      26.719  44.762  52.146  1.00  0.00     0.017 A 
HETATM    6  C   UNL     1      25.741  45.202  51.244  1.00  0.00     0.030 A 
ENDROOT
BRANCH   1   7
HETATM    7  N   UNL     1      24.154  46.838  50.464  1.00  0.00    -0.325 N 
HETATM    8  C   UNL     1      24.287  47.896  49.582  1.00  0.00     0.246 C 
HETATM    9  O   UNL     1      25.200  48.719  49.564  1.00  0.00    -0.271 OA
HETATM   10  H   UNL     1      23.311  46.284  50.350  1.00  0.00     0.169 HD
BRANCH   8  11
HETATM   11  C   UNL     1      23.140  48.014  48.577  1.00  0.00     0.278 C 
BRANCH  11  12
HETATM   12  O   UNL     1      22.813  49.359  48.247  1.00  0.00    -0.342 OA
BRANCH  12  13
HETATM   13  C   UNL     1      21.618  49.817  48.742  1.00  0.00     0.069 A 
HETATM   14  C   UNL     1      20.737  49.091  49.551  1.00  0.00     0.043 A 
HETATM   15  C   UNL     1      19.544  49.669  50.013  1.00  0.00    -0.059 A 
HETATM   16  C   UNL     1      18.626  48.905  50.921  1.00  0.00     0.048 C 
HETATM   17  C   UNL     1      19.245  50.990  49.663  1.00  0.00     0.007 A 
HETATM   18  C   UNL     1      20.112  51.714  48.845  1.00  0.00     0.003 A 
HETATM   19  C   UNL     1      21.291  51.127  48.384  1.00  0.00     0.037 A 
ENDBRANCH  12  13
ENDBRANCH  11  12
ENDBRANCH   8  11
ENDBRANCH   1   7
BRANCH   4  20
HETATM   20  C   UNL     1      28.156  45.117  54.153  1.00  0.00     0.141 A 
HETATM   21  N   UNL     1      28.332  45.662  55.314  1.00  0.00    -0.230 NA
HETATM   22  C   UNL     1      29.395  45.195  56.111  1.00  0.00     0.074 A 
HETATM   23  C   UNL     1      30.234  44.151  55.715  1.00  0.00     0.061 A 
HETATM   24  C   UNL     1      29.629  45.797  57.350  1.00  0.00     0.032 A 
HETATM   25  C   UNL     1      29.976  43.537  54.405  1.00  0.00     0.259 A 
HETATM   26  C   UNL     1      31.280  43.700  56.526  1.00  0.00     0.019 A 
HETATM   27  O   UNL     1      30.629  42.590  53.982  1.00  0.00    -0.267 OA
HETATM   28  N   UNL     1      28.947  44.088  53.688  1.00  0.00    -0.307 N 
HETATM   29  H   UNL     1      28.750  43.628  52.811  1.00  0.00     0.170 HD
HETATM   30  C   UNL     1      31.498  44.309  57.761  1.00  0.00     0.001 A 
HETATM   31  C   UNL     1      30.674  45.357  58.171  1.00  0.00     0.002 A 
ENDBRANCH   4  20
TORSDOF 5
ENDMDL
MODEL 2
REMARK VINA RESULT:     -10.2      1.302      1.828
REMARK  5 active torsions:
REMARK  status: ('A' for Active; 'I' for Inactive)
REMARK    1  A    between atoms: C_4  and  O_5 
REMARK    2  A    between atoms: O_5  and  C_6 
REMARK    3  A    between atoms: C_6  and  C_7 
REMARK       I    between atoms: C_7  and  N_8 
REMARK    4  A    between atoms: N_8  and  C_9 
REMARK    5  A    between atoms: C_12  and  C_13 
ROOT
HETATM    1  C   UNL     1      25.172  46.529  51.791  1.00  0.00     0.034 A 
HETATM    2  C   UNL     1      25.388  47.390  52.871  1.00  0.00     0.030 A 
HETATM    3  C   UNL     1      26.297  47.059  53.881  1.00  0.00     0.017 A 
HETATM    4  C   UNL     1      27.007  45.857  53.823  1.00  0.00     0.010 A 
HETATM    5  C   UNL     1      26.759  44.964  52.777  1.00  0.00     0.017 A 
HETATM    6  C   UNL     1      25.851  45.303  51.764  1.00  0.00     0.030 A 
ENDROOT
BRANCH   1   7
HETATM    7  N   UNL     1      24.324  46.837  50.708  1.00  0.00    -0.325 N 
HETATM    8  C   UNL     1      24.537  47.783  49.721  1.00  0.00     0.246 C 
HETATM    9  O   UNL     1      25.465  48.588  49.671  1.00  0.00    -0.271 OA
HETATM   10  H   UNL     1      23.480  46.283  50.600  1.00  0.00     0.169 HD
BRANCH   8  11
HETATM   11  C   UNL     1      23.464  47.795  48.630  1.00  0.00     0.278 C 
BRANCH  11  12
HETATM   12  O   UNL     1      23.124  49.103  48.186  1.00  0.00    -0.342 OA
BRANCH  12  13
HETATM   13  C   UNL     1      21.916  49.583  48.625  1.00  0.00     0.069 A 
HETATM   14  C   UNL     1      20.932  48.838  49.284  1.00  0.00     0.043 A 
HETATM   15  C   UNL     1      19.735  49.440  49.704  1.00  0.00    -0.059 A 
HETATM   16  C   UNL     1      18.704  48.649  50.455  1.00  0.00     0.048 C 
HETATM   17  C   UNL     1      19.536  50.803  49.464  1.00  0.00     0.007 A 
HETATM   18  C   UNL     1      20.507  51.548  48.795  1.00  0.00     0.003 A 
HETATM   19  C   UNL     1      21.689  50.938  48.374  1.00  0.00     0.037 A 
ENDBRANCH  12  13
ENDBRANCH  11  12
ENDBRANCH   8  11
ENDBRANCH   1   7
BRANCH   4  20
HETATM   20  C   UNL     1      28.034  45.529  54.844  1.00  0.00     0.141 A 
HETATM   21  N   UNL     1      28.957  44.649  54.617  1.00  0.00    -0.230 NA
HETATM   22  C   UNL     1      29.897  44.397  55.635  1.00  0.00     0.074 A 
HETATM   23  C   UNL     1      29.893  45.082  56.853  1.00  0.00     0.061 A 
HETATM   24  C   UNL     1      30.876  43.422  55.429  1.00  0.00     0.032 A 
HETATM   25  C   UNL     1      28.851  46.099  57.053  1.00  0.00     0.259 A 
HETATM   26  C   UNL     1      30.841  44.820  57.847  1.00  0.00     0.019 A 
HETATM   27  O   UNL     1      28.784  46.782  58.068  1.00  0.00    -0.267 OA
HETATM   28  N   UNL     1      27.959  46.240  56.022  1.00  0.00    -0.307 N 
HETATM   29  H   UNL     1      27.276  46.973  56.152  1.00  0.00     0.170 HD
HETATM   30  C   UNL     1      31.813  43.846  57.624  1.00  0.00     0.001 A 
HETATM   31  C   UNL     1      31.828  43.147  56.417  1.00  0.00     0.002 A 
ENDBRANCH   4  20
TORSDOF 5
ENDMDL
MODEL 3
REMARK VINA RESULT:     -10.0      1.254      1.590
REMARK  5 active torsions:
REMARK  status: ('A' for Active; 'I' for Inactive)
REMARK    1  A    between atoms: C_4  and  O_5 
REMARK    2  A    between atoms: O_5  and  C_6 
REMARK    3  A    between atoms: C_6  and  C_7 
REMARK       I    between atoms: C_7  and  N_8 
REMARK    4  A    between atoms: N_8  and  C_9 
REMARK    5  A    between atoms: C_12  and  C_13 
ROOT
HETATM    1  C   UNL     1      24.671  46.306  50.751  1.00  0.00     0.034 A 
HETATM    2  C   UNL     1      25.104  47.062  51.842  1.00  0.00     0.030 A 
HETATM    3  C   UNL     1      26.098  46.580  52.700  1.00  0.00     0.017 A 
HETATM    4  C   UNL     1      26.675  45.327  52.474  1.00  0.00     0.010 A 
HETATM    5  C   UNL     1      26.210  44.539  51.417  1.00  0.00     0.017 A 
HETATM    6  C   UNL     1      25.219  45.031  50.557  1.00  0.00     0.030 A 
ENDROOT
BRANCH   1   7
HETATM    7  N   UNL     1      23.726  46.767  49.811  1.00  0.00    -0.325 N 
HETATM    8  C   UNL     1      23.632  48.038  49.272  1.00  0.00     0.246 C 
HETATM    9  O   UNL     1      24.304  49.017  49.593  1.00  0.00    -0.271 OA
HETATM   10  H   UNL     1      23.061  46.093  49.445  1.00  0.00     0.169 HD
BRANCH   8  11
HETATM   11  C   UNL     1      22.551  48.179  48.199  1.00  0.00     0.278 C 
BRANCH  11  12
HETATM   12  O   UNL     1      21.233  48.246  48.729  1.00  0.00    -0.342 OA
BRANCH  12  13
HETATM   13  C   UNL     1      20.554  49.413  48.484  1.00  0.00     0.069 A 
HETATM   14  C   UNL     1      19.714  49.656  47.391  1.00  0.00     0.043 A 
HETATM   15  C   UNL     1      19.057  50.888  47.250  1.00  0.00    -0.059 A 
HETATM   16  C   UNL     1      18.118  51.127  46.103  1.00  0.00     0.048 C 
HETATM   17  C   UNL     1      19.241  51.875  48.224  1.00  0.00     0.007 A 
HETATM   18  C   UNL     1      20.087  51.645  49.308  1.00  0.00     0.003 A 
HETATM   19  C   UNL     1      20.743  50.419  49.433  1.00  0.00     0.037 A 
ENDBRANCH  12  13
ENDBRANCH  11  12
ENDBRANCH   8  11
ENDBRANCH   1   7
BRANCH   4  20
HETATM   20  C   UNL     1      27.787  44.835  53.327  1.00  0.00     0.141 A 
HETATM   21  N   UNL     1      28.097  45.421  54.439  1.00  0.00    -0.230 NA
HETATM   22  C   UNL     1      29.162  44.891  55.193  1.00  0.00     0.074 A 
HETATM   23  C   UNL     1      29.864  43.746  54.807  1.00  0.00     0.061 A 
HETATM   24  C   UNL     1      29.542  45.532  56.375  1.00  0.00     0.032 A 
HETATM   25  C   UNL     1      29.454  43.092  53.556  1.00  0.00     0.259 A 
HETATM   26  C   UNL     1      30.914  43.234  55.575  1.00  0.00     0.019 A 
HETATM   27  O   UNL     1      29.979  42.061  53.151  1.00  0.00    -0.267 OA
HETATM   28  N   UNL     1      28.436  43.706  52.875  1.00  0.00    -0.307 N 
HETATM   29  H   UNL     1      28.133  43.223  52.042  1.00  0.00     0.170 HD
HETATM   30  C   UNL     1      31.278  43.883  56.753  1.00  0.00     0.001 A 
HETATM   31  C   UNL     1      30.593  45.031  57.151  1.00  0.00     0.002 A 
ENDBRANCH   4  20
TORSDOF 5
ENDMDL
MODEL 4
REMARK VINA RESULT:      -9.8      1.745      2.283
REMARK  5 active torsions:
REMARK  status: ('A' for Active; 'I' for Inactive)
REMARK    1  A    between atoms: C_4  and  O_5 
REMARK    2  A    between atoms: O_5  and  C_6 
REMARK    3  A    between atoms: C_6  and  C_7 
REMARK       I    between atoms: C_7  and  N_8 
REMARK    4  A    between atoms: N_8  and  C_9 
REMARK    5  A    between atoms: C_12  and  C_13 
ROOT
HETATM    1  C   UNL     1      24.281  45.798  50.411  1.00  0.00     0.034 A 
HETATM    2  C   UNL     1      24.234  44.568  51.072  1.00  0.00     0.030 A 
HETATM    3  C   UNL     1      25.305  44.138  51.864  1.00  0.00     0.017 A 
HETATM    4  C   UNL     1      26.441  44.939  52.005  1.00  0.00     0.010 A 
HETATM    5  C   UNL     1      26.521  46.146  51.305  1.00  0.00     0.017 A 
HETATM    6  C   UNL     1      25.443  46.575  50.519  1.00  0.00     0.030 A 
ENDROOT
BRANCH   1   7
HETATM    7  N   UNL     1      23.208  46.318  49.659  1.00  0.00    -0.325 N 
HETATM    8  C   UNL     1      22.687  45.812  48.481  1.00  0.00     0.246 C 
HETATM    9  O   UNL     1      23.135  44.867  47.833  1.00  0.00    -0.271 OA
HETATM   10  H   UNL     1      22.723  47.129  50.032  1.00  0.00     0.169 HD
BRANCH   8  11
HETATM   11  C   UNL     1      21.453  46.560  47.975  1.00  0.00     0.278 C 
BRANCH  11  12
HETATM   12  O   UNL     1      21.763  47.615  47.071  1.00  0.00    -0.342 OA
BRANCH  12  13
HETATM   13  C   UNL     1      21.803  48.872  47.620  1.00  0.00     0.069 A 
HETATM   14  C   UNL     1      20.698  49.700  47.849  1.00  0.00     0.043 A 
HETATM   15  C   UNL     1      20.858  50.966  48.432  1.00  0.00    -0.059 A 
HETATM   16  C   UNL     1      19.665  51.830  48.723  1.00  0.00     0.048 C 
HETATM   17  C   UNL     1      22.139  51.395  48.794  1.00  0.00     0.007 A 
HETATM   18  C   UNL     1      23.246  50.581  48.555  1.00  0.00     0.003 A 
HETATM   19  C   UNL     1      23.077  49.327  47.967  1.00  0.00     0.037 A 
ENDBRANCH  12  13
ENDBRANCH  11  12
ENDBRANCH   8  11
ENDBRANCH   1   7
BRANCH   4  20
HETATM   20  C   UNL     1      27.551  44.534  52.905  1.00  0.00     0.141 A 
HETATM   21  N   UNL     1      27.852  45.222  53.959  1.00  0.00    -0.230 NA
HETATM   22  C   UNL     1      28.916  44.770  54.765  1.00  0.00     0.074 A 
HETATM   23  C   UNL     1      29.624  43.598  54.491  1.00  0.00     0.061 A 
HETATM   24  C   UNL     1      29.287  45.520  55.883  1.00  0.00     0.032 A 
HETATM   25  C   UNL     1      29.224  42.828  53.305  1.00  0.00     0.259 A 
HETATM   26  C   UNL     1      30.673  43.165  55.309  1.00  0.00     0.019 A 
HETATM   27  O   UNL     1      29.755  41.766  53.000  1.00  0.00    -0.267 OA
HETATM   28  N   UNL     1      28.207  43.371  52.564  1.00  0.00    -0.307 N 
HETATM   29  H   UNL     1      27.911  42.810  51.779  1.00  0.00     0.170 HD
HETATM   30  C   UNL     1      31.028  43.923  56.423  1.00  0.00     0.001 A 
HETATM   31  C   UNL     1      30.336  45.100  56.708  1.00  0.00     0.002 A 
ENDBRANCH   4  20
TORSDOF 5
ENDMDL
MODEL 5
REMARK VINA RESULT:      -9.6      2.420     10.991
REMARK  5 active torsions:
REMARK  status: ('A' for Active; 'I' for Inactive)
REMARK    1  A    between atoms: C_4  and  O_5 
REMARK    2  A    between atoms: O_5  and  C_6 
REMARK    3  A    between atoms: C_6  and  C_7 
REMARK       I    between atoms: C_7  and  N_8 
REMARK    4  A    between atoms: N_8  and  C_9 
REMARK    5  A    between atoms: C_12  and  C_13 
ROOT
HETATM    1  C   UNL     1      24.748  45.563  50.213  1.00  0.00     0.034 A 
HETATM    2  C   UNL     1      24.838  46.944  50.409  1.00  0.00     0.030 A 
HETATM    3  C   UNL     1      23.885  47.809  49.861  1.00  0.00     0.017 A 
HETATM    4  C   UNL     1      22.824  47.301  49.107  1.00  0.00     0.010 A 
HETATM    5  C   UNL     1      22.755  45.927  48.859  1.00  0.00     0.017 A 
HETATM    6  C   UNL     1      23.709  45.064  49.416  1.00  0.00     0.030 A 
ENDROOT
BRANCH   1   7
HETATM    7  N   UNL     1      25.635  44.635  50.798  1.00  0.00    -0.325 N 
HETATM    8  C   UNL     1      26.982  44.477  50.524  1.00  0.00     0.246 C 
HETATM    9  O   UNL     1      27.621  45.060  49.650  1.00  0.00    -0.271 OA
HETATM   10  H   UNL     1      25.271  44.039  51.535  1.00  0.00     0.169 HD
BRANCH   8  11
HETATM   11  C   UNL     1      27.678  43.443  51.411  1.00  0.00     0.278 C 
BRANCH  11  12
HETATM   12  O   UNL     1      27.268  43.497  52.772  1.00  0.00    -0.342 OA
BRANCH  12  13
HETATM   13  C   UNL     1      28.261  43.769  53.679  1.00  0.00     0.069 A 
HETATM   14  C   UNL     1      28.239  44.796  54.631  1.00  0.00     0.043 A 
HETATM   15  C   UNL     1      29.309  44.971  55.522  1.00  0.00    -0.059 A 
HETATM   16  C   UNL     1      29.260  46.041  56.574  1.00  0.00     0.048 C 
HETATM   17  C   UNL     1      30.402  44.101  55.458  1.00  0.00     0.007 A 
HETATM   18  C   UNL     1      30.436  43.085  54.503  1.00  0.00     0.003 A 
HETATM   19  C   UNL     1      29.370  42.925  53.615  1.00  0.00     0.037 A 
ENDBRANCH  12  13
ENDBRANCH  11  12
ENDBRANCH   8  11
ENDBRANCH   1   7
BRANCH   4  20
HETATM   20  C   UNL     1      21.761  48.198  48.587  1.00  0.00     0.141 A 
HETATM   21  N   UNL     1      21.594  49.392  49.057  1.00  0.00    -0.230 NA
HETATM   22  C   UNL     1      20.565  50.183  48.508  1.00  0.00     0.074 A 
HETATM   23  C   UNL     1      19.752  49.742  47.461  1.00  0.00     0.061 A 
HETATM   24  C   UNL     1      20.339  51.459  49.029  1.00  0.00     0.032 A 
HETATM   25  C   UNL     1      20.001  48.394  46.933  1.00  0.00     0.259 A 
HETATM   26  C   UNL     1      18.741  50.548  46.927  1.00  0.00     0.019 A 
HETATM   27  O   UNL     1      19.370  47.930  45.990  1.00  0.00    -0.267 OA
HETATM   28  N   UNL     1      20.994  47.689  47.560  1.00  0.00    -0.307 N 
HETATM   29  H   UNL     1      21.187  46.783  47.160  1.00  0.00     0.170 HD
HETATM   30  C   UNL     1      18.531  51.820  47.455  1.00  0.00     0.001 A 
HETATM   31  C   UNL     1      19.328  52.274  48.506  1.00  0.00     0.002 A 
ENDBRANCH   4  20
TORSDOF 5
ENDMDL
MODEL 6
REMARK VINA RESULT:      -9.3      1.756      2.454
REMARK  5 active torsions:
REMARK  status: ('A' for Active; 'I' for Inactive)
REMARK    1  A    between atoms: C_4  and  O_5 
REMARK    2  A    between atoms: O_5  and  C_6 
REMARK    3  A    between atoms: C_6  and  C_7 
REMARK       I    between atoms: C_7  and  N_8 
REMARK    4  A    between atoms: N_8  and  C_9 
REMARK    5  A    between atoms: C_12  and  C_13 
ROOT
HETATM    1  C   UNL     1      24.131  46.639  50.224  1.00  0.00     0.034 A 
HETATM    2  C   UNL     1      24.135  45.265  50.478  1.00  0.00     0.030 A 
HETATM    3  C   UNL     1      25.174  44.672  51.204  1.00  0.00     0.017 A 
HETATM    4  C   UNL     1      26.228  45.452  51.687  1.00  0.00     0.010 A 
HETATM    5  C   UNL     1      26.262  46.818  51.392  1.00  0.00     0.017 A 
HETATM    6  C   UNL     1      25.215  47.407  50.671  1.00  0.00     0.030 A 
ENDROOT
BRANCH   1   7
HETATM    7  N   UNL     1      23.078  47.305  49.563  1.00  0.00    -0.325 N 
HETATM    8  C   UNL     1      22.419  46.898  48.417  1.00  0.00     0.246 C 
HETATM    9  O   UNL     1      22.702  45.926  47.719  1.00  0.00    -0.271 OA
HETATM   10  H   UNL     1      22.723  48.157  49.987  1.00  0.00     0.169 HD
BRANCH   8  11
HETATM   11  C   UNL     1      21.253  47.803  48.017  1.00  0.00     0.278 C 
BRANCH  11  12
HETATM   12  O   UNL     1      21.652  49.128  47.684  1.00  0.00    -0.342 OA
BRANCH  12  13
HETATM   13  C   UNL     1      20.647  50.061  47.660  1.00  0.00     0.069 A 
HETATM   14  C   UNL     1      19.554  50.063  46.787  1.00  0.00     0.043 A 
HETATM   15  C   UNL     1      18.574  51.066  46.865  1.00  0.00    -0.059 A 
HETATM   16  C   UNL     1      17.377  51.036  45.960  1.00  0.00     0.048 C 
HETATM   17  C   UNL     1      18.696  52.065  47.835  1.00  0.00     0.007 A 
HETATM   18  C   UNL     1      19.790  52.078  48.699  1.00  0.00     0.003 A 
HETATM   19  C   UNL     1      20.763  51.081  48.607  1.00  0.00     0.037 A 
ENDBRANCH  12  13
ENDBRANCH  11  12
ENDBRANCH   8  11
ENDBRANCH   1   7
BRANCH   4  20
HETATM   20  C   UNL     1      27.296  44.852  52.526  1.00  0.00     0.141 A 
HETATM   21  N   UNL     1      27.702  45.423  53.615  1.00  0.00    -0.230 NA
HETATM   22  C   UNL     1      28.717  44.789  54.358  1.00  0.00     0.074 A 
HETATM   23  C   UNL     1      29.268  43.560  53.987  1.00  0.00     0.061 A 
HETATM   24  C   UNL     1      29.200  45.408  55.514  1.00  0.00     0.032 A 
HETATM   25  C   UNL     1      28.751  42.929  52.764  1.00  0.00     0.259 A 
HETATM   26  C   UNL     1      30.270  42.945  54.744  1.00  0.00     0.019 A 
HETATM   27  O   UNL     1      29.140  41.834  52.375  1.00  0.00    -0.267 OA
HETATM   28  N   UNL     1      27.796  43.644  52.090  1.00  0.00    -0.307 N 
HETATM   29  H   UNL     1      27.416  43.180  51.278  1.00  0.00     0.170 HD
HETATM   30  C   UNL     1      30.739  43.574  55.896  1.00  0.00     0.001 A 
HETATM   31  C   UNL     1      30.205  44.805  56.279  1.00  0.00     0.002 A 
ENDBRANCH   4  20
TORSDOF 5
ENDMDL
MODEL 7
REMARK VINA RESULT:      -9.2      2.125      3.007
REMARK  5 active torsions:
REMARK  status: ('A' for Active; 'I' for Inactive)
REMARK    1  A    between atoms: C_4  and  O_5 
REMARK    2  A    between atoms: O_5  and  C_6 
REMARK    3  A    between atoms: C_6  and  C_7 
REMARK       I    between atoms: C_7  and  N_8 
REMARK    4  A    between atoms: N_8  and  C_9 
REMARK    5  A    between atoms: C_12  and  C_13 
ROOT
HETATM    1  C   UNL     1      24.131  45.217  50.599  1.00  0.00     0.034 A 
HETATM    2  C   UNL     1      24.439  44.019  51.250  1.00  0.00     0.030 A 
HETATM    3  C   UNL     1      25.464  43.962  52.201  1.00  0.00     0.017 A 
HETATM    4  C   UNL     1      26.197  45.110  52.514  1.00  0.00     0.010 A 
HETATM    5  C   UNL     1      25.934  46.300  51.829  1.00  0.00     0.017 A 
HETATM    6  C   UNL     1      24.902  46.353  50.883  1.00  0.00     0.030 A 
ENDROOT
BRANCH   1   7
HETATM    7  N   UNL     1      23.065  45.354  49.686  1.00  0.00    -0.325 N 
HETATM    8  C   UNL     1      23.001  44.865  48.393  1.00  0.00     0.246 C 
HETATM    9  O   UNL     1      23.907  44.302  47.781  1.00  0.00    -0.271 OA
HETATM   10  H   UNL     1      22.226  45.824  50.012  1.00  0.00     0.169 HD
BRANCH   8  11
HETATM   11  C   UNL     1      21.656  45.104  47.705  1.00  0.00     0.278 C 
BRANCH  11  12
HETATM   12  O   UNL     1      21.582  46.351  47.025  1.00  0.00    -0.342 OA
BRANCH  12  13
HETATM   13  C   UNL     1      21.195  47.422  47.791  1.00  0.00     0.069 A 
HETATM   14  C   UNL     1      21.833  48.667  47.837  1.00  0.00     0.043 A 
HETATM   15  C   UNL     1      21.337  49.698  48.650  1.00  0.00    -0.059 A 
HETATM   16  C   UNL     1      21.994  51.048  48.658  1.00  0.00     0.048 C 
HETATM   17  C   UNL     1      20.186  49.473  49.413  1.00  0.00     0.007 A 
HETATM   18  C   UNL     1      19.555  48.230  49.383  1.00  0.00     0.003 A 
HETATM   19  C   UNL     1      20.061  47.209  48.578  1.00  0.00     0.037 A 
ENDBRANCH  12  13
ENDBRANCH  11  12
ENDBRANCH   8  11
ENDBRANCH   1   7
BRANCH   4  20
HETATM   20  C   UNL     1      27.233  45.085  53.578  1.00  0.00     0.141 A 
HETATM   21  N   UNL     1      28.170  44.192  53.589  1.00  0.00    -0.230 NA
HETATM   22  C   UNL     1      29.117  44.238  54.631  1.00  0.00     0.074 A 
HETATM   23  C   UNL     1      29.104  45.225  55.619  1.00  0.00     0.061 A 
HETATM   24  C   UNL     1      30.112  43.259  54.687  1.00  0.00     0.032 A 
HETATM   25  C   UNL     1      28.045  46.240  55.547  1.00  0.00     0.259 A 
HETATM   26  C   UNL     1      30.060  45.255  56.640  1.00  0.00     0.019 A 
HETATM   27  O   UNL     1      27.970  47.170  56.342  1.00  0.00    -0.267 OA
HETATM   28  N   UNL     1      27.149  46.086  54.522  1.00  0.00    -0.307 N 
HETATM   29  H   UNL     1      26.453  46.815  54.455  1.00  0.00     0.170 HD
HETATM   30  C   UNL     1      31.048  44.272  56.680  1.00  0.00     0.001 A 
HETATM   31  C   UNL     1      31.072  43.275  55.705  1.00  0.00     0.002 A 
ENDBRANCH   4  20
TORSDOF 5
ENDMDL
MODEL 8
REMARK VINA RESULT:      -9.0      3.181     10.935
REMARK  5 active torsions:
REMARK  status: ('A' for Active; 'I' for Inactive)
REMARK    1  A    between atoms: C_4  and  O_5 
REMARK    2  A    between atoms: O_5  and  C_6 
REMARK    3  A    between atoms: C_6  and  C_7 
REMARK       I    between atoms: C_7  and  N_8 
REMARK    4  A    between atoms: N_8  and  C_9 
REMARK    5  A    between atoms: C_12  and  C_13 
ROOT
HETATM    1  C   UNL     1      24.387  45.116  49.212  1.00  0.00     0.034 A 
HETATM    2  C   UNL     1      24.781  46.340  49.759  1.00  0.00     0.030 A 
HETATM    3  C   UNL     1      23.987  47.482  49.609  1.00  0.00     0.017 A 
HETATM    4  C   UNL     1      22.780  47.412  48.908  1.00  0.00     0.010 A 
HETATM    5  C   UNL     1      22.403  46.206  48.311  1.00  0.00     0.017 A 
HETATM    6  C   UNL     1      23.199  45.064  48.469  1.00  0.00     0.030 A 
ENDROOT
BRANCH   1   7
HETATM    7  N   UNL     1      25.107  43.917  49.389  1.00  0.00    -0.325 N 
HETATM    8  C   UNL     1      24.891  42.944  50.350  1.00  0.00     0.246 C 
HETATM    9  O   UNL     1      24.088  43.003  51.279  1.00  0.00    -0.271 OA
HETATM   10  H   UNL     1      25.840  43.706  48.719  1.00  0.00     0.169 HD
BRANCH   8  11
HETATM   11  C   UNL     1      25.789  41.715  50.201  1.00  0.00     0.278 C 
BRANCH  11  12
HETATM   12  O   UNL     1      27.177  42.023  50.216  1.00  0.00    -0.342 OA
BRANCH  12  13
HETATM   13  C   UNL     1      27.738  42.170  51.460  1.00  0.00     0.069 A 
HETATM   14  C   UNL     1      27.878  43.376  52.156  1.00  0.00     0.043 A 
HETATM   15  C   UNL     1      28.456  43.405  53.434  1.00  0.00    -0.059 A 
HETATM   16  C   UNL     1      28.559  44.693  54.198  1.00  0.00     0.048 C 
HETATM   17  C   UNL     1      28.887  42.208  54.016  1.00  0.00     0.007 A 
HETATM   18  C   UNL     1      28.764  41.005  53.322  1.00  0.00     0.003 A 
HETATM   19  C   UNL     1      28.195  40.989  52.048  1.00  0.00     0.037 A 
ENDBRANCH  12  13
ENDBRANCH  11  12
ENDBRANCH   8  11
ENDBRANCH   1   7
BRANCH   4  20
HETATM   20  C   UNL     1      21.887  48.594  48.810  1.00  0.00     0.141 A 
HETATM   21  N   UNL     1      21.046  48.729  47.834  1.00  0.00    -0.230 NA
HETATM   22  C   UNL     1      20.232  49.877  47.815  1.00  0.00     0.074 A 
HETATM   23  C   UNL     1      20.270  50.847  48.819  1.00  0.00     0.061 A 
HETATM   24  C   UNL     1      19.347  50.064  46.749  1.00  0.00     0.032 A 
HETATM   25  C   UNL     1      21.212  50.636  49.927  1.00  0.00     0.259 A 
HETATM   26  C   UNL     1      19.446  51.976  48.782  1.00  0.00     0.019 A 
HETATM   27  O   UNL     1      21.295  51.407  50.876  1.00  0.00    -0.267 OA
HETATM   28  N   UNL     1      21.989  49.511  49.834  1.00  0.00    -0.307 N 
HETATM   29  H   UNL     1      22.600  49.353  50.622  1.00  0.00     0.170 HD
HETATM   30  C   UNL     1      18.567  52.146  47.714  1.00  0.00     0.001 A 
HETATM   31  C   UNL     1      18.520  51.191  46.698  1.00  0.00     0.002 A 
ENDBRANCH   4  20
TORSDOF 5
ENDMDL
MODEL 9
REMARK VINA RESULT:      -8.7      1.956      2.846
REMARK  5 active torsions:
REMARK  status: ('A' for Active; 'I' for Inactive)
REMARK    1  A    between atoms: C_4  and  O_5 
REMARK    2  A    between atoms: O_5  and  C_6 
REMARK    3  A    between atoms: C_6  and  C_7 
REMARK       I    between atoms: C_7  and  N_8 
REMARK    4  A    between atoms: N_8  and  C_9 
REMARK    5  A    between atoms: C_12  and  C_13 
ROOT
HETATM    1  C   UNL     1      23.951  46.026  50.214  1.00  0.00     0.034 A 
HETATM    2  C   UNL     1      24.695  47.102  50.705  1.00  0.00     0.030 A 
HETATM    3  C   UNL     1      25.660  46.913  51.700  1.00  0.00     0.017 A 
HETATM    4  C   UNL     1      25.894  45.637  52.219  1.00  0.00     0.010 A 
HETATM    5  C   UNL     1      25.119  44.563  51.775  1.00  0.00     0.017 A 
HETATM    6  C   UNL     1      24.158  44.757  50.773  1.00  0.00     0.030 A 
ENDROOT
BRANCH   1   7
HETATM    7  N   UNL     1      23.017  46.140  49.164  1.00  0.00    -0.325 N 
HETATM    8  C   UNL     1      22.726  47.270  48.421  1.00  0.00     0.246 C 
HETATM    9  O   UNL     1      23.168  48.401  48.612  1.00  0.00    -0.271 OA
HETATM   10  H   UNL     1      22.527  45.297  48.879  1.00  0.00     0.169 HD
BRANCH   8  11
HETATM   11  C   UNL     1      21.732  47.027  47.284  1.00  0.00     0.278 C 
BRANCH  11  12
HETATM   12  O   UNL     1      20.400  46.806  47.735  1.00  0.00    -0.342 OA
BRANCH  12  13
HETATM   13  C   UNL     1      19.680  47.936  48.030  1.00  0.00     0.069 A 
HETATM   14  C   UNL     1      19.363  48.961  47.132  1.00  0.00     0.043 A 
HETATM   15  C   UNL     1      18.604  50.068  47.544  1.00  0.00    -0.059 A 
HETATM   16  C   UNL     1      18.223  51.141  46.565  1.00  0.00     0.048 C 
HETATM   17  C   UNL     1      18.156  50.134  48.867  1.00  0.00     0.007 A 
HETATM   18  C   UNL     1      18.480  49.123  49.771  1.00  0.00     0.003 A 
HETATM   19  C   UNL     1      19.243  48.031  49.353  1.00  0.00     0.037 A 
ENDBRANCH  12  13
ENDBRANCH  11  12
ENDBRANCH   8  11
ENDBRANCH   1   7
BRANCH   4  20
HETATM   20  C   UNL     1      26.970  45.407  53.216  1.00  0.00     0.141 A 
HETATM   21  N   UNL     1      27.837  44.456  53.070  1.00  0.00    -0.230 NA
HETATM   22  C   UNL     1      28.829  44.305  54.058  1.00  0.00     0.074 A 
HETATM   23  C   UNL     1      28.934  45.159  55.159  1.00  0.00     0.061 A 
HETATM   24  C   UNL     1      29.748  43.260  53.943  1.00  0.00     0.032 A 
HETATM   25  C   UNL     1      27.952  46.248  55.266  1.00  0.00     0.259 A 
HETATM   26  C   UNL     1      29.932  44.994  56.124  1.00  0.00     0.019 A 
HETATM   27  O   UNL     1      27.982  47.074  56.171  1.00  0.00    -0.267 OA
HETATM   28  N   UNL     1      27.003  46.285  54.278  1.00  0.00    -0.307 N 
HETATM   29  H   UNL     1      26.363  47.064  54.337  1.00  0.00     0.170 HD
HETATM   30  C   UNL     1      30.843  43.948  55.993  1.00  0.00     0.001 A 
HETATM   31  C   UNL     1      30.750  43.082  54.904  1.00  0.00     0.002 A 
ENDBRANCH   4  20
TORSDOF 5
ENDMDL
MODEL 10
REMARK VINA RESULT:      -8.5     12.910     16.493
REMARK  5 active torsions:
REMARK  status: ('A' for Active; 'I' for Inactive)
REMARK    1  A    between atoms: C_4  and  O_5 
REMARK    2  A    between atoms: O_5  and  C_6 
REMARK    3  A    between atoms: C_6  and  C_7 
REMARK       I    between atoms: C_7  and  N_8 
REMARK    4  A    between atoms: N_8  and  C_9 
REMARK    5  A    between atoms: C_12  and  C_13 
ROOT
HETATM    1  C   UNL     1      34.587  51.657  43.581  1.00  0.00     0.034 A 
HETATM    2  C   UNL     1      33.309  51.848  44.113  1.00  0.00     0.030 A 
HETATM    3  C   UNL     1      32.192  51.234  43.536  1.00  0.00     0.017 A 
HETATM    4  C   UNL     1      32.341  50.417  42.412  1.00  0.00     0.010 A 
HETATM    5  C   UNL     1      33.606  50.263  41.839  1.00  0.00     0.017 A 
HETATM    6  C   UNL     1      34.723  50.875  42.426  1.00  0.00     0.030 A 
ENDROOT
BRANCH   1   7
HETATM    7  N   UNL     1      35.758  52.188  44.159  1.00  0.00    -0.325 N 
HETATM    8  C   UNL     1      36.620  53.116  43.602  1.00  0.00     0.246 C 
HETATM    9  O   UNL     1      36.564  53.569  42.460  1.00  0.00    -0.271 OA
HETATM   10  H   UNL     1      35.984  51.903  45.107  1.00  0.00     0.169 HD
BRANCH   8  11
HETATM   11  C   UNL     1      37.746  53.558  44.538  1.00  0.00     0.278 C 
BRANCH  11  12
HETATM   12  O   UNL     1      37.848  52.765  45.715  1.00  0.00    -0.342 OA
BRANCH  12  13
HETATM   13  C   UNL     1      38.827  53.140  46.599  1.00  0.00     0.069 A 
HETATM   14  C   UNL     1      40.196  53.217  46.318  1.00  0.00     0.043 A 
HETATM   15  C   UNL     1      41.109  53.630  47.301  1.00  0.00    -0.059 A 
HETATM   16  C   UNL     1      42.570  53.760  46.981  1.00  0.00     0.048 C 
HETATM   17  C   UNL     1      40.636  53.974  48.571  1.00  0.00     0.007 A 
HETATM   18  C   UNL     1      39.275  53.885  48.863  1.00  0.00     0.003 A 
HETATM   19  C   UNL     1      38.377  53.465  47.880  1.00  0.00     0.037 A 
ENDBRANCH  12  13
ENDBRANCH  11  12
ENDBRANCH   8  11
ENDBRANCH   1   7
BRANCH   4  20
HETATM   20  C   UNL     1      31.178  49.695  41.836  1.00  0.00     0.141 A 
HETATM   21  N   UNL     1      31.328  48.604  41.155  1.00  0.00    -0.230 NA
HETATM   22  C   UNL     1      30.175  47.977  40.645  1.00  0.00     0.074 A 
HETATM   23  C   UNL     1      28.886  48.462  40.878  1.00  0.00     0.061 A 
HETATM   24  C   UNL     1      30.317  46.822  39.872  1.00  0.00     0.032 A 
HETATM   25  C   UNL     1      28.760  49.682  41.688  1.00  0.00     0.259 A 
HETATM   26  C   UNL     1      27.755  47.818  40.368  1.00  0.00     0.019 A 
HETATM   27  O   UNL     1      27.673  50.166  41.982  1.00  0.00    -0.267 OA
HETATM   28  N   UNL     1      29.940  50.240  42.102  1.00  0.00    -0.307 N 
HETATM   29  H   UNL     1      29.839  51.051  42.695  1.00  0.00     0.170 HD
HETATM   30  C   UNL     1      27.913  46.665  39.601  1.00  0.00     0.001 A 
HETATM   31  C   UNL     1      29.193  46.170  39.352  1.00  0.00     0.002 A 
ENDBRANCH   4  20
TORSDOF 5
ENDMDL
