MODEL 1
REMARK VINA RESULT:      -8.0      0.000      0.000
REMARK  4 active torsions:
REMARK  status: ('A' for Active; 'I' for Inactive)
REMARK    1  A    between atoms: N_4  and  C_5 
REMARK    2  A    between atoms: C_16  and  C_17 
REMARK    3  A    between atoms: C_24  and  C_25 
REMARK    4  A    between atoms: C_25  and  O_26 
ROOT
HETATM    1  C   UNL     1      20.463  51.255  48.369  1.00  0.00     0.073 C 
HETATM    2  C   UNL     1      21.435  50.134  48.383  1.00  0.00     0.065 A 
HETATM    3  N   UNL     1      22.733  50.372  48.572  1.00  0.00    -0.170 NA
HETATM    4  N   UNL     1      23.336  49.142  48.551  1.00  0.00    -0.215 N 
HETATM    5  C   UNL     1      22.404  48.133  48.300  1.00  0.00     0.165 A 
HETATM    6  C   UNL     1      21.168  48.758  48.219  1.00  0.00     0.039 A 
HETATM    7  N   UNL     1      22.613  46.801  48.181  1.00  0.00    -0.216 NA
HETATM    8  C   UNL     1      21.489  46.072  47.998  1.00  0.00     0.137 A 
HETATM    9 CL   UNL     1      21.859  44.391  47.881  1.00  0.00    -0.062 Cl
HETATM   10  C   UNL     1      20.185  46.563  47.927  1.00  0.00     0.011 A 
HETATM   11  C   UNL     1      20.030  47.960  48.025  1.00  0.00     0.030 A 
ENDROOT
BRANCH  10  12
HETATM   12  C   UNL     1      18.962  45.669  47.804  1.00  0.00     0.164 C 
HETATM   13  N   UNL     1      17.923  46.165  48.695  1.00  0.00    -0.330 N 
HETATM   14  C   UNL     1      16.825  46.852  48.294  1.00  0.00     0.321 C 
HETATM   15  H   UNL     1      18.101  46.202  49.691  1.00  0.00     0.165 HD
HETATM   16  O   UNL     1      16.098  47.427  49.095  1.00  0.00    -0.247 OA
HETATM   17  N   UNL     1      16.565  46.841  46.957  1.00  0.00    -0.312 N 
HETATM   18  C   UNL     1      17.298  46.164  46.008  1.00  0.00     0.024 C 
HETATM   19  H   UNL     1      15.706  47.313  46.696  1.00  0.00     0.170 HD
HETATM   20  C   UNL     1      16.722  46.146  44.621  1.00  0.00     0.069 C 
HETATM   21  C   UNL     1      18.442  45.563  46.393  1.00  0.00     0.067 C 
BRANCH  21  22
HETATM   22  C   UNL     1      19.258  44.798  45.421  1.00  0.00     0.293 C 
HETATM   23  O   UNL     1      20.067  45.293  44.653  1.00  0.00    -0.259 OA
BRANCH  22  24
HETATM   24  O   UNL     1      18.943  43.483  45.504  1.00  0.00    -0.323 OA
HETATM   25  C   UNL     1      19.993  42.603  45.096  1.00  0.00     0.213 C 
ENDBRANCH  22  24
ENDBRANCH  21  22
ENDBRANCH  10  12
BRANCH   4  26
HETATM   26  C   UNL     1      24.739  49.045  48.800  1.00  0.00     0.060 A 
HETATM   27  C   UNL     1      25.607  49.969  48.191  1.00  0.00     0.031 A 
HETATM   28  C   UNL     1      26.982  49.922  48.433  1.00  0.00     0.002 A 
HETATM   29  C   UNL     1      27.507  48.950  49.280  1.00  0.00     0.000 A 
HETATM   30  C   UNL     1      26.657  48.026  49.884  1.00  0.00     0.002 A 
HETATM   31  C   UNL     1      25.279  48.070  49.649  1.00  0.00     0.031 A 
ENDBRANCH   4  26
TORSDOF 4
ENDMDL
MODEL 2
REMARK VINA RESULT:      -8.0      7.572      9.514
REMARK  4 active torsions:
REMARK  status: ('A' for Active; 'I' for Inactive)
REMARK    1  A    between atoms: N_4  and  C_5 
REMARK    2  A    between atoms: C_16  and  C_17 
REMARK    3  A    between atoms: C_24  and  C_25 
REMARK    4  A    between atoms: C_25  and  O_26 
ROOT
HETATM    1  C   UNL     1      25.653  45.821  51.746  1.00  0.00     0.073 C 
HETATM    2  C   UNL     1      26.686  44.891  52.267  1.00  0.00     0.065 A 
HETATM    3  N   UNL     1      27.480  45.263  53.271  1.00  0.00    -0.170 NA
HETATM    4  N   UNL     1      28.286  44.183  53.516  1.00  0.00    -0.215 N 
HETATM    5  C   UNL     1      28.019  43.145  52.621  1.00  0.00     0.165 A 
HETATM    6  C   UNL     1      26.966  43.580  51.827  1.00  0.00     0.039 A 
HETATM    7  N   UNL     1      28.618  41.936  52.527  1.00  0.00    -0.216 NA
HETATM    8  C   UNL     1      28.087  41.119  51.588  1.00  0.00     0.137 A 
HETATM    9 CL   UNL     1      28.903  39.599  51.563  1.00  0.00    -0.062 Cl
HETATM   10  C   UNL     1      27.016  41.413  50.745  1.00  0.00     0.011 A 
HETATM   11  C   UNL     1      26.452  42.699  50.864  1.00  0.00     0.030 A 
ENDROOT
BRANCH  10  12
HETATM   12  C   UNL     1      26.421  40.411  49.770  1.00  0.00     0.164 C 
HETATM   13  N   UNL     1      25.011  40.721  49.574  1.00  0.00    -0.330 N 
HETATM   14  C   UNL     1      24.500  41.319  48.471  1.00  0.00     0.321 C 
HETATM   15  H   UNL     1      24.384  40.694  50.367  1.00  0.00     0.165 HD
HETATM   16  O   UNL     1      23.352  41.748  48.446  1.00  0.00    -0.247 OA
HETATM   17  N   UNL     1      25.324  41.391  47.389  1.00  0.00    -0.312 N 
HETATM   18  C   UNL     1      26.598  40.874  47.323  1.00  0.00     0.024 C 
HETATM   19  H   UNL     1      24.892  41.792  46.563  1.00  0.00     0.170 HD
HETATM   20  C   UNL     1      27.253  40.910  45.971  1.00  0.00     0.069 C 
HETATM   21  C   UNL     1      27.142  40.367  48.447  1.00  0.00     0.067 C 
BRANCH  21  22
HETATM   22  C   UNL     1      28.499  39.773  48.429  1.00  0.00     0.293 C 
HETATM   23  O   UNL     1      29.534  40.411  48.327  1.00  0.00    -0.259 OA
BRANCH  22  24
HETATM   24  O   UNL     1      28.403  38.424  48.515  1.00  0.00    -0.323 OA
HETATM   25  C   UNL     1      28.765  37.733  47.317  1.00  0.00     0.213 C 
ENDBRANCH  22  24
ENDBRANCH  21  22
ENDBRANCH  10  12
BRANCH   4  26
HETATM   26  C   UNL     1      29.217  44.234  54.600  1.00  0.00     0.060 A 
HETATM   27  C   UNL     1      29.202  45.346  55.461  1.00  0.00     0.031 A 
HETATM   28  C   UNL     1      30.078  45.418  56.547  1.00  0.00     0.002 A 
HETATM   29  C   UNL     1      30.981  44.385  56.782  1.00  0.00     0.000 A 
HETATM   30  C   UNL     1      31.008  43.282  55.932  1.00  0.00     0.002 A 
HETATM   31  C   UNL     1      30.131  43.202  54.845  1.00  0.00     0.031 A 
ENDBRANCH   4  26
TORSDOF 4
ENDMDL
MODEL 3
REMARK VINA RESULT:      -7.9      6.685      8.494
REMARK  4 active torsions:
REMARK  status: ('A' for Active; 'I' for Inactive)
REMARK    1  A    between atoms: N_4  and  C_5 
REMARK    2  A    between atoms: C_16  and  C_17 
REMARK    3  A    between atoms: C_24  and  C_25 
REMARK    4  A    between atoms: C_25  and  O_26 
ROOT
HETATM    1  C   UNL     1      24.965  45.620  50.519  1.00  0.00     0.073 C 
HETATM    2  C   UNL     1      26.012  44.674  50.978  1.00  0.00     0.065 A 
HETATM    3  N   UNL     1      26.815  45.001  51.991  1.00  0.00    -0.170 NA
HETATM    4  N   UNL     1      27.634  43.917  52.170  1.00  0.00    -0.215 N 
HETATM    5  C   UNL     1      27.364  42.925  51.226  1.00  0.00     0.165 A 
HETATM    6  C   UNL     1      26.299  43.390  50.468  1.00  0.00     0.039 A 
HETATM    7  N   UNL     1      27.972  41.727  51.062  1.00  0.00    -0.216 NA
HETATM    8  C   UNL     1      27.437  40.956  50.088  1.00  0.00     0.137 A 
HETATM    9 CL   UNL     1      28.265  39.447  49.975  1.00  0.00    -0.062 Cl
HETATM   10  C   UNL     1      26.353  41.283  49.275  1.00  0.00     0.011 A 
HETATM   11  C   UNL     1      25.780  42.555  49.467  1.00  0.00     0.030 A 
ENDROOT
BRANCH  10  12
HETATM   12  C   UNL     1      25.755  40.326  48.257  1.00  0.00     0.164 C 
HETATM   13  N   UNL     1      24.310  40.283  48.440  1.00  0.00    -0.330 N 
HETATM   14  C   UNL     1      23.411  40.893  47.630  1.00  0.00     0.321 C 
HETATM   15  H   UNL     1      23.933  39.968  49.324  1.00  0.00     0.165 HD
HETATM   16  O   UNL     1      22.233  41.005  47.946  1.00  0.00    -0.247 OA
HETATM   17  N   UNL     1      23.888  41.349  46.438  1.00  0.00    -0.312 N 
HETATM   18  C   UNL     1      25.181  41.201  45.989  1.00  0.00     0.024 C 
HETATM   19  H   UNL     1      23.180  41.747  45.831  1.00  0.00     0.170 HD
HETATM   20  C   UNL     1      25.436  41.620  44.569  1.00  0.00     0.069 C 
HETATM   21  C   UNL     1      26.096  40.682  46.833  1.00  0.00     0.067 C 
BRANCH  21  22
HETATM   22  C   UNL     1      27.496  40.476  46.394  1.00  0.00     0.293 C 
HETATM   23  O   UNL     1      28.376  41.319  46.461  1.00  0.00    -0.259 OA
BRANCH  22  24
HETATM   24  O   UNL     1      27.632  39.225  45.890  1.00  0.00    -0.323 OA
HETATM   25  C   UNL     1      28.355  39.165  44.659  1.00  0.00     0.213 C 
ENDBRANCH  22  24
ENDBRANCH  21  22
ENDBRANCH  10  12
BRANCH   4  26
HETATM   26  C   UNL     1      28.577  43.921  53.244  1.00  0.00     0.060 A 
HETATM   27  C   UNL     1      28.408  44.835  54.299  1.00  0.00     0.031 A 
HETATM   28  C   UNL     1      29.294  44.850  55.379  1.00  0.00     0.002 A 
HETATM   29  C   UNL     1      30.361  43.957  55.415  1.00  0.00     0.000 A 
HETATM   30  C   UNL     1      30.543  43.051  54.372  1.00  0.00     0.002 A 
HETATM   31  C   UNL     1      29.656  43.029  53.289  1.00  0.00     0.031 A 
ENDBRANCH   4  26
TORSDOF 4
ENDMDL
MODEL 4
REMARK VINA RESULT:      -7.8     11.230     14.682
REMARK  4 active torsions:
REMARK  status: ('A' for Active; 'I' for Inactive)
REMARK    1  A    between atoms: N_4  and  C_5 
REMARK    2  A    between atoms: C_16  and  C_17 
REMARK    3  A    between atoms: C_24  and  C_25 
REMARK    4  A    between atoms: C_25  and  O_26 
ROOT
HETATM    1  C   UNL     1      30.698  46.796  39.791  1.00  0.00     0.073 C 
HETATM    2  C   UNL     1      29.747  47.909  39.548  1.00  0.00     0.065 A 
HETATM    3  N   UNL     1      28.552  47.666  39.010  1.00  0.00    -0.170 NA
HETATM    4  N   UNL     1      27.928  48.885  38.946  1.00  0.00    -0.215 N 
HETATM    5  C   UNL     1      28.767  49.901  39.407  1.00  0.00     0.165 A 
HETATM    6  C   UNL     1      29.935  49.280  39.826  1.00  0.00     0.039 A 
HETATM    7  N   UNL     1      28.523  51.230  39.476  1.00  0.00    -0.216 NA
HETATM    8  C   UNL     1      29.521  51.955  40.033  1.00  0.00     0.137 A 
HETATM    9 CL   UNL     1      29.105  53.628  40.096  1.00  0.00    -0.062 Cl
HETATM   10  C   UNL     1      30.729  51.460  40.522  1.00  0.00     0.011 A 
HETATM   11  C   UNL     1      30.943  50.073  40.394  1.00  0.00     0.030 A 
ENDROOT
BRANCH  10  12
HETATM   12  C   UNL     1      31.768  52.328  41.212  1.00  0.00     0.164 C 
HETATM   13  N   UNL     1      31.628  52.178  42.654  1.00  0.00    -0.330 N 
HETATM   14  C   UNL     1      32.461  51.453  43.440  1.00  0.00     0.321 C 
HETATM   15  H   UNL     1      30.756  52.441  43.096  1.00  0.00     0.165 HD
HETATM   16  O   UNL     1      32.179  51.186  44.601  1.00  0.00    -0.247 OA
HETATM   17  N   UNL     1      33.637  51.065  42.871  1.00  0.00    -0.312 N 
HETATM   18  C   UNL     1      34.048  51.384  41.597  1.00  0.00     0.024 C 
HETATM   19  H   UNL     1      34.262  50.575  43.502  1.00  0.00     0.170 HD
HETATM   20  C   UNL     1      35.459  51.001  41.247  1.00  0.00     0.069 C 
HETATM   21  C   UNL     1      33.181  52.020  40.785  1.00  0.00     0.067 C 
BRANCH  21  22
HETATM   22  C   UNL     1      33.579  52.411  39.412  1.00  0.00     0.293 C 
HETATM   23  O   UNL     1      33.597  51.657  38.453  1.00  0.00    -0.259 OA
BRANCH  22  24
HETATM   24  O   UNL     1      33.939  53.717  39.401  1.00  0.00    -0.323 OA
HETATM   25  C   UNL     1      35.329  53.940  39.154  1.00  0.00     0.213 C 
ENDBRANCH  22  24
ENDBRANCH  21  22
ENDBRANCH  10  12
BRANCH   4  26
HETATM   26  C   UNL     1      26.581  48.958  38.475  1.00  0.00     0.060 A 
HETATM   27  C   UNL     1      26.266  48.417  37.215  1.00  0.00     0.031 A 
HETATM   28  C   UNL     1      24.955  48.446  36.735  1.00  0.00     0.002 A 
HETATM   29  C   UNL     1      23.945  49.019  37.502  1.00  0.00     0.000 A 
HETATM   30  C   UNL     1      24.246  49.563  38.749  1.00  0.00     0.002 A 
HETATM   31  C   UNL     1      25.557  49.534  39.238  1.00  0.00     0.031 A 
ENDBRANCH   4  26
TORSDOF 4
ENDMDL
MODEL 5
REMARK VINA RESULT:      -7.8     11.372     14.718
REMARK  4 active torsions:
REMARK  status: ('A' for Active; 'I' for Inactive)
REMARK    1  A    between atoms: N_4  and  C_5 
REMARK    2  A    between atoms: C_16  and  C_17 
REMARK    3  A    between atoms: C_24  and  C_25 
REMARK    4  A    between atoms: C_25  and  O_26 
ROOT
HETATM    1  C   UNL     1      36.221  51.261  39.299  1.00  0.00     0.073 C 
HETATM    2  C   UNL     1      36.100  51.559  40.748  1.00  0.00     0.065 A 
HETATM    3  N   UNL     1      37.184  51.857  41.465  1.00  0.00    -0.170 NA
HETATM    4  N   UNL     1      36.725  52.096  42.734  1.00  0.00    -0.215 N 
HETATM    5  C   UNL     1      35.345  51.898  42.813  1.00  0.00     0.165 A 
HETATM    6  C   UNL     1      34.925  51.579  41.529  1.00  0.00     0.039 A 
HETATM    7  N   UNL     1      34.537  52.011  43.892  1.00  0.00    -0.216 NA
HETATM    8  C   UNL     1      33.224  51.814  43.631  1.00  0.00     0.137 A 
HETATM    9 CL   UNL     1      32.278  52.001  45.062  1.00  0.00    -0.062 Cl
HETATM   10  C   UNL     1      32.661  51.519  42.390  1.00  0.00     0.011 A 
HETATM   11  C   UNL     1      33.554  51.381  41.308  1.00  0.00     0.030 A 
ENDROOT
BRANCH  10  12
HETATM   12  C   UNL     1      31.165  51.395  42.160  1.00  0.00     0.164 C 
HETATM   13  N   UNL     1      30.624  52.710  41.846  1.00  0.00    -0.330 N 
HETATM   14  C   UNL     1      30.260  53.119  40.606  1.00  0.00     0.321 C 
HETATM   15  H   UNL     1      30.707  53.454  42.527  1.00  0.00     0.165 HD
HETATM   16  O   UNL     1      30.016  54.295  40.363  1.00  0.00    -0.247 OA
HETATM   17  N   UNL     1      30.158  52.146  39.658  1.00  0.00    -0.312 N 
HETATM   18  C   UNL     1      30.353  50.801  39.874  1.00  0.00     0.024 C 
HETATM   19  H   UNL     1      29.828  52.476  38.758  1.00  0.00     0.170 HD
HETATM   20  C   UNL     1      30.008  49.894  38.726  1.00  0.00     0.069 C 
HETATM   21  C   UNL     1      30.808  50.406  41.080  1.00  0.00     0.067 C 
BRANCH  21  22
HETATM   22  C   UNL     1      31.011  48.968  41.376  1.00  0.00     0.293 C 
HETATM   23  O   UNL     1      31.803  48.244  40.795  1.00  0.00    -0.259 OA
BRANCH  22  24
HETATM   24  O   UNL     1      30.167  48.588  42.366  1.00  0.00    -0.323 OA
HETATM   25  C   UNL     1      28.804  48.454  41.955  1.00  0.00     0.213 C 
ENDBRANCH  22  24
ENDBRANCH  21  22
ENDBRANCH  10  12
BRANCH   4  26
HETATM   26  C   UNL     1      37.645  52.517  43.744  1.00  0.00     0.060 A 
HETATM   27  C   UNL     1      37.533  53.816  44.271  1.00  0.00     0.031 A 
HETATM   28  C   UNL     1      38.396  54.253  45.278  1.00  0.00     0.002 A 
HETATM   29  C   UNL     1      39.383  53.402  45.766  1.00  0.00     0.000 A 
HETATM   30  C   UNL     1      39.507  52.115  45.248  1.00  0.00     0.002 A 
HETATM   31  C   UNL     1      38.643  51.670  44.241  1.00  0.00     0.031 A 
ENDBRANCH   4  26
TORSDOF 4
ENDMDL
MODEL 6
REMARK VINA RESULT:      -7.5      2.179      2.870
REMARK  4 active torsions:
REMARK  status: ('A' for Active; 'I' for Inactive)
REMARK    1  A    between atoms: N_4  and  C_5 
REMARK    2  A    between atoms: C_16  and  C_17 
REMARK    3  A    between atoms: C_24  and  C_25 
REMARK    4  A    between atoms: C_25  and  O_26 
ROOT
HETATM    1  C   UNL     1      20.573  51.289  50.202  1.00  0.00     0.073 C 
HETATM    2  C   UNL     1      21.443  50.311  49.502  1.00  0.00     0.065 A 
HETATM    3  N   UNL     1      22.744  50.246  49.785  1.00  0.00    -0.170 NA
HETATM    4  N   UNL     1      23.238  49.242  48.994  1.00  0.00    -0.215 N 
HETATM    5  C   UNL     1      22.238  48.709  48.178  1.00  0.00     0.165 A 
HETATM    6  C   UNL     1      21.067  49.372  48.518  1.00  0.00     0.039 A 
HETATM    7  N   UNL     1      22.338  47.728  47.252  1.00  0.00    -0.216 NA
HETATM    8  C   UNL     1      21.167  47.390  46.666  1.00  0.00     0.137 A 
HETATM    9 CL   UNL     1      21.396  46.120  45.521  1.00  0.00    -0.062 Cl
HETATM   10  C   UNL     1      19.917  47.949  46.930  1.00  0.00     0.011 A 
HETATM   11  C   UNL     1      19.877  48.989  47.880  1.00  0.00     0.030 A 
ENDROOT
BRANCH  10  12
HETATM   12  C   UNL     1      18.630  47.456  46.290  1.00  0.00     0.164 C 
HETATM   13  N   UNL     1      18.224  46.216  46.936  1.00  0.00    -0.330 N 
HETATM   14  C   UNL     1      17.214  46.107  47.833  1.00  0.00     0.321 C 
HETATM   15  H   UNL     1      18.840  45.414  46.897  1.00  0.00     0.165 HD
HETATM   16  O   UNL     1      17.054  45.093  48.501  1.00  0.00    -0.247 OA
HETATM   17  N   UNL     1      16.376  47.177  47.926  1.00  0.00    -0.312 N 
HETATM   18  C   UNL     1      16.455  48.320  47.162  1.00  0.00     0.024 C 
HETATM   19  H   UNL     1      15.598  47.041  48.563  1.00  0.00     0.170 HD
HETATM   20  C   UNL     1      15.317  49.290  47.311  1.00  0.00     0.069 C 
HETATM   21  C   UNL     1      17.514  48.468  46.342  1.00  0.00     0.067 C 
BRANCH  21  22
HETATM   22  C   UNL     1      17.637  49.666  45.477  1.00  0.00     0.293 C 
HETATM   23  O   UNL     1      17.841  50.798  45.884  1.00  0.00    -0.259 OA
BRANCH  22  24
HETATM   24  O   UNL     1      17.463  49.307  44.182  1.00  0.00    -0.323 OA
HETATM   25  C   UNL     1      18.448  49.835  43.291  1.00  0.00     0.213 C 
ENDBRANCH  22  24
ENDBRANCH  21  22
ENDBRANCH  10  12
BRANCH   4  26
HETATM   26  C   UNL     1      24.613  48.868  49.114  1.00  0.00     0.060 A 
HETATM   27  C   UNL     1      25.595  49.676  48.513  1.00  0.00     0.031 A 
HETATM   28  C   UNL     1      26.950  49.357  48.631  1.00  0.00     0.002 A 
HETATM   29  C   UNL     1      27.339  48.227  49.345  1.00  0.00     0.000 A 
HETATM   30  C   UNL     1      26.374  47.417  49.939  1.00  0.00     0.002 A 
HETATM   31  C   UNL     1      25.015  47.733  49.827  1.00  0.00     0.031 A 
ENDBRANCH   4  26
TORSDOF 4
ENDMDL
MODEL 7
REMARK VINA RESULT:      -7.4      7.798     10.271
REMARK  4 active torsions:
REMARK  status: ('A' for Active; 'I' for Inactive)
REMARK    1  A    between atoms: N_4  and  C_5 
REMARK    2  A    between atoms: C_16  and  C_17 
REMARK    3  A    between atoms: C_24  and  C_25 
REMARK    4  A    between atoms: C_25  and  O_26 
ROOT
HETATM    1  C   UNL     1      27.884  41.753  53.771  1.00  0.00     0.073 C 
HETATM    2  C   UNL     1      27.538  42.375  52.469  1.00  0.00     0.065 A 
HETATM    3  N   UNL     1      27.060  43.619  52.424  1.00  0.00    -0.170 NA
HETATM    4  N   UNL     1      26.871  43.888  51.094  1.00  0.00    -0.215 N 
HETATM    5  C   UNL     1      27.193  42.780  50.308  1.00  0.00     0.165 A 
HETATM    6  C   UNL     1      27.653  41.806  51.183  1.00  0.00     0.039 A 
HETATM    7  N   UNL     1      27.116  42.647  48.964  1.00  0.00    -0.216 NA
HETATM    8  C   UNL     1      27.562  41.460  48.492  1.00  0.00     0.137 A 
HETATM    9 CL   UNL     1      27.443  41.399  46.772  1.00  0.00    -0.062 Cl
HETATM   10  C   UNL     1      28.076  40.408  49.250  1.00  0.00     0.011 A 
HETATM   11  C   UNL     1      28.103  40.589  50.647  1.00  0.00     0.030 A 
ENDROOT
BRANCH  10  12
HETATM   12  C   UNL     1      28.638  39.136  48.638  1.00  0.00     0.164 C 
HETATM   13  N   UNL     1      29.660  38.596  49.524  1.00  0.00    -0.330 N 
HETATM   14  C   UNL     1      29.491  37.521  50.332  1.00  0.00     0.321 C 
HETATM   15  H   UNL     1      30.480  39.152  49.729  1.00  0.00     0.165 HD
HETATM   16  O   UNL     1      30.302  37.241  51.207  1.00  0.00    -0.247 OA
HETATM   17  N   UNL     1      28.386  36.760  50.097  1.00  0.00    -0.312 N 
HETATM   18  C   UNL     1      27.470  36.975  49.093  1.00  0.00     0.024 C 
HETATM   19  H   UNL     1      28.320  35.932  50.679  1.00  0.00     0.170 HD
HETATM   20  C   UNL     1      26.431  35.905  48.909  1.00  0.00     0.069 C 
HETATM   21  C   UNL     1      27.584  38.096  48.353  1.00  0.00     0.067 C 
BRANCH  21  22
HETATM   22  C   UNL     1      26.641  38.367  47.242  1.00  0.00     0.293 C 
HETATM   23  O   UNL     1      25.508  38.798  47.382  1.00  0.00    -0.259 OA
BRANCH  22  24
HETATM   24  O   UNL     1      27.225  38.038  46.064  1.00  0.00    -0.323 OA
HETATM   25  C   UNL     1      26.421  38.312  44.915  1.00  0.00     0.213 C 
ENDBRANCH  22  24
ENDBRANCH  21  22
ENDBRANCH  10  12
BRANCH   4  26
HETATM   26  C   UNL     1      26.428  45.188  50.698  1.00  0.00     0.060 A 
HETATM   27  C   UNL     1      25.220  45.686  51.220  1.00  0.00     0.031 A 
HETATM   28  C   UNL     1      24.769  46.963  50.877  1.00  0.00     0.002 A 
HETATM   29  C   UNL     1      25.513  47.754  50.006  1.00  0.00     0.000 A 
HETATM   30  C   UNL     1      26.707  47.268  49.479  1.00  0.00     0.002 A 
HETATM   31  C   UNL     1      27.167  45.991  49.821  1.00  0.00     0.031 A 
ENDBRANCH   4  26
TORSDOF 4
ENDMDL
MODEL 8
REMARK VINA RESULT:      -7.4      6.532      9.060
REMARK  4 active torsions:
REMARK  status: ('A' for Active; 'I' for Inactive)
REMARK    1  A    between atoms: N_4  and  C_5 
REMARK    2  A    between atoms: C_16  and  C_17 
REMARK    3  A    between atoms: C_24  and  C_25 
REMARK    4  A    between atoms: C_25  and  O_26 
ROOT
HETATM    1  C   UNL     1      28.951  39.849  52.552  1.00  0.00     0.073 C 
HETATM    2  C   UNL     1      28.651  41.280  52.810  1.00  0.00     0.065 A 
HETATM    3  N   UNL     1      29.120  41.877  53.906  1.00  0.00    -0.170 NA
HETATM    4  N   UNL     1      28.687  43.175  53.826  1.00  0.00    -0.215 N 
HETATM    5  C   UNL     1      27.903  43.371  52.688  1.00  0.00     0.165 A 
HETATM    6  C   UNL     1      27.896  42.162  52.008  1.00  0.00     0.039 A 
HETATM    7  N   UNL     1      27.280  44.500  52.277  1.00  0.00    -0.216 NA
HETATM    8  C   UNL     1      26.641  44.386  51.090  1.00  0.00     0.137 A 
HETATM    9 CL   UNL     1      25.901  45.880  50.645  1.00  0.00    -0.062 Cl
HETATM   10  C   UNL     1      26.579  43.246  50.289  1.00  0.00     0.011 A 
HETATM   11  C   UNL     1      27.218  42.092  50.782  1.00  0.00     0.030 A 
ENDROOT
BRANCH  10  12
HETATM   12  C   UNL     1      25.912  43.221  48.924  1.00  0.00     0.164 C 
HETATM   13  N   UNL     1      26.636  42.298  48.060  1.00  0.00    -0.330 N 
HETATM   14  C   UNL     1      26.205  41.058  47.723  1.00  0.00     0.321 C 
HETATM   15  H   UNL     1      27.610  42.475  47.854  1.00  0.00     0.165 HD
HETATM   16  O   UNL     1      26.943  40.248  47.175  1.00  0.00    -0.247 OA
HETATM   17  N   UNL     1      24.902  40.777  48.005  1.00  0.00    -0.312 N 
HETATM   18  C   UNL     1      23.999  41.657  48.558  1.00  0.00     0.024 C 
HETATM   19  H   UNL     1      24.596  39.863  47.688  1.00  0.00     0.170 HD
HETATM   20  C   UNL     1      22.572  41.188  48.611  1.00  0.00     0.069 C 
HETATM   21  C   UNL     1      24.451  42.854  48.982  1.00  0.00     0.067 C 
BRANCH  21  22
HETATM   22  C   UNL     1      23.519  43.851  49.561  1.00  0.00     0.293 C 
HETATM   23  O   UNL     1      23.111  43.834  50.711  1.00  0.00    -0.259 OA
BRANCH  22  24
HETATM   24  O   UNL     1      23.179  44.755  48.611  1.00  0.00    -0.323 OA
HETATM   25  C   UNL     1      21.780  45.047  48.554  1.00  0.00     0.213 C 
ENDBRANCH  22  24
ENDBRANCH  21  22
ENDBRANCH  10  12
BRANCH   4  26
HETATM   26  C   UNL     1      29.088  44.110  54.830  1.00  0.00     0.060 A 
HETATM   27  C   UNL     1      30.339  43.951  55.452  1.00  0.00     0.031 A 
HETATM   28  C   UNL     1      30.776  44.861  56.417  1.00  0.00     0.002 A 
HETATM   29  C   UNL     1      29.967  45.936  56.777  1.00  0.00     0.000 A 
HETATM   30  C   UNL     1      28.723  46.100  56.172  1.00  0.00     0.002 A 
HETATM   31  C   UNL     1      28.282  45.193  55.201  1.00  0.00     0.031 A 
ENDBRANCH   4  26
TORSDOF 4
ENDMDL
MODEL 9
REMARK VINA RESULT:      -7.4     13.768     17.423
REMARK  4 active torsions:
REMARK  status: ('A' for Active; 'I' for Inactive)
REMARK    1  A    between atoms: N_4  and  C_5 
REMARK    2  A    between atoms: C_16  and  C_17 
REMARK    3  A    between atoms: C_24  and  C_25 
REMARK    4  A    between atoms: C_25  and  O_26 
ROOT
HETATM    1  C   UNL     1      32.597  51.904  44.848  1.00  0.00     0.073 C 
HETATM    2  C   UNL     1      32.901  51.267  43.542  1.00  0.00     0.065 A 
HETATM    3  N   UNL     1      31.981  50.525  42.926  1.00  0.00    -0.170 NA
HETATM    4  N   UNL     1      32.567  50.114  41.759  1.00  0.00    -0.215 N 
HETATM    5  C   UNL     1      33.884  50.569  41.672  1.00  0.00     0.165 A 
HETATM    6  C   UNL     1      34.102  51.340  42.805  1.00  0.00     0.039 A 
HETATM    7  N   UNL     1      34.789  50.353  40.690  1.00  0.00    -0.216 NA
HETATM    8  C   UNL     1      35.972  50.986  40.869  1.00  0.00     0.137 A 
HETATM    9 CL   UNL     1      37.045  50.666  39.557  1.00  0.00    -0.062 Cl
HETATM   10  C   UNL     1      36.315  51.811  41.939  1.00  0.00     0.011 A 
HETATM   11  C   UNL     1      35.346  51.975  42.948  1.00  0.00     0.030 A 
ENDROOT
BRANCH  10  12
HETATM   12  C   UNL     1      37.636  52.557  42.028  1.00  0.00     0.164 C 
HETATM   13  N   UNL     1      37.611  53.676  41.096  1.00  0.00    -0.330 N 
HETATM   14  C   UNL     1      37.444  54.973  41.451  1.00  0.00     0.321 C 
HETATM   15  H   UNL     1      37.498  53.494  40.107  1.00  0.00     0.165 HD
HETATM   16  O   UNL     1      37.218  55.844  40.620  1.00  0.00    -0.247 OA
HETATM   17  N   UNL     1      37.570  55.253  42.779  1.00  0.00    -0.312 N 
HETATM   18  C   UNL     1      37.888  54.340  43.758  1.00  0.00     0.024 C 
HETATM   19  H   UNL     1      37.498  56.240  43.004  1.00  0.00     0.170 HD
HETATM   20  C   UNL     1      38.152  54.907  45.125  1.00  0.00     0.069 C 
HETATM   21  C   UNL     1      37.957  53.037  43.420  1.00  0.00     0.067 C 
BRANCH  21  22
HETATM   22  C   UNL     1      38.321  52.013  44.428  1.00  0.00     0.293 C 
HETATM   23  O   UNL     1      37.776  51.882  45.512  1.00  0.00    -0.259 OA
BRANCH  22  24
HETATM   24  O   UNL     1      39.359  51.275  43.967  1.00  0.00    -0.323 OA
HETATM   25  C   UNL     1      39.125  49.865  43.976  1.00  0.00     0.213 C 
ENDBRANCH  22  24
ENDBRANCH  21  22
ENDBRANCH  10  12
BRANCH   4  26
HETATM   26  C   UNL     1      31.805  49.348  40.823  1.00  0.00     0.060 A 
HETATM   27  C   UNL     1      31.057  50.019  39.839  1.00  0.00     0.031 A 
HETATM   28  C   UNL     1      30.322  49.303  38.891  1.00  0.00     0.002 A 
HETATM   29  C   UNL     1      30.320  47.912  38.918  1.00  0.00     0.000 A 
HETATM   30  C   UNL     1      31.051  47.236  39.892  1.00  0.00     0.002 A 
HETATM   31  C   UNL     1      31.793  47.948  40.843  1.00  0.00     0.031 A 
ENDBRANCH   4  26
TORSDOF 4
ENDMDL
MODEL 10
REMARK VINA RESULT:      -7.3      3.890      6.864
REMARK  4 active torsions:
REMARK  status: ('A' for Active; 'I' for Inactive)
REMARK    1  A    between atoms: N_4  and  C_5 
REMARK    2  A    between atoms: C_16  and  C_17 
REMARK    3  A    between atoms: C_24  and  C_25 
REMARK    4  A    between atoms: C_25  and  O_26 
ROOT
HETATM    1  C   UNL     1      18.432  50.535  44.556  1.00  0.00     0.073 C 
HETATM    2  C   UNL     1      18.040  50.719  45.977  1.00  0.00     0.065 A 
HETATM    3  N   UNL     1      17.257  51.738  46.331  1.00  0.00    -0.170 NA
HETATM    4  N   UNL     1      17.074  51.602  47.682  1.00  0.00    -0.215 N 
HETATM    5  C   UNL     1      17.789  50.511  48.177  1.00  0.00     0.165 A 
HETATM    6  C   UNL     1      18.395  49.914  47.080  1.00  0.00     0.039 A 
HETATM    7  N   UNL     1      17.881  50.070  49.453  1.00  0.00    -0.216 NA
HETATM    8  C   UNL     1      18.609  48.939  49.605  1.00  0.00     0.137 A 
HETATM    9 CL   UNL     1      18.646  48.449  51.258  1.00  0.00    -0.062 Cl
HETATM   10  C   UNL     1      19.244  48.222  48.591  1.00  0.00     0.011 A 
HETATM   11  C   UNL     1      19.143  48.745  47.287  1.00  0.00     0.030 A 
ENDROOT
BRANCH  10  12
HETATM   12  C   UNL     1      19.975  46.911  48.829  1.00  0.00     0.164 C 
HETATM   13  N   UNL     1      19.038  45.809  48.656  1.00  0.00    -0.330 N 
HETATM   14  C   UNL     1      18.996  44.995  47.573  1.00  0.00     0.321 C 
HETATM   15  H   UNL     1      18.227  45.751  49.258  1.00  0.00     0.165 HD
HETATM   16  O   UNL     1      18.060  44.228  47.382  1.00  0.00    -0.247 OA
HETATM   17  N   UNL     1      20.063  45.061  46.729  1.00  0.00    -0.312 N 
HETATM   18  C   UNL     1      21.176  45.849  46.915  1.00  0.00     0.024 C 
HETATM   19  H   UNL     1      20.028  44.399  45.962  1.00  0.00     0.170 HD
HETATM   20  C   UNL     1      22.308  45.625  45.951  1.00  0.00     0.069 C 
HETATM   21  C   UNL     1      21.176  46.728  47.936  1.00  0.00     0.067 C 
BRANCH  21  22
HETATM   22  C   UNL     1      22.358  47.583  48.199  1.00  0.00     0.293 C 
HETATM   23  O   UNL     1      22.593  48.636  47.629  1.00  0.00    -0.259 OA
BRANCH  22  24
HETATM   24  O   UNL     1      23.136  46.999  49.143  1.00  0.00    -0.323 OA
HETATM   25  C   UNL     1      24.084  47.881  49.747  1.00  0.00     0.213 C 
ENDBRANCH  22  24
ENDBRANCH  21  22
ENDBRANCH  10  12
BRANCH   4  26
HETATM   26  C   UNL     1      16.209  52.512  48.367  1.00  0.00     0.060 A 
HETATM   27  C   UNL     1      16.513  52.878  49.690  1.00  0.00     0.031 A 
HETATM   28  C   UNL     1      15.707  53.786  50.381  1.00  0.00     0.002 A 
HETATM   29  C   UNL     1      14.587  54.333  49.763  1.00  0.00     0.000 A 
HETATM   30  C   UNL     1      14.273  53.973  48.454  1.00  0.00     0.002 A 
HETATM   31  C   UNL     1      15.079  53.067  47.755  1.00  0.00     0.031 A 
ENDBRANCH   4  26
TORSDOF 4
ENDMDL
