MODEL 1
REMARK VINA RESULT:      -8.7      0.000      0.000
REMARK  7 active torsions:
REMARK  status: ('A' for Active; 'I' for Inactive)
REMARK    1  A    between atoms: C_2  and  C_3 
REMARK    2  A    between atoms: C_3  and  O_4 
REMARK    3  A    between atoms: O_4  and  C_5 
REMARK    4  A    between atoms: C_8  and  C_9 
REMARK    5  A    between atoms: C_9  and  C_10 
REMARK       I    between atoms: C_10  and  N_11 
REMARK    6  A    between atoms: N_11  and  C_12 
REMARK    7  A    between atoms: C_19  and  C_20 
REMARK       I    between atoms: C_20  and  N_21 
ROOT
HETATM    1  C   UNL     1      25.199  44.938  51.370  1.00  0.00     0.226 C 
HETATM    2  N   UNL     1      25.356  46.302  51.540  1.00  0.00    -0.327 N 
HETATM    3  O   UNL     1      24.943  44.374  50.308  1.00  0.00    -0.273 OA
HETATM    4  H   UNL     1      25.559  46.622  52.479  1.00  0.00     0.169 HD
ENDROOT
BRANCH   2   5
HETATM    5  C   UNL     1      25.332  47.313  50.557  1.00  0.00     0.035 A 
HETATM    6  C   UNL     1      24.166  47.774  49.931  1.00  0.00     0.046 A 
HETATM    7  C   UNL     1      24.257  48.784  48.947  1.00  0.00     0.030 A 
HETATM    8  C   UNL     1      25.507  49.295  48.623  1.00  0.00     0.063 A 
HETATM    9  C   UNL     1      23.342  49.493  48.110  1.00  0.00     0.156 A 
HETATM   10  N   UNL     1      25.277  50.233  47.656  1.00  0.00    -0.277 N 
HETATM   11  C   UNL     1      26.689  48.864  49.228  1.00  0.00     0.034 A 
HETATM   12  H   UNL     1      25.966  50.807  47.183  1.00  0.00     0.189 HD
HETATM   13  N   UNL     1      23.986  50.383  47.320  1.00  0.00    -0.168 NA
HETATM   14  C   UNL     1      26.572  47.863  50.200  1.00  0.00     0.032 A 
BRANCH   9  15
HETATM   15  C   UNL     1      21.881  49.344  48.047  1.00  0.00     0.270 C 
HETATM   16  N   UNL     1      21.196  50.526  48.134  1.00  0.00    -0.365 N 
HETATM   17  H   UNL     1      21.724  51.386  48.233  1.00  0.00     0.159 HD
HETATM   18  H   UNL     1      20.190  50.522  48.099  1.00  0.00     0.159 HD
HETATM   19  O   UNL     1      21.291  48.277  47.926  1.00  0.00    -0.266 OA
ENDBRANCH   9  15
ENDBRANCH   2   5
BRANCH   1  20
HETATM   20  C   UNL     1      25.308  44.103  52.648  1.00  0.00     0.141 C 
BRANCH  20  21
HETATM   21  C   UNL     1      26.697  43.949  53.225  1.00  0.00    -0.049 A 
HETATM   22  C   UNL     1      27.488  42.841  52.893  1.00  0.00     0.010 A 
HETATM   23  C   UNL     1      28.736  42.651  53.497  1.00  0.00     0.037 A 
HETATM   24  C   UNL     1      29.203  43.563  54.443  1.00  0.00     0.068 A 
HETATM   25  C   UNL     1      28.429  44.683  54.752  1.00  0.00     0.037 A 
HETATM   26  C   UNL     1      27.185  44.879  54.151  1.00  0.00     0.010 A 
BRANCH  24  27
HETATM   27  O   UNL     1      30.381  43.476  55.129  1.00  0.00    -0.351 OA
BRANCH  27  28
HETATM   28  C   UNL     1      30.829  44.650  55.808  1.00  0.00     0.179 C 
BRANCH  28  29
HETATM   29  C   UNL     1      31.500  44.260  57.136  1.00  0.00     0.002 C 
HETATM   30  C   UNL     1      31.478  42.744  57.343  1.00  0.00     0.011 C 
HETATM   31  C   UNL     1      30.837  44.960  58.323  1.00  0.00     0.011 C 
ENDBRANCH  28  29
ENDBRANCH  27  28
ENDBRANCH  24  27
ENDBRANCH  20  21
ENDBRANCH   1  20
TORSDOF 7
ENDMDL
MODEL 2
REMARK VINA RESULT:      -8.5      0.961      1.319
REMARK  7 active torsions:
REMARK  status: ('A' for Active; 'I' for Inactive)
REMARK    1  A    between atoms: C_2  and  C_3 
REMARK    2  A    between atoms: C_3  and  O_4 
REMARK    3  A    between atoms: O_4  and  C_5 
REMARK    4  A    between atoms: C_8  and  C_9 
REMARK    5  A    between atoms: C_9  and  C_10 
REMARK       I    between atoms: C_10  and  N_11 
REMARK    6  A    between atoms: N_11  and  C_12 
REMARK    7  A    between atoms: C_19  and  C_20 
REMARK       I    between atoms: C_20  and  N_21 
ROOT
HETATM    1  C   UNL     1      26.533  44.751  50.485  1.00  0.00     0.226 C 
HETATM    2  N   UNL     1      25.624  45.763  50.734  1.00  0.00    -0.327 N 
HETATM    3  O   UNL     1      27.316  44.710  49.538  1.00  0.00    -0.273 OA
HETATM    4  H   UNL     1      25.038  45.656  51.552  1.00  0.00     0.169 HD
ENDROOT
BRANCH   2   5
HETATM    5  C   UNL     1      25.444  46.970  50.025  1.00  0.00     0.035 A 
HETATM    6  C   UNL     1      24.197  47.471  49.629  1.00  0.00     0.046 A 
HETATM    7  C   UNL     1      24.132  48.685  48.909  1.00  0.00     0.030 A 
HETATM    8  C   UNL     1      25.313  49.354  48.611  1.00  0.00     0.063 A 
HETATM    9  C   UNL     1      23.099  49.496  48.347  1.00  0.00     0.156 A 
HETATM   10  N   UNL     1      24.934  50.469  47.918  1.00  0.00    -0.277 N 
HETATM   11  C   UNL     1      26.571  48.887  48.992  1.00  0.00     0.034 A 
HETATM   12  H   UNL     1      25.539  51.189  47.538  1.00  0.00     0.189 HD
HETATM   13  N   UNL     1      23.610  50.592  47.739  1.00  0.00    -0.168 NA
HETATM   14  C   UNL     1      26.610  47.682  49.705  1.00  0.00     0.032 A 
BRANCH   9  15
HETATM   15  C   UNL     1      21.650  49.252  48.375  1.00  0.00     0.270 C 
HETATM   16  N   UNL     1      21.103  49.282  49.629  1.00  0.00    -0.365 N 
HETATM   17  H   UNL     1      21.713  49.462  50.419  1.00  0.00     0.159 HD
HETATM   18  H   UNL     1      20.116  49.127  49.746  1.00  0.00     0.159 HD
HETATM   19  O   UNL     1      20.957  49.039  47.387  1.00  0.00    -0.266 OA
ENDBRANCH   9  15
ENDBRANCH   2   5
BRANCH   1  20
HETATM   20  C   UNL     1      26.490  43.578  51.466  1.00  0.00     0.141 C 
BRANCH  20  21
HETATM   21  C   UNL     1      27.600  43.526  52.491  1.00  0.00    -0.049 A 
HETATM   22  C   UNL     1      27.503  44.255  53.684  1.00  0.00     0.010 A 
HETATM   23  C   UNL     1      28.568  44.281  54.591  1.00  0.00     0.037 A 
HETATM   24  C   UNL     1      29.743  43.584  54.313  1.00  0.00     0.068 A 
HETATM   25  C   UNL     1      29.829  42.833  53.139  1.00  0.00     0.037 A 
HETATM   26  C   UNL     1      28.769  42.801  52.232  1.00  0.00     0.010 A 
BRANCH  24  27
HETATM   27  O   UNL     1      30.864  43.555  55.092  1.00  0.00    -0.351 OA
BRANCH  27  28
HETATM   28  C   UNL     1      31.109  44.688  55.926  1.00  0.00     0.179 C 
BRANCH  28  29
HETATM   29  C   UNL     1      31.598  44.222  57.308  1.00  0.00     0.002 C 
HETATM   30  C   UNL     1      31.494  42.702  57.448  1.00  0.00     0.011 C 
HETATM   31  C   UNL     1      30.823  44.906  58.434  1.00  0.00     0.011 C 
ENDBRANCH  28  29
ENDBRANCH  27  28
ENDBRANCH  24  27
ENDBRANCH  20  21
ENDBRANCH   1  20
TORSDOF 7
ENDMDL
MODEL 3
REMARK VINA RESULT:      -8.4      3.411      9.468
REMARK  7 active torsions:
REMARK  status: ('A' for Active; 'I' for Inactive)
REMARK    1  A    between atoms: C_2  and  C_3 
REMARK    2  A    between atoms: C_3  and  O_4 
REMARK    3  A    between atoms: O_4  and  C_5 
REMARK    4  A    between atoms: C_8  and  C_9 
REMARK    5  A    between atoms: C_9  and  C_10 
REMARK       I    between atoms: C_10  and  N_11 
REMARK    6  A    between atoms: N_11  and  C_12 
REMARK    7  A    between atoms: C_19  and  C_20 
REMARK       I    between atoms: C_20  and  N_21 
ROOT
HETATM    1  C   UNL     1      26.223  43.991  51.480  1.00  0.00     0.226 C 
HETATM    2  N   UNL     1      27.605  44.029  51.502  1.00  0.00    -0.327 N 
HETATM    3  O   UNL     1      25.500  43.714  52.435  1.00  0.00    -0.273 OA
HETATM    4  H   UNL     1      28.067  44.267  50.633  1.00  0.00     0.169 HD
ENDROOT
BRANCH   2   5
HETATM    5  C   UNL     1      28.467  43.840  52.603  1.00  0.00     0.035 A 
HETATM    6  C   UNL     1      28.443  44.621  53.765  1.00  0.00     0.046 A 
HETATM    7  C   UNL     1      29.363  44.354  54.803  1.00  0.00     0.030 A 
HETATM    8  C   UNL     1      30.274  43.317  54.643  1.00  0.00     0.063 A 
HETATM    9  C   UNL     1      29.651  44.899  56.092  1.00  0.00     0.156 A 
HETATM   10  N   UNL     1      31.019  43.307  55.788  1.00  0.00    -0.277 N 
HETATM   11  C   UNL     1      30.325  42.516  53.502  1.00  0.00     0.034 A 
HETATM   12  H   UNL     1      31.783  42.681  56.017  1.00  0.00     0.189 HD
HETATM   13  N   UNL     1      30.674  44.243  56.686  1.00  0.00    -0.168 NA
HETATM   14  C   UNL     1      29.403  42.801  52.488  1.00  0.00     0.032 A 
BRANCH   9  15
HETATM   15  C   UNL     1      28.979  46.021  56.763  1.00  0.00     0.270 C 
HETATM   16  N   UNL     1      29.211  46.084  58.110  1.00  0.00    -0.365 N 
HETATM   17  H   UNL     1      29.806  45.380  58.533  1.00  0.00     0.159 HD
HETATM   18  H   UNL     1      28.792  46.820  58.655  1.00  0.00     0.159 HD
HETATM   19  O   UNL     1      28.268  46.848  56.204  1.00  0.00    -0.266 OA
ENDBRANCH   9  15
ENDBRANCH   2   5
BRANCH   1  20
HETATM   20  C   UNL     1      25.582  44.269  50.119  1.00  0.00     0.141 C 
BRANCH  20  21
HETATM   21  C   UNL     1      25.274  45.717  49.812  1.00  0.00    -0.049 A 
HETATM   22  C   UNL     1      26.291  46.681  49.827  1.00  0.00     0.010 A 
HETATM   23  C   UNL     1      25.992  48.034  49.634  1.00  0.00     0.037 A 
HETATM   24  C   UNL     1      24.674  48.439  49.429  1.00  0.00     0.068 A 
HETATM   25  C   UNL     1      23.664  47.476  49.384  1.00  0.00     0.037 A 
HETATM   26  C   UNL     1      23.956  46.124  49.573  1.00  0.00     0.010 A 
BRANCH  24  27
HETATM   27  O   UNL     1      24.244  49.724  49.264  1.00  0.00    -0.351 OA
BRANCH  27  28
HETATM   28  C   UNL     1      23.677  50.066  47.999  1.00  0.00     0.179 C 
BRANCH  28  29
HETATM   29  C   UNL     1      22.273  50.660  48.201  1.00  0.00     0.002 C 
HETATM   30  C   UNL     1      21.991  50.923  49.681  1.00  0.00     0.011 C 
HETATM   31  C   UNL     1      21.192  49.750  47.616  1.00  0.00     0.011 C 
ENDBRANCH  28  29
ENDBRANCH  27  28
ENDBRANCH  24  27
ENDBRANCH  20  21
ENDBRANCH   1  20
TORSDOF 7
ENDMDL
MODEL 4
REMARK VINA RESULT:      -8.2      3.474     10.097
REMARK  7 active torsions:
REMARK  status: ('A' for Active; 'I' for Inactive)
REMARK    1  A    between atoms: C_2  and  C_3 
REMARK    2  A    between atoms: C_3  and  O_4 
REMARK    3  A    between atoms: O_4  and  C_5 
REMARK    4  A    between atoms: C_8  and  C_9 
REMARK    5  A    between atoms: C_9  and  C_10 
REMARK       I    between atoms: C_10  and  N_11 
REMARK    6  A    between atoms: N_11  and  C_12 
REMARK    7  A    between atoms: C_19  and  C_20 
REMARK       I    between atoms: C_20  and  N_21 
ROOT
HETATM    1  C   UNL     1      24.991  49.000  48.832  1.00  0.00     0.226 C 
HETATM    2  N   UNL     1      24.452  47.951  49.555  1.00  0.00    -0.327 N 
HETATM    3  O   UNL     1      26.179  49.316  48.807  1.00  0.00    -0.273 OA
HETATM    4  H   UNL     1      23.451  47.816  49.482  1.00  0.00     0.169 HD
ENDROOT
BRANCH   2   5
HETATM    5  C   UNL     1      25.127  46.995  50.343  1.00  0.00     0.035 A 
HETATM    6  C   UNL     1      25.545  47.216  51.662  1.00  0.00     0.046 A 
HETATM    7  C   UNL     1      26.227  46.192  52.356  1.00  0.00     0.030 A 
HETATM    8  C   UNL     1      26.467  44.986  51.709  1.00  0.00     0.063 A 
HETATM    9  C   UNL     1      26.795  46.030  53.656  1.00  0.00     0.156 A 
HETATM   10  N   UNL     1      27.136  44.214  52.616  1.00  0.00    -0.277 N 
HETATM   11  C   UNL     1      26.063  44.729  50.398  1.00  0.00     0.034 A 
HETATM   12  H   UNL     1      27.474  43.267  52.483  1.00  0.00     0.189 HD
HETATM   13  N   UNL     1      27.352  44.805  53.801  1.00  0.00    -0.168 NA
HETATM   14  C   UNL     1      25.388  45.759  49.732  1.00  0.00     0.032 A 
BRANCH   9  15
HETATM   15  C   UNL     1      26.820  47.007  54.754  1.00  0.00     0.270 C 
HETATM   16  N   UNL     1      28.042  47.139  55.356  1.00  0.00    -0.365 N 
HETATM   17  H   UNL     1      28.813  46.576  55.016  1.00  0.00     0.159 HD
HETATM   18  H   UNL     1      28.155  47.786  56.119  1.00  0.00     0.159 HD
HETATM   19  O   UNL     1      25.856  47.665  55.128  1.00  0.00    -0.266 OA
ENDBRANCH   9  15
ENDBRANCH   2   5
BRANCH   1  20
HETATM   20  C   UNL     1      23.980  49.845  48.053  1.00  0.00     0.141 C 
BRANCH  20  21
HETATM   21  C   UNL     1      22.630  50.036  48.706  1.00  0.00    -0.049 A 
HETATM   22  C   UNL     1      22.481  50.906  49.794  1.00  0.00     0.010 A 
HETATM   23  C   UNL     1      21.253  51.014  50.456  1.00  0.00     0.037 A 
HETATM   24  C   UNL     1      20.163  50.249  50.042  1.00  0.00     0.068 A 
HETATM   25  C   UNL     1      20.302  49.404  48.939  1.00  0.00     0.037 A 
HETATM   26  C   UNL     1      21.524  49.295  48.272  1.00  0.00     0.010 A 
BRANCH  24  27
HETATM   27  O   UNL     1      18.926  50.233  50.619  1.00  0.00    -0.351 OA
BRANCH  27  28
HETATM   28  C   UNL     1      17.837  50.737  49.846  1.00  0.00     0.179 C 
BRANCH  28  29
HETATM   29  C   UNL     1      17.962  52.262  49.700  1.00  0.00     0.002 C 
HETATM   30  C   UNL     1      16.616  52.953  49.928  1.00  0.00     0.011 C 
HETATM   31  C   UNL     1      18.523  52.648  48.330  1.00  0.00     0.011 C 
ENDBRANCH  28  29
ENDBRANCH  27  28
ENDBRANCH  24  27
ENDBRANCH  20  21
ENDBRANCH   1  20
TORSDOF 7
ENDMDL
MODEL 5
REMARK VINA RESULT:      -8.0      2.813     10.059
REMARK  7 active torsions:
REMARK  status: ('A' for Active; 'I' for Inactive)
REMARK    1  A    between atoms: C_2  and  C_3 
REMARK    2  A    between atoms: C_3  and  O_4 
REMARK    3  A    between atoms: O_4  and  C_5 
REMARK    4  A    between atoms: C_8  and  C_9 
REMARK    5  A    between atoms: C_9  and  C_10 
REMARK       I    between atoms: C_10  and  N_11 
REMARK    6  A    between atoms: N_11  and  C_12 
REMARK    7  A    between atoms: C_19  and  C_20 
REMARK       I    between atoms: C_20  and  N_21 
ROOT
HETATM    1  C   UNL     1      26.046  47.276  50.365  1.00  0.00     0.226 C 
HETATM    2  N   UNL     1      26.566  46.103  49.848  1.00  0.00    -0.327 N 
HETATM    3  O   UNL     1      25.550  47.406  51.482  1.00  0.00    -0.273 OA
HETATM    4  H   UNL     1      26.935  46.147  48.906  1.00  0.00     0.169 HD
ENDROOT
BRANCH   2   5
HETATM    5  C   UNL     1      26.708  44.853  50.487  1.00  0.00     0.035 A 
HETATM    6  C   UNL     1      27.396  44.659  51.691  1.00  0.00     0.046 A 
HETATM    7  C   UNL     1      27.490  43.360  52.238  1.00  0.00     0.030 A 
HETATM    8  C   UNL     1      26.895  42.303  51.562  1.00  0.00     0.063 A 
HETATM    9  C   UNL     1      28.081  42.769  53.396  1.00  0.00     0.156 A 
HETATM   10  N   UNL     1      27.156  41.194  52.318  1.00  0.00    -0.277 N 
HETATM   11  C   UNL     1      26.198  42.458  50.363  1.00  0.00     0.034 A 
HETATM   12  H   UNL     1      26.873  40.240  52.124  1.00  0.00     0.189 HD
HETATM   13  N   UNL     1      27.866  41.434  53.431  1.00  0.00    -0.168 NA
HETATM   14  C   UNL     1      26.118  43.755  49.842  1.00  0.00     0.032 A 
BRANCH   9  15
HETATM   15  C   UNL     1      28.839  43.442  54.460  1.00  0.00     0.270 C 
HETATM   16  N   UNL     1      30.007  42.812  54.797  1.00  0.00    -0.365 N 
HETATM   17  H   UNL     1      30.256  41.960  54.308  1.00  0.00     0.159 HD
HETATM   18  H   UNL     1      30.594  43.201  55.517  1.00  0.00     0.159 HD
HETATM   19  O   UNL     1      28.493  44.475  55.021  1.00  0.00    -0.266 OA
ENDBRANCH   9  15
ENDBRANCH   2   5
BRANCH   1  20
HETATM   20  C   UNL     1      26.060  48.473  49.413  1.00  0.00     0.141 C 
BRANCH  20  21
HETATM   21  C   UNL     1      24.713  48.929  48.897  1.00  0.00    -0.049 A 
HETATM   22  C   UNL     1      23.600  48.080  48.964  1.00  0.00     0.010 A 
HETATM   23  C   UNL     1      22.377  48.465  48.405  1.00  0.00     0.037 A 
HETATM   24  C   UNL     1      22.254  49.700  47.769  1.00  0.00     0.068 A 
HETATM   25  C   UNL     1      23.354  50.559  47.729  1.00  0.00     0.037 A 
HETATM   26  C   UNL     1      24.576  50.182  48.287  1.00  0.00     0.010 A 
BRANCH  24  27
HETATM   27  O   UNL     1      21.133  50.180  47.154  1.00  0.00    -0.351 OA
BRANCH  27  28
HETATM   28  C   UNL     1      19.953  50.300  47.950  1.00  0.00     0.179 C 
BRANCH  28  29
HETATM   29  C   UNL     1      20.030  51.574  48.807  1.00  0.00     0.002 C 
HETATM   30  C   UNL     1      20.178  51.233  50.292  1.00  0.00     0.011 C 
HETATM   31  C   UNL     1      18.806  52.466  48.595  1.00  0.00     0.011 C 
ENDBRANCH  28  29
ENDBRANCH  27  28
ENDBRANCH  24  27
ENDBRANCH  20  21
ENDBRANCH   1  20
TORSDOF 7
ENDMDL
MODEL 6
REMARK VINA RESULT:      -8.0      3.491      9.483
REMARK  7 active torsions:
REMARK  status: ('A' for Active; 'I' for Inactive)
REMARK    1  A    between atoms: C_2  and  C_3 
REMARK    2  A    between atoms: C_3  and  O_4 
REMARK    3  A    between atoms: O_4  and  C_5 
REMARK    4  A    between atoms: C_8  and  C_9 
REMARK    5  A    between atoms: C_9  and  C_10 
REMARK       I    between atoms: C_10  and  N_11 
REMARK    6  A    between atoms: N_11  and  C_12 
REMARK    7  A    between atoms: C_19  and  C_20 
REMARK       I    between atoms: C_20  and  N_21 
ROOT
HETATM    1  C   UNL     1      26.154  43.907  50.243  1.00  0.00     0.226 C 
HETATM    2  N   UNL     1      26.199  43.562  51.581  1.00  0.00    -0.327 N 
HETATM    3  O   UNL     1      27.105  44.311  49.576  1.00  0.00    -0.273 OA
HETATM    4  H   UNL     1      25.331  43.252  51.999  1.00  0.00     0.169 HD
ENDROOT
BRANCH   2   5
HETATM    5  C   UNL     1      27.321  43.524  52.436  1.00  0.00     0.035 A 
HETATM    6  C   UNL     1      27.539  44.426  53.487  1.00  0.00     0.046 A 
HETATM    7  C   UNL     1      28.705  44.306  54.275  1.00  0.00     0.030 A 
HETATM    8  C   UNL     1      29.611  43.293  53.986  1.00  0.00     0.063 A 
HETATM    9  C   UNL     1      29.272  44.998  55.388  1.00  0.00     0.156 A 
HETATM   10  N   UNL     1      30.619  43.435  54.897  1.00  0.00    -0.277 N 
HETATM   11  C   UNL     1      29.425  42.376  52.950  1.00  0.00     0.034 A 
HETATM   12  H   UNL     1      31.454  42.866  54.981  1.00  0.00     0.189 HD
HETATM   13  N   UNL     1      30.452  44.449  55.760  1.00  0.00    -0.168 NA
HETATM   14  C   UNL     1      28.261  42.515  52.184  1.00  0.00     0.032 A 
BRANCH   9  15
HETATM   15  C   UNL     1      28.721  46.160  56.100  1.00  0.00     0.270 C 
HETATM   16  N   UNL     1      28.894  46.117  57.457  1.00  0.00    -0.365 N 
HETATM   17  H   UNL     1      29.371  45.317  57.859  1.00  0.00     0.159 HD
HETATM   18  H   UNL     1      28.549  46.871  58.028  1.00  0.00     0.159 HD
HETATM   19  O   UNL     1      28.152  47.104  55.564  1.00  0.00    -0.266 OA
ENDBRANCH   9  15
ENDBRANCH   2   5
BRANCH   1  20
HETATM   20  C   UNL     1      24.773  43.817  49.590  1.00  0.00     0.141 C 
BRANCH  20  21
HETATM   21  C   UNL     1      24.134  45.130  49.201  1.00  0.00    -0.049 A 
HETATM   22  C   UNL     1      24.507  46.321  49.838  1.00  0.00     0.010 A 
HETATM   23  C   UNL     1      23.852  47.522  49.544  1.00  0.00     0.037 A 
HETATM   24  C   UNL     1      22.814  47.545  48.614  1.00  0.00     0.068 A 
HETATM   25  C   UNL     1      22.461  46.364  47.956  1.00  0.00     0.037 A 
HETATM   26  C   UNL     1      23.113  45.165  48.243  1.00  0.00     0.010 A 
BRANCH  24  27
HETATM   27  O   UNL     1      22.073  48.637  48.263  1.00  0.00    -0.351 OA
BRANCH  27  28
HETATM   28  C   UNL     1      21.377  49.317  49.307  1.00  0.00     0.179 C 
BRANCH  28  29
HETATM   29  C   UNL     1      21.641  50.829  49.211  1.00  0.00     0.002 C 
HETATM   30  C   UNL     1      20.467  51.555  48.552  1.00  0.00     0.011 C 
HETATM   31  C   UNL     1      22.933  51.123  48.448  1.00  0.00     0.011 C 
ENDBRANCH  28  29
ENDBRANCH  27  28
ENDBRANCH  24  27
ENDBRANCH  20  21
ENDBRANCH   1  20
TORSDOF 7
ENDMDL
MODEL 7
REMARK VINA RESULT:      -7.9      3.158      9.760
REMARK  7 active torsions:
REMARK  status: ('A' for Active; 'I' for Inactive)
REMARK    1  A    between atoms: C_2  and  C_3 
REMARK    2  A    between atoms: C_3  and  O_4 
REMARK    3  A    between atoms: O_4  and  C_5 
REMARK    4  A    between atoms: C_8  and  C_9 
REMARK    5  A    between atoms: C_9  and  C_10 
REMARK       I    between atoms: C_10  and  N_11 
REMARK    6  A    between atoms: N_11  and  C_12 
REMARK    7  A    between atoms: C_19  and  C_20 
REMARK       I    between atoms: C_20  and  N_21 
ROOT
HETATM    1  C   UNL     1      25.299  44.417  52.441  1.00  0.00     0.226 C 
HETATM    2  N   UNL     1      26.598  44.883  52.520  1.00  0.00    -0.327 N 
HETATM    3  O   UNL     1      24.544  44.238  53.395  1.00  0.00    -0.273 OA
HETATM    4  H   UNL     1      27.102  44.974  51.647  1.00  0.00     0.169 HD
ENDROOT
BRANCH   2   5
HETATM    5  C   UNL     1      27.305  45.312  53.664  1.00  0.00     0.035 A 
HETATM    6  C   UNL     1      28.398  44.630  54.215  1.00  0.00     0.046 A 
HETATM    7  C   UNL     1      29.025  45.141  55.373  1.00  0.00     0.030 A 
HETATM    8  C   UNL     1      28.539  46.313  55.938  1.00  0.00     0.063 A 
HETATM    9  C   UNL     1      30.119  44.758  56.207  1.00  0.00     0.156 A 
HETATM   10  N   UNL     1      29.331  46.548  57.027  1.00  0.00    -0.277 N 
HETATM   11  C   UNL     1      27.456  47.021  55.415  1.00  0.00     0.034 A 
HETATM   12  H   UNL     1      29.262  47.321  57.680  1.00  0.00     0.189 HD
HETATM   13  N   UNL     1      30.295  45.635  57.222  1.00  0.00    -0.168 NA
HETATM   14  C   UNL     1      26.852  46.495  54.267  1.00  0.00     0.032 A 
BRANCH   9  15
HETATM   15  C   UNL     1      30.994  43.586  56.060  1.00  0.00     0.270 C 
HETATM   16  N   UNL     1      31.637  43.222  57.212  1.00  0.00    -0.365 N 
HETATM   17  H   UNL     1      31.471  43.765  58.052  1.00  0.00     0.159 HD
HETATM   18  H   UNL     1      32.256  42.429  57.208  1.00  0.00     0.159 HD
HETATM   19  O   UNL     1      31.159  42.962  55.018  1.00  0.00    -0.266 OA
ENDBRANCH   9  15
ENDBRANCH   2   5
BRANCH   1  20
HETATM   20  C   UNL     1      24.818  44.056  51.034  1.00  0.00     0.141 C 
BRANCH  20  21
HETATM   21  C   UNL     1      24.243  45.191  50.217  1.00  0.00    -0.049 A 
HETATM   22  C   UNL     1      24.670  46.509  50.427  1.00  0.00     0.010 A 
HETATM   23  C   UNL     1      24.073  47.569  49.736  1.00  0.00     0.037 A 
HETATM   24  C   UNL     1      23.040  47.324  48.832  1.00  0.00     0.068 A 
HETATM   25  C   UNL     1      22.635  46.008  48.599  1.00  0.00     0.037 A 
HETATM   26  C   UNL     1      23.228  44.947  49.283  1.00  0.00     0.010 A 
BRANCH  24  27
HETATM   27  O   UNL     1      22.353  48.267  48.122  1.00  0.00    -0.351 OA
BRANCH  27  28
HETATM   28  C   UNL     1      21.469  49.118  48.852  1.00  0.00     0.179 C 
BRANCH  28  29
HETATM   29  C   UNL     1      21.576  50.558  48.323  1.00  0.00     0.002 C 
HETATM   30  C   UNL     1      22.945  51.163  48.638  1.00  0.00     0.011 C 
HETATM   31  C   UNL     1      20.468  51.446  48.891  1.00  0.00     0.011 C 
ENDBRANCH  28  29
ENDBRANCH  27  28
ENDBRANCH  24  27
ENDBRANCH  20  21
ENDBRANCH   1  20
TORSDOF 7
ENDMDL
MODEL 8
REMARK VINA RESULT:      -7.9      2.826     10.105
REMARK  7 active torsions:
REMARK  status: ('A' for Active; 'I' for Inactive)
REMARK    1  A    between atoms: C_2  and  C_3 
REMARK    2  A    between atoms: C_3  and  O_4 
REMARK    3  A    between atoms: O_4  and  C_5 
REMARK    4  A    between atoms: C_8  and  C_9 
REMARK    5  A    between atoms: C_9  and  C_10 
REMARK       I    between atoms: C_10  and  N_11 
REMARK    6  A    between atoms: N_11  and  C_12 
REMARK    7  A    between atoms: C_19  and  C_20 
REMARK       I    between atoms: C_20  and  N_21 
ROOT
HETATM    1  C   UNL     1      25.552  48.138  49.485  1.00  0.00     0.226 C 
HETATM    2  N   UNL     1      24.837  47.566  50.521  1.00  0.00    -0.327 N 
HETATM    3  O   UNL     1      26.710  47.862  49.177  1.00  0.00    -0.273 OA
HETATM    4  H   UNL     1      23.892  47.901  50.659  1.00  0.00     0.169 HD
ENDROOT
BRANCH   2   5
HETATM    5  C   UNL     1      25.232  46.521  51.382  1.00  0.00     0.035 A 
HETATM    6  C   UNL     1      26.108  46.681  52.464  1.00  0.00     0.046 A 
HETATM    7  C   UNL     1      26.448  45.562  53.255  1.00  0.00     0.030 A 
HETATM    8  C   UNL     1      25.903  44.324  52.939  1.00  0.00     0.063 A 
HETATM    9  C   UNL     1      27.273  45.319  54.396  1.00  0.00     0.156 A 
HETATM   10  N   UNL     1      26.413  43.455  53.862  1.00  0.00    -0.277 N 
HETATM   11  C   UNL     1      25.025  44.127  51.872  1.00  0.00     0.034 A 
HETATM   12  H   UNL     1      26.232  42.460  53.932  1.00  0.00     0.189 HD
HETATM   13  N   UNL     1      27.241  44.015  54.757  1.00  0.00    -0.168 NA
HETATM   14  C   UNL     1      24.703  45.252  51.103  1.00  0.00     0.032 A 
BRANCH   9  15
HETATM   15  C   UNL     1      28.084  46.291  55.142  1.00  0.00     0.270 C 
HETATM   16  N   UNL     1      27.403  47.417  55.515  1.00  0.00    -0.365 N 
HETATM   17  H   UNL     1      26.425  47.498  55.259  1.00  0.00     0.159 HD
HETATM   18  H   UNL     1      27.877  48.139  56.031  1.00  0.00     0.159 HD
HETATM   19  O   UNL     1      29.268  46.143  55.427  1.00  0.00    -0.266 OA
ENDBRANCH   9  15
ENDBRANCH   2   5
BRANCH   1  20
HETATM   20  C   UNL     1      24.822  49.243  48.718  1.00  0.00     0.141 C 
BRANCH  20  21
HETATM   21  C   UNL     1      23.319  49.283  48.879  1.00  0.00    -0.049 A 
HETATM   22  C   UNL     1      22.517  48.265  48.344  1.00  0.00     0.010 A 
HETATM   23  C   UNL     1      21.123  48.348  48.413  1.00  0.00     0.037 A 
HETATM   24  C   UNL     1      20.514  49.450  49.013  1.00  0.00     0.068 A 
HETATM   25  C   UNL     1      21.312  50.450  49.573  1.00  0.00     0.037 A 
HETATM   26  C   UNL     1      22.704  50.371  49.510  1.00  0.00     0.010 A 
BRANCH  24  27
HETATM   27  O   UNL     1      19.170  49.670  49.114  1.00  0.00    -0.351 OA
BRANCH  27  28
HETATM   28  C   UNL     1      18.747  50.772  49.917  1.00  0.00     0.179 C 
BRANCH  28  29
HETATM   29  C   UNL     1      17.913  51.746  49.068  1.00  0.00     0.002 C 
HETATM   30  C   UNL     1      18.810  52.651  48.222  1.00  0.00     0.011 C 
HETATM   31  C   UNL     1      16.987  52.595  49.940  1.00  0.00     0.011 C 
ENDBRANCH  28  29
ENDBRANCH  27  28
ENDBRANCH  24  27
ENDBRANCH  20  21
ENDBRANCH   1  20
TORSDOF 7
ENDMDL
MODEL 9
REMARK VINA RESULT:      -7.8      3.991      6.702
REMARK  7 active torsions:
REMARK  status: ('A' for Active; 'I' for Inactive)
REMARK    1  A    between atoms: C_2  and  C_3 
REMARK    2  A    between atoms: C_3  and  O_4 
REMARK    3  A    between atoms: O_4  and  C_5 
REMARK    4  A    between atoms: C_8  and  C_9 
REMARK    5  A    between atoms: C_9  and  C_10 
REMARK       I    between atoms: C_10  and  N_11 
REMARK    6  A    between atoms: N_11  and  C_12 
REMARK    7  A    between atoms: C_19  and  C_20 
REMARK       I    between atoms: C_20  and  N_21 
ROOT
HETATM    1  C   UNL     1      24.973  44.873  51.494  1.00  0.00     0.226 C 
HETATM    2  N   UNL     1      25.734  44.340  50.470  1.00  0.00    -0.327 N 
HETATM    3  O   UNL     1      23.934  44.390  51.940  1.00  0.00    -0.273 OA
HETATM    4  H   UNL     1      26.564  44.855  50.205  1.00  0.00     0.169 HD
ENDROOT
BRANCH   2   5
HETATM    5  C   UNL     1      25.540  43.125  49.778  1.00  0.00     0.035 A 
HETATM    6  C   UNL     1      26.457  42.066  49.775  1.00  0.00     0.046 A 
HETATM    7  C   UNL     1      26.169  40.898  49.035  1.00  0.00     0.030 A 
HETATM    8  C   UNL     1      24.977  40.830  48.324  1.00  0.00     0.063 A 
HETATM    9  C   UNL     1      26.817  39.651  48.784  1.00  0.00     0.156 A 
HETATM   10  N   UNL     1      24.985  39.606  47.717  1.00  0.00    -0.277 N 
HETATM   11  C   UNL     1      24.039  41.863  48.307  1.00  0.00     0.034 A 
HETATM   12  H   UNL     1      24.269  39.217  47.113  1.00  0.00     0.189 HD
HETATM   13  N   UNL     1      26.075  38.865  47.970  1.00  0.00    -0.168 NA
HETATM   14  C   UNL     1      24.347  43.010  49.049  1.00  0.00     0.032 A 
BRANCH   9  15
HETATM   15  C   UNL     1      28.116  39.193  49.298  1.00  0.00     0.270 C 
HETATM   16  N   UNL     1      29.165  40.008  48.967  1.00  0.00    -0.365 N 
HETATM   17  H   UNL     1      28.979  40.836  48.413  1.00  0.00     0.159 HD
HETATM   18  H   UNL     1      30.094  39.775  49.276  1.00  0.00     0.159 HD
HETATM   19  O   UNL     1      28.287  38.181  49.967  1.00  0.00    -0.266 OA
ENDBRANCH   9  15
ENDBRANCH   2   5
BRANCH   1  20
HETATM   20  C   UNL     1      25.473  46.206  52.054  1.00  0.00     0.141 C 
BRANCH  20  21
HETATM   21  C   UNL     1      26.341  46.125  53.289  1.00  0.00    -0.049 A 
HETATM   22  C   UNL     1      26.970  47.271  53.795  1.00  0.00     0.010 A 
HETATM   23  C   UNL     1      27.845  47.181  54.882  1.00  0.00     0.037 A 
HETATM   24  C   UNL     1      28.107  45.945  55.472  1.00  0.00     0.068 A 
HETATM   25  C   UNL     1      27.458  44.807  54.988  1.00  0.00     0.037 A 
HETATM   26  C   UNL     1      26.581  44.891  53.906  1.00  0.00     0.010 A 
BRANCH  24  27
HETATM   27  O   UNL     1      28.964  45.714  56.510  1.00  0.00    -0.351 OA
BRANCH  27  28
HETATM   28  C   UNL     1      30.322  45.421  56.184  1.00  0.00     0.179 C 
BRANCH  28  29
HETATM   29  C   UNL     1      30.574  43.909  56.308  1.00  0.00     0.002 C 
HETATM   30  C   UNL     1      31.825  43.623  57.141  1.00  0.00     0.011 C 
HETATM   31  C   UNL     1      30.697  43.248  54.935  1.00  0.00     0.011 C 
ENDBRANCH  28  29
ENDBRANCH  27  28
ENDBRANCH  24  27
ENDBRANCH  20  21
ENDBRANCH   1  20
TORSDOF 7
ENDMDL
MODEL 10
REMARK VINA RESULT:      -7.6     12.533     15.554
REMARK  7 active torsions:
REMARK  status: ('A' for Active; 'I' for Inactive)
REMARK    1  A    between atoms: C_2  and  C_3 
REMARK    2  A    between atoms: C_3  and  O_4 
REMARK    3  A    between atoms: O_4  and  C_5 
REMARK    4  A    between atoms: C_8  and  C_9 
REMARK    5  A    between atoms: C_9  and  C_10 
REMARK       I    between atoms: C_10  and  N_11 
REMARK    6  A    between atoms: N_11  and  C_12 
REMARK    7  A    between atoms: C_19  and  C_20 
REMARK       I    between atoms: C_20  and  N_21 
ROOT
HETATM    1  C   UNL     1      30.647  53.631  40.508  1.00  0.00     0.226 C 
HETATM    2  N   UNL     1      31.146  52.345  40.603  1.00  0.00    -0.327 N 
HETATM    3  O   UNL     1      31.203  54.646  40.924  1.00  0.00    -0.273 OA
HETATM    4  H   UNL     1      30.570  51.605  40.221  1.00  0.00     0.169 HD
ENDROOT
BRANCH   2   5
HETATM    5  C   UNL     1      32.393  51.926  41.114  1.00  0.00     0.035 A 
HETATM    6  C   UNL     1      33.526  51.689  40.324  1.00  0.00     0.046 A 
HETATM    7  C   UNL     1      34.723  51.257  40.938  1.00  0.00     0.030 A 
HETATM    8  C   UNL     1      34.746  51.078  42.315  1.00  0.00     0.063 A 
HETATM    9  C   UNL     1      36.041  50.919  40.502  1.00  0.00     0.156 A 
HETATM   10  N   UNL     1      36.013  50.660  42.607  1.00  0.00    -0.277 N 
HETATM   11  C   UNL     1      33.638  51.309  43.133  1.00  0.00     0.034 A 
HETATM   12  H   UNL     1      36.387  50.430  43.521  1.00  0.00     0.189 HD
HETATM   13  N   UNL     1      36.824  50.553  41.543  1.00  0.00    -0.168 NA
HETATM   14  C   UNL     1      32.464  51.736  42.502  1.00  0.00     0.032 A 
BRANCH   9  15
HETATM   15  C   UNL     1      36.566  50.937  39.130  1.00  0.00     0.270 C 
HETATM   16  N   UNL     1      37.001  49.718  38.683  1.00  0.00    -0.365 N 
HETATM   17  H   UNL     1      36.933  48.922  39.307  1.00  0.00     0.159 HD
HETATM   18  H   UNL     1      37.377  49.633  37.753  1.00  0.00     0.159 HD
HETATM   19  O   UNL     1      36.625  51.931  38.415  1.00  0.00    -0.266 OA
ENDBRANCH   9  15
ENDBRANCH   2   5
BRANCH   1  20
HETATM   20  C   UNL     1      29.260  53.750  39.874  1.00  0.00     0.141 C 
BRANCH  20  21
HETATM   21  C   UNL     1      28.463  52.469  39.773  1.00  0.00    -0.049 A 
HETATM   22  C   UNL     1      27.999  51.825  40.928  1.00  0.00     0.010 A 
HETATM   23  C   UNL     1      27.342  50.593  40.841  1.00  0.00     0.037 A 
HETATM   24  C   UNL     1      27.146  49.988  39.600  1.00  0.00     0.068 A 
HETATM   25  C   UNL     1      27.581  50.644  38.446  1.00  0.00     0.037 A 
HETATM   26  C   UNL     1      28.234  51.874  38.526  1.00  0.00     0.010 A 
BRANCH  24  27
HETATM   27  O   UNL     1      26.554  48.778  39.379  1.00  0.00    -0.351 OA
BRANCH  27  28
HETATM   28  C   UNL     1      27.325  47.789  38.695  1.00  0.00     0.179 C 
BRANCH  28  29
HETATM   29  C   UNL     1      28.546  47.400  39.545  1.00  0.00     0.002 C 
HETATM   30  C   UNL     1      29.845  47.560  38.752  1.00  0.00     0.011 C 
HETATM   31  C   UNL     1      28.428  45.970  40.072  1.00  0.00     0.011 C 
ENDBRANCH  28  29
ENDBRANCH  27  28
ENDBRANCH  24  27
ENDBRANCH  20  21
ENDBRANCH   1  20
TORSDOF 7
ENDMDL
