MODEL 1
REMARK VINA RESULT:      -7.4      0.000      0.000
REMARK  5 active torsions:
REMARK  status: ('A' for Active; 'I' for Inactive)
REMARK    1  A    between atoms: C_2  and  O_3 
REMARK    2  A    between atoms: C_4  and  C_5 
REMARK    3  A    between atoms: C_5  and  O_6 
REMARK    4  A    between atoms: C_9  and  C_10 
REMARK    5  A    between atoms: C_22  and  O_23 
ROOT
HETATM    1  C   UNL     1      34.285  50.218  41.965  1.00  0.00     0.047 C 
HETATM    2  C   UNL     1      33.126  49.991  40.981  1.00  0.00     0.073 C 
HETATM    3  C   UNL     1      31.730  50.134  41.674  1.00  0.00     0.133 C 
HETATM    4  C   UNL     1      30.480  50.172  40.744  1.00  0.00     0.074 C 
HETATM    5  C   UNL     1      30.803  50.681  39.384  1.00  0.00     0.030 A 
HETATM    6  C   UNL     1      32.074  50.987  38.952  1.00  0.00     0.042 A 
HETATM    7  N   UNL     1      31.957  51.464  37.676  1.00  0.00    -0.279 N 
HETATM    8  H   UNL     1      32.685  51.801  37.054  1.00  0.00     0.189 HD
HETATM    9  N   UNL     1      30.678  51.493  37.246  1.00  0.00    -0.149 NA
HETATM   10  C   UNL     1      30.005  51.046  38.297  1.00  0.00     0.190 A 
HETATM   11  C   UNL     1      33.331  50.902  39.735  1.00  0.00     0.097 C 
ENDROOT
BRANCH   4  12
HETATM   12  C   UNL     1      29.794  48.814  40.605  1.00  0.00    -0.048 A 
HETATM   13  C   UNL     1      28.589  48.613  41.308  1.00  0.00     0.009 A 
HETATM   14  C   UNL     1      27.904  47.397  41.242  1.00  0.00     0.019 A 
HETATM   15  C   UNL     1      28.420  46.355  40.480  1.00  0.00     0.011 A 
HETATM   16 BR   UNL     1      27.496  44.710  40.384  1.00  0.00    -0.051 Br
HETATM   17  C   UNL     1      29.612  46.522  39.781  1.00  0.00     0.019 A 
HETATM   18  C   UNL     1      30.291  47.742  39.842  1.00  0.00     0.009 A 
ENDBRANCH   4  12
BRANCH   3  19
HETATM   19  C   UNL     1      31.690  51.397  42.509  1.00  0.00     0.266 C 
HETATM   20  O   UNL     1      31.645  52.533  42.057  1.00  0.00    -0.265 OA
BRANCH  19  21
HETATM   21  O   UNL     1      31.717  51.087  43.835  1.00  0.00    -0.326 OA
HETATM   22  C   UNL     1      32.453  52.009  44.641  1.00  0.00     0.213 C 
ENDBRANCH  19  21
ENDBRANCH   3  19
BRANCH   2  23
HETATM   23  O   UNL     1      33.285  48.617  40.572  1.00  0.00    -0.389 OA
HETATM   24  H   UNL     1      33.099  48.051  41.339  1.00  0.00     0.210 HD
ENDBRANCH   2  23
BRANCH  10  25
HETATM   25  O   UNL     1      28.684  51.018  38.160  1.00  0.00    -0.343 OA
HETATM   26  H   UNL     1      28.527  50.377  37.446  1.00  0.00     0.219 HD
ENDBRANCH  10  25
TORSDOF 5
ENDMDL
MODEL 2
REMARK VINA RESULT:      -7.2      3.521      5.611
REMARK  5 active torsions:
REMARK  status: ('A' for Active; 'I' for Inactive)
REMARK    1  A    between atoms: C_2  and  O_3 
REMARK    2  A    between atoms: C_4  and  C_5 
REMARK    3  A    between atoms: C_5  and  O_6 
REMARK    4  A    between atoms: C_9  and  C_10 
REMARK    5  A    between atoms: C_22  and  O_23 
ROOT
HETATM    1  C   UNL     1      29.550  52.767  39.036  1.00  0.00     0.047 C 
HETATM    2  C   UNL     1      30.555  51.793  39.673  1.00  0.00     0.073 C 
HETATM    3  C   UNL     1      30.437  51.763  41.233  1.00  0.00     0.133 C 
HETATM    4  C   UNL     1      31.223  50.643  41.980  1.00  0.00     0.074 C 
HETATM    5  C   UNL     1      31.447  49.445  41.127  1.00  0.00     0.030 A 
HETATM    6  C   UNL     1      31.097  49.363  39.797  1.00  0.00     0.042 A 
HETATM    7  N   UNL     1      31.417  48.101  39.379  1.00  0.00    -0.279 N 
HETATM    8  H   UNL     1      31.284  47.682  38.463  1.00  0.00     0.189 HD
HETATM    9  N   UNL     1      31.953  47.346  40.361  1.00  0.00    -0.149 NA
HETATM   10  C   UNL     1      31.934  48.166  41.403  1.00  0.00     0.190 A 
HETATM   11  C   UNL     1      30.424  50.404  38.982  1.00  0.00     0.097 C 
ENDROOT
BRANCH   4  12
HETATM   12  C   UNL     1      32.573  51.115  42.519  1.00  0.00    -0.048 A 
HETATM   13  C   UNL     1      32.612  51.622  43.833  1.00  0.00     0.009 A 
HETATM   14  C   UNL     1      33.804  52.083  44.398  1.00  0.00     0.019 A 
HETATM   15  C   UNL     1      34.977  52.056  43.651  1.00  0.00     0.011 A 
HETATM   16 BR   UNL     1      36.593  52.675  44.412  1.00  0.00    -0.051 Br
HETATM   17  C   UNL     1      34.967  51.567  42.348  1.00  0.00     0.019 A 
HETATM   18  C   UNL     1      33.774  51.099  41.788  1.00  0.00     0.009 A 
ENDBRANCH   4  12
BRANCH   3  19
HETATM   19  C   UNL     1      28.985  51.622  41.642  1.00  0.00     0.266 C 
HETATM   20  O   UNL     1      28.160  52.526  41.615  1.00  0.00    -0.265 OA
BRANCH  19  21
HETATM   21  O   UNL     1      28.731  50.347  42.047  1.00  0.00    -0.326 OA
HETATM   22  C   UNL     1      27.645  49.718  41.364  1.00  0.00     0.213 C 
ENDBRANCH  19  21
ENDBRANCH   3  19
BRANCH   2  23
HETATM   23  O   UNL     1      31.840  52.353  39.331  1.00  0.00    -0.389 OA
HETATM   24  H   UNL     1      32.514  51.916  39.876  1.00  0.00     0.210 HD
ENDBRANCH   2  23
BRANCH  10  25
HETATM   25  O   UNL     1      32.373  47.648  42.545  1.00  0.00    -0.343 OA
HETATM   26  H   UNL     1      33.232  48.078  42.694  1.00  0.00     0.219 HD
ENDBRANCH  10  25
TORSDOF 5
ENDMDL
MODEL 3
REMARK VINA RESULT:      -7.1      2.248      3.086
REMARK  5 active torsions:
REMARK  status: ('A' for Active; 'I' for Inactive)
REMARK    1  A    between atoms: C_2  and  O_3 
REMARK    2  A    between atoms: C_4  and  C_5 
REMARK    3  A    between atoms: C_5  and  O_6 
REMARK    4  A    between atoms: C_9  and  C_10 
REMARK    5  A    between atoms: C_22  and  O_23 
ROOT
HETATM    1  C   UNL     1      33.073  51.723  38.954  1.00  0.00     0.047 C 
HETATM    2  C   UNL     1      31.641  51.242  39.239  1.00  0.00     0.073 C 
HETATM    3  C   UNL     1      31.618  49.979  40.164  1.00  0.00     0.133 C 
HETATM    4  C   UNL     1      30.232  49.541  40.726  1.00  0.00     0.074 C 
HETATM    5  C   UNL     1      29.277  50.677  40.825  1.00  0.00     0.030 A 
HETATM    6  C   UNL     1      29.540  51.953  40.377  1.00  0.00     0.042 A 
HETATM    7  N   UNL     1      28.448  52.716  40.687  1.00  0.00    -0.279 N 
HETATM    8  H   UNL     1      28.298  53.707  40.521  1.00  0.00     0.189 HD
HETATM    9  N   UNL     1      27.483  52.015  41.318  1.00  0.00    -0.149 NA
HETATM   10  C   UNL     1      28.017  50.804  41.413  1.00  0.00     0.190 A 
HETATM   11  C   UNL     1      30.794  52.443  39.754  1.00  0.00     0.097 C 
ENDROOT
BRANCH   4  12
HETATM   12  C   UNL     1      29.578  48.427  39.910  1.00  0.00    -0.048 A 
HETATM   13  C   UNL     1      30.038  47.110  40.113  1.00  0.00     0.009 A 
HETATM   14  C   UNL     1      29.500  46.035  39.400  1.00  0.00     0.019 A 
HETATM   15  C   UNL     1      28.500  46.262  38.461  1.00  0.00     0.011 A 
HETATM   16 BR   UNL     1      27.767  44.812  37.497  1.00  0.00    -0.051 Br
HETATM   17  C   UNL     1      28.031  47.553  38.234  1.00  0.00     0.019 A 
HETATM   18  C   UNL     1      28.566  48.625  38.954  1.00  0.00     0.009 A 
ENDBRANCH   4  12
BRANCH   3  19
HETATM   19  C   UNL     1      32.525  50.193  41.358  1.00  0.00     0.266 C 
HETATM   20  O   UNL     1      32.329  51.009  42.248  1.00  0.00    -0.265 OA
BRANCH  19  21
HETATM   21  O   UNL     1      33.591  49.348  41.296  1.00  0.00    -0.326 OA
HETATM   22  C   UNL     1      34.837  49.946  41.659  1.00  0.00     0.213 C 
ENDBRANCH  19  21
ENDBRANCH   3  19
BRANCH   2  23
HETATM   23  O   UNL     1      31.143  50.857  37.941  1.00  0.00    -0.389 OA
HETATM   24  H   UNL     1      30.180  50.978  37.938  1.00  0.00     0.210 HD
ENDBRANCH   2  23
BRANCH  10  25
HETATM   25  O   UNL     1      27.278  49.904  42.052  1.00  0.00    -0.343 OA
HETATM   26  H   UNL     1      27.912  49.219  42.326  1.00  0.00     0.219 HD
ENDBRANCH  10  25
TORSDOF 5
ENDMDL
MODEL 4
REMARK VINA RESULT:      -7.0      2.699      4.568
REMARK  5 active torsions:
REMARK  status: ('A' for Active; 'I' for Inactive)
REMARK    1  A    between atoms: C_2  and  O_3 
REMARK    2  A    between atoms: C_4  and  C_5 
REMARK    3  A    between atoms: C_5  and  O_6 
REMARK    4  A    between atoms: C_9  and  C_10 
REMARK    5  A    between atoms: C_22  and  O_23 
ROOT
HETATM    1  C   UNL     1      27.440  52.089  41.146  1.00  0.00     0.047 C 
HETATM    2  C   UNL     1      28.296  50.820  41.290  1.00  0.00     0.073 C 
HETATM    3  C   UNL     1      28.480  50.077  39.925  1.00  0.00     0.133 C 
HETATM    4  C   UNL     1      29.523  48.920  39.885  1.00  0.00     0.074 C 
HETATM    5  C   UNL     1      30.592  49.088  40.905  1.00  0.00     0.030 A 
HETATM    6  C   UNL     1      30.612  50.090  41.850  1.00  0.00     0.042 A 
HETATM    7  N   UNL     1      31.767  49.938  42.566  1.00  0.00    -0.279 N 
HETATM    8  H   UNL     1      32.121  50.506  43.331  1.00  0.00     0.189 HD
HETATM    9  N   UNL     1      32.511  48.894  42.141  1.00  0.00    -0.149 NA
HETATM   10  C   UNL     1      31.798  48.421  41.128  1.00  0.00     0.190 A 
HETATM   11  C   UNL     1      29.623  51.182  42.019  1.00  0.00     0.097 C 
ENDROOT
BRANCH   4  12
HETATM   12  C   UNL     1      28.893  47.539  40.063  1.00  0.00    -0.048 A 
HETATM   13  C   UNL     1      29.381  46.489  39.259  1.00  0.00     0.009 A 
HETATM   14  C   UNL     1      28.853  45.198  39.353  1.00  0.00     0.019 A 
HETATM   15  C   UNL     1      27.818  44.939  40.246  1.00  0.00     0.011 A 
HETATM   16 BR   UNL     1      27.104  43.195  40.380  1.00  0.00    -0.051 Br
HETATM   17  C   UNL     1      27.313  45.959  41.047  1.00  0.00     0.019 A 
HETATM   18  C   UNL     1      27.847  47.247  40.957  1.00  0.00     0.009 A 
ENDBRANCH   4  12
BRANCH   3  19
HETATM   19  C   UNL     1      28.881  51.063  38.847  1.00  0.00     0.266 C 
HETATM   20  O   UNL     1      29.956  51.644  38.795  1.00  0.00    -0.265 OA
BRANCH  19  21
HETATM   21  O   UNL     1      27.871  51.212  37.945  1.00  0.00    -0.326 OA
HETATM   22  C   UNL     1      26.868  50.196  38.010  1.00  0.00     0.213 C 
ENDBRANCH  19  21
ENDBRANCH   3  19
BRANCH   2  23
HETATM   23  O   UNL     1      27.514  49.975  42.159  1.00  0.00    -0.389 OA
HETATM   24  H   UNL     1      27.862  49.071  42.094  1.00  0.00     0.210 HD
ENDBRANCH   2  23
BRANCH  10  25
HETATM   25  O   UNL     1      32.338  47.394  40.482  1.00  0.00    -0.343 OA
HETATM   26  H   UNL     1      33.123  47.766  40.045  1.00  0.00     0.219 HD
ENDBRANCH  10  25
TORSDOF 5
ENDMDL
MODEL 5
REMARK VINA RESULT:      -7.0      3.114      5.548
REMARK  5 active torsions:
REMARK  status: ('A' for Active; 'I' for Inactive)
REMARK    1  A    between atoms: C_2  and  O_3 
REMARK    2  A    between atoms: C_4  and  C_5 
REMARK    3  A    between atoms: C_5  and  O_6 
REMARK    4  A    between atoms: C_9  and  C_10 
REMARK    5  A    between atoms: C_22  and  O_23 
ROOT
HETATM    1  C   UNL     1      26.273  47.816  40.951  1.00  0.00     0.047 C 
HETATM    2  C   UNL     1      27.298  48.933  40.691  1.00  0.00     0.073 C 
HETATM    3  C   UNL     1      28.741  48.366  40.476  1.00  0.00     0.133 C 
HETATM    4  C   UNL     1      29.822  49.365  39.963  1.00  0.00     0.074 C 
HETATM    5  C   UNL     1      29.231  50.488  39.186  1.00  0.00     0.030 A 
HETATM    6  C   UNL     1      27.878  50.690  39.021  1.00  0.00     0.042 A 
HETATM    7  N   UNL     1      27.735  51.785  38.215  1.00  0.00    -0.279 N 
HETATM    8  H   UNL     1      26.881  52.212  37.870  1.00  0.00     0.189 HD
HETATM    9  N   UNL     1      28.918  52.311  37.835  1.00  0.00    -0.149 NA
HETATM   10  C   UNL     1      29.797  51.500  38.407  1.00  0.00     0.190 A 
HETATM   11  C   UNL     1      26.777  49.844  39.541  1.00  0.00     0.097 C 
ENDROOT
BRANCH   4  12
HETATM   12  C   UNL     1      30.680  49.949  41.084  1.00  0.00    -0.048 A 
HETATM   13  C   UNL     1      30.367  51.244  41.543  1.00  0.00     0.009 A 
HETATM   14  C   UNL     1      31.108  51.853  42.559  1.00  0.00     0.019 A 
HETATM   15  C   UNL     1      32.185  51.180  43.125  1.00  0.00     0.011 A 
HETATM   16 BR   UNL     1      33.189  51.999  44.502  1.00  0.00    -0.051 Br
HETATM   17  C   UNL     1      32.522  49.903  42.687  1.00  0.00     0.019 A 
HETATM   18  C   UNL     1      31.774  49.293  41.677  1.00  0.00     0.009 A 
ENDBRANCH   4  12
BRANCH   3  19
HETATM   19  C   UNL     1      28.707  47.217  39.490  1.00  0.00     0.266 C 
HETATM   20  O   UNL     1      28.477  47.328  38.293  1.00  0.00    -0.265 OA
BRANCH  19  21
HETATM   21  O   UNL     1      28.965  46.042  40.128  1.00  0.00    -0.326 OA
HETATM   22  C   UNL     1      28.341  44.901  39.536  1.00  0.00     0.213 C 
ENDBRANCH  19  21
ENDBRANCH   3  19
BRANCH   2  23
HETATM   23  O   UNL     1      27.293  49.695  41.916  1.00  0.00    -0.389 OA
HETATM   24  H   UNL     1      27.146  50.628  41.690  1.00  0.00     0.210 HD
ENDBRANCH   2  23
BRANCH  10  25
HETATM   25  O   UNL     1      31.072  51.767  38.151  1.00  0.00    -0.343 OA
HETATM   26  H   UNL     1      31.381  52.255  38.933  1.00  0.00     0.219 HD
ENDBRANCH  10  25
TORSDOF 5
ENDMDL
MODEL 6
REMARK VINA RESULT:      -6.7      3.304      5.740
REMARK  5 active torsions:
REMARK  status: ('A' for Active; 'I' for Inactive)
REMARK    1  A    between atoms: C_2  and  O_3 
REMARK    2  A    between atoms: C_4  and  C_5 
REMARK    3  A    between atoms: C_5  and  O_6 
REMARK    4  A    between atoms: C_9  and  C_10 
REMARK    5  A    between atoms: C_22  and  O_23 
ROOT
HETATM    1  C   UNL     1      28.389  47.087  41.089  1.00  0.00     0.047 C 
HETATM    2  C   UNL     1      28.835  48.541  41.312  1.00  0.00     0.073 C 
HETATM    3  C   UNL     1      29.978  48.962  40.327  1.00  0.00     0.133 C 
HETATM    4  C   UNL     1      30.349  50.475  40.282  1.00  0.00     0.074 C 
HETATM    5  C   UNL     1      29.211  51.348  40.677  1.00  0.00     0.030 A 
HETATM    6  C   UNL     1      27.998  50.882  41.134  1.00  0.00     0.042 A 
HETATM    7  N   UNL     1      27.206  51.977  41.345  1.00  0.00    -0.279 N 
HETATM    8  H   UNL     1      26.243  52.012  41.666  1.00  0.00     0.189 HD
HETATM    9  N   UNL     1      27.829  53.137  41.049  1.00  0.00    -0.149 NA
HETATM   10  C   UNL     1      29.018  52.730  40.625  1.00  0.00     0.190 A 
HETATM   11  C   UNL     1      27.584  49.467  41.291  1.00  0.00     0.097 C 
ENDROOT
BRANCH   4  12
HETATM   12  C   UNL     1      31.555  50.824  41.153  1.00  0.00    -0.048 A 
HETATM   13  C   UNL     1      32.784  51.062  40.505  1.00  0.00     0.009 A 
HETATM   14  C   UNL     1      33.937  51.377  41.229  1.00  0.00     0.019 A 
HETATM   15  C   UNL     1      33.882  51.447  42.617  1.00  0.00     0.011 A 
HETATM   16 BR   UNL     1      35.438  51.876  43.601  1.00  0.00    -0.051 Br
HETATM   17  C   UNL     1      32.684  51.209  43.284  1.00  0.00     0.019 A 
HETATM   18  C   UNL     1      31.530  50.902  42.557  1.00  0.00     0.009 A 
ENDBRANCH   4  12
BRANCH   3  19
HETATM   19  C   UNL     1      29.620  48.558  38.912  1.00  0.00     0.266 C 
HETATM   20  O   UNL     1      28.804  49.134  38.205  1.00  0.00    -0.265 OA
BRANCH  19  21
HETATM   21  O   UNL     1      30.334  47.459  38.541  1.00  0.00    -0.326 OA
HETATM   22  C   UNL     1      29.545  46.401  37.995  1.00  0.00     0.213 C 
ENDBRANCH  19  21
ENDBRANCH   3  19
BRANCH   2  23
HETATM   23  O   UNL     1      29.376  48.534  42.649  1.00  0.00    -0.389 OA
HETATM   24  H   UNL     1      30.076  49.205  42.695  1.00  0.00     0.210 HD
ENDBRANCH   2  23
BRANCH  10  25
HETATM   25  O   UNL     1      29.836  53.692  40.213  1.00  0.00    -0.343 OA
HETATM   26  H   UNL     1      29.927  53.541  39.256  1.00  0.00     0.219 HD
ENDBRANCH  10  25
TORSDOF 5
ENDMDL
MODEL 7
REMARK VINA RESULT:      -6.7      3.227      5.786
REMARK  5 active torsions:
REMARK  status: ('A' for Active; 'I' for Inactive)
REMARK    1  A    between atoms: C_2  and  O_3 
REMARK    2  A    between atoms: C_4  and  C_5 
REMARK    3  A    between atoms: C_5  and  O_6 
REMARK    4  A    between atoms: C_9  and  C_10 
REMARK    5  A    between atoms: C_22  and  O_23 
ROOT
HETATM    1  C   UNL     1      26.964  46.350  41.242  1.00  0.00     0.047 C 
HETATM    2  C   UNL     1      27.619  47.673  40.811  1.00  0.00     0.073 C 
HETATM    3  C   UNL     1      29.006  47.444  40.120  1.00  0.00     0.133 C 
HETATM    4  C   UNL     1      29.657  48.675  39.420  1.00  0.00     0.074 C 
HETATM    5  C   UNL     1      28.648  49.673  38.976  1.00  0.00     0.030 A 
HETATM    6  C   UNL     1      27.299  49.582  39.240  1.00  0.00     0.042 A 
HETATM    7  N   UNL     1      26.702  50.652  38.633  1.00  0.00    -0.279 N 
HETATM    8  H   UNL     1      25.716  50.897  38.602  1.00  0.00     0.189 HD
HETATM    9  N   UNL     1      27.582  51.439  37.979  1.00  0.00    -0.149 NA
HETATM   10  C   UNL     1      28.735  50.815  38.177  1.00  0.00     0.190 A 
HETATM   11  C   UNL     1      26.600  48.496  39.970  1.00  0.00     0.097 C 
ENDROOT
BRANCH   4  12
HETATM   12  C   UNL     1      30.691  49.384  40.294  1.00  0.00    -0.048 A 
HETATM   13  C   UNL     1      31.940  48.756  40.472  1.00  0.00     0.009 A 
HETATM   14  C   UNL     1      32.936  49.333  41.263  1.00  0.00     0.019 A 
HETATM   15  C   UNL     1      32.695  50.546  41.901  1.00  0.00     0.011 A 
HETATM   16 BR   UNL     1      34.041  51.333  42.969  1.00  0.00    -0.051 Br
HETATM   17  C   UNL     1      31.469  51.185  41.749  1.00  0.00     0.019 A 
HETATM   18  C   UNL     1      30.476  50.610  40.950  1.00  0.00     0.009 A 
ENDBRANCH   4  12
BRANCH   3  19
HETATM   19  C   UNL     1      28.891  46.357  39.072  1.00  0.00     0.266 C 
HETATM   20  O   UNL     1      28.289  46.466  38.013  1.00  0.00    -0.265 OA
BRANCH  19  21
HETATM   21  O   UNL     1      29.552  45.238  39.481  1.00  0.00    -0.326 OA
HETATM   22  C   UNL     1      29.456  44.135  38.578  1.00  0.00     0.213 C 
ENDBRANCH  19  21
ENDBRANCH   3  19
BRANCH   2  23
HETATM   23  O   UNL     1      27.848  48.365  42.056  1.00  0.00    -0.389 OA
HETATM   24  H   UNL     1      28.663  48.885  41.967  1.00  0.00     0.210 HD
ENDBRANCH   2  23
BRANCH  10  25
HETATM   25  O   UNL     1      29.790  51.364  37.586  1.00  0.00    -0.343 OA
HETATM   26  H   UNL     1      29.980  50.779  36.833  1.00  0.00     0.219 HD
ENDBRANCH  10  25
TORSDOF 5
ENDMDL
MODEL 8
REMARK VINA RESULT:      -6.3     12.330     14.300
REMARK  5 active torsions:
REMARK  status: ('A' for Active; 'I' for Inactive)
REMARK    1  A    between atoms: C_2  and  O_3 
REMARK    2  A    between atoms: C_4  and  C_5 
REMARK    3  A    between atoms: C_5  and  O_6 
REMARK    4  A    between atoms: C_9  and  C_10 
REMARK    5  A    between atoms: C_22  and  O_23 
ROOT
HETATM    1  C   UNL     1      21.493  51.014  50.224  1.00  0.00     0.047 C 
HETATM    2  C   UNL     1      20.277  50.539  49.411  1.00  0.00     0.073 C 
HETATM    3  C   UNL     1      20.637  50.289  47.908  1.00  0.00     0.133 C 
HETATM    4  C   UNL     1      19.563  49.574  47.034  1.00  0.00     0.074 C 
HETATM    5  C   UNL     1      18.662  48.709  47.842  1.00  0.00     0.030 A 
HETATM    6  C   UNL     1      18.696  48.622  49.216  1.00  0.00     0.042 A 
HETATM    7  N   UNL     1      17.758  47.696  49.580  1.00  0.00    -0.279 N 
HETATM    8  H   UNL     1      17.519  47.365  50.510  1.00  0.00     0.189 HD
HETATM    9  N   UNL     1      17.111  47.165  48.521  1.00  0.00    -0.149 NA
HETATM   10  C   UNL     1      17.691  47.768  47.492  1.00  0.00     0.190 A 
HETATM   11  C   UNL     1      19.624  49.326  50.135  1.00  0.00     0.097 C 
ENDROOT
BRANCH   4  12
HETATM   12  C   UNL     1      18.706  50.546  46.224  1.00  0.00    -0.048 A 
HETATM   13  C   UNL     1      18.696  50.398  44.822  1.00  0.00     0.009 A 
HETATM   14  C   UNL     1      17.946  51.250  44.008  1.00  0.00     0.019 A 
HETATM   15  C   UNL     1      17.202  52.275  44.582  1.00  0.00     0.011 A 
HETATM   16 BR   UNL     1      16.183  53.429  43.485  1.00  0.00    -0.051 Br
HETATM   17  C   UNL     1      17.198  52.449  45.963  1.00  0.00     0.019 A 
HETATM   18  C   UNL     1      17.943  51.590  46.776  1.00  0.00     0.009 A 
ENDBRANCH   4  12
BRANCH   3  19
HETATM   19  C   UNL     1      21.902  49.462  47.807  1.00  0.00     0.266 C 
HETATM   20  O   UNL     1      22.014  48.305  48.188  1.00  0.00    -0.265 OA
BRANCH  19  21
HETATM   21  O   UNL     1      22.898  50.193  47.234  1.00  0.00    -0.326 OA
HETATM   22  C   UNL     1      24.150  50.119  47.918  1.00  0.00     0.213 C 
ENDBRANCH  19  21
ENDBRANCH   3  19
BRANCH   2  23
HETATM   23  O   UNL     1      19.365  51.655  49.474  1.00  0.00    -0.389 OA
HETATM   24  H   UNL     1      19.417  52.037  50.365  1.00  0.00     0.210 HD
ENDBRANCH   2  23
BRANCH  10  25
HETATM   25  O   UNL     1      17.267  47.385  46.293  1.00  0.00    -0.343 OA
HETATM   26  H   UNL     1      16.309  47.549  46.310  1.00  0.00     0.219 HD
ENDBRANCH  10  25
TORSDOF 5
ENDMDL
MODEL 9
REMARK VINA RESULT:      -6.1     24.992     26.930
REMARK  5 active torsions:
REMARK  status: ('A' for Active; 'I' for Inactive)
REMARK    1  A    between atoms: C_2  and  O_3 
REMARK    2  A    between atoms: C_4  and  C_5 
REMARK    3  A    between atoms: C_5  and  O_6 
REMARK    4  A    between atoms: C_9  and  C_10 
REMARK    5  A    between atoms: C_22  and  O_23 
ROOT
HETATM    1  C   UNL     1      37.140  43.462  63.506  1.00  0.00     0.047 C 
HETATM    2  C   UNL     1      38.199  44.523  63.851  1.00  0.00     0.073 C 
HETATM    3  C   UNL     1      38.176  44.905  65.369  1.00  0.00     0.133 C 
HETATM    4  C   UNL     1      39.352  45.781  65.894  1.00  0.00     0.074 C 
HETATM    5  C   UNL     1      40.589  45.611  65.086  1.00  0.00     0.030 A 
HETATM    6  C   UNL     1      40.668  44.850  63.940  1.00  0.00     0.042 A 
HETATM    7  N   UNL     1      41.967  44.903  63.516  1.00  0.00    -0.279 N 
HETATM    8  H   UNL     1      42.393  44.448  62.714  1.00  0.00     0.189 HD
HETATM    9  N   UNL     1      42.749  45.652  64.322  1.00  0.00    -0.149 NA
HETATM   10  C   UNL     1      41.905  46.041  65.269  1.00  0.00     0.190 A 
HETATM   11  C   UNL     1      39.583  44.052  63.318  1.00  0.00     0.097 C 
ENDROOT
BRANCH   4  12
HETATM   12  C   UNL     1      39.012  47.269  65.955  1.00  0.00    -0.048 A 
HETATM   13  C   UNL     1      38.255  47.724  67.053  1.00  0.00     0.009 A 
HETATM   14  C   UNL     1      37.893  49.068  67.179  1.00  0.00     0.019 A 
HETATM   15  C   UNL     1      38.273  49.979  66.199  1.00  0.00     0.011 A 
HETATM   16 BR   UNL     1      37.789  51.798  66.366  1.00  0.00    -0.051 Br
HETATM   17  C   UNL     1      39.014  49.557  65.100  1.00  0.00     0.019 A 
HETATM   18  C   UNL     1      39.381  48.214  64.980  1.00  0.00     0.009 A 
ENDBRANCH   4  12
BRANCH   3  19
HETATM   19  C   UNL     1      38.151  43.652  66.220  1.00  0.00     0.266 C 
HETATM   20  O   UNL     1      39.120  42.938  66.442  1.00  0.00    -0.265 OA
BRANCH  19  21
HETATM   21  O   UNL     1      36.895  43.432  66.698  1.00  0.00    -0.326 OA
HETATM   22  C   UNL     1      36.253  44.594  67.224  1.00  0.00     0.213 C 
ENDBRANCH  19  21
ENDBRANCH   3  19
BRANCH   2  23
HETATM   23  O   UNL     1      37.786  45.679  63.092  1.00  0.00    -0.389 OA
HETATM   24  H   UNL     1      36.854  45.561  62.846  1.00  0.00     0.210 HD
ENDBRANCH   2  23
BRANCH  10  25
HETATM   25  O   UNL     1      42.437  46.770  66.243  1.00  0.00    -0.343 OA
HETATM   26  H   UNL     1      42.584  46.139  66.968  1.00  0.00     0.219 HD
ENDBRANCH  10  25
TORSDOF 5
ENDMDL
MODEL 10
REMARK VINA RESULT:      -6.1     25.165     26.758
REMARK  5 active torsions:
REMARK  status: ('A' for Active; 'I' for Inactive)
REMARK    1  A    between atoms: C_2  and  O_3 
REMARK    2  A    between atoms: C_4  and  C_5 
REMARK    3  A    between atoms: C_5  and  O_6 
REMARK    4  A    between atoms: C_9  and  C_10 
REMARK    5  A    between atoms: C_22  and  O_23 
ROOT
HETATM    1  C   UNL     1      38.336  47.915  67.590  1.00  0.00     0.047 C 
HETATM    2  C   UNL     1      39.434  47.105  66.880  1.00  0.00     0.073 C 
HETATM    3  C   UNL     1      39.161  46.964  65.345  1.00  0.00     0.133 C 
HETATM    4  C   UNL     1      40.314  46.382  64.473  1.00  0.00     0.074 C 
HETATM    5  C   UNL     1      41.653  46.623  65.074  1.00  0.00     0.030 A 
HETATM    6  C   UNL     1      41.858  47.200  66.308  1.00  0.00     0.042 A 
HETATM    7  N   UNL     1      43.211  47.293  66.484  1.00  0.00    -0.279 N 
HETATM    8  H   UNL     1      43.724  47.681  67.269  1.00  0.00     0.189 HD
HETATM    9  N   UNL     1      43.908  46.814  65.432  1.00  0.00    -0.149 NA
HETATM   10  C   UNL     1      42.952  46.445  64.591  1.00  0.00     0.190 A 
HETATM   11  C   UNL     1      40.824  47.706  67.242  1.00  0.00     0.097 C 
ENDROOT
BRANCH   4  12
HETATM   12  C   UNL     1      40.164  44.886  64.203  1.00  0.00    -0.048 A 
HETATM   13  C   UNL     1      39.361  44.494  63.113  1.00  0.00     0.009 A 
HETATM   14  C   UNL     1      39.164  43.146  62.804  1.00  0.00     0.019 A 
HETATM   15  C   UNL     1      39.760  42.164  63.588  1.00  0.00     0.011 A 
HETATM   16 BR   UNL     1      39.501  40.339  63.171  1.00  0.00    -0.051 Br
HETATM   17  C   UNL     1      40.554  42.521  64.674  1.00  0.00     0.019 A 
HETATM   18  C   UNL     1      40.755  43.871  64.977  1.00  0.00     0.009 A 
ENDBRANCH   4  12
BRANCH   3  19
HETATM   19  C   UNL     1      38.806  48.313  64.754  1.00  0.00     0.266 C 
HETATM   20  O   UNL     1      39.608  49.205  64.515  1.00  0.00    -0.265 OA
BRANCH  19  21
HETATM   21  O   UNL     1      37.465  48.392  64.531  1.00  0.00    -0.326 OA
HETATM   22  C   UNL     1      36.841  47.139  64.248  1.00  0.00     0.213 C 
ENDBRANCH  19  21
ENDBRANCH   3  19
BRANCH   2  23
HETATM   23  O   UNL     1      39.334  45.795  67.476  1.00  0.00    -0.389 OA
HETATM   24  H   UNL     1      39.963  45.750  68.214  1.00  0.00     0.210 HD
ENDBRANCH   2  23
BRANCH  10  25
HETATM   25  O   UNL     1      43.370  45.971  63.423  1.00  0.00    -0.343 OA
HETATM   26  H   UNL     1      43.913  46.686  63.050  1.00  0.00     0.219 HD
ENDBRANCH  10  25
TORSDOF 5
ENDMDL
