MODEL 1
REMARK VINA RESULT:     -11.5      0.000      0.000
REMARK  9 active torsions:
REMARK  status: ('A' for Active; 'I' for Inactive)
REMARK    1  A    between atoms: C_4  and  S_5 
REMARK    2  A    between atoms: S_5  and  C_6 
REMARK    3  A    between atoms: C_6  and  C_7 
REMARK       I    between atoms: C_7  and  N_8 
REMARK    4  A    between atoms: N_8  and  C_9 
REMARK    5  A    between atoms: C_9  and  C_10 
REMARK    6  A    between atoms: C_20  and  C_21 
REMARK    7  A    between atoms: C_26  and  C_27 
REMARK       I    between atoms: C_27  and  N_28 
REMARK    8  A    between atoms: N_28  and  C_29 
REMARK    9  A    between atoms: C_31  and  C_32 
ROOT
HETATM    1  C   UNL     1      22.711  44.804  48.016  1.00  0.00     0.069 C 
HETATM    2  C   UNL     1      23.548  45.510  49.056  1.00  0.00     0.019 C 
HETATM    3  N   UNL     1      24.379  44.689  49.811  1.00  0.00    -0.353 N 
HETATM    4  C   UNL     1      24.987  45.076  50.998  1.00  0.00     0.087 C 
HETATM    5  C   UNL     1      24.997  46.390  51.318  1.00  0.00     0.057 C 
HETATM    6  C   UNL     1      25.473  46.937  52.655  1.00  0.00     0.019 C 
HETATM    7  N   UNL     1      25.868  47.389  53.763  1.00  0.00    -0.096 N 
HETATM    8  C   UNL     1      24.471  47.435  50.332  1.00  0.00     0.129 C 
HETATM    9  C   UNL     1      23.531  46.845  49.286  1.00  0.00     0.048 C 
HETATM   10  H   UNL     1      24.161  43.696  49.763  1.00  0.00     0.166 HD
ENDROOT
BRANCH   4  11
HETATM   11  S   UNL     1      25.717  43.881  52.063  1.00  0.00    -0.102 SA
BRANCH  11  12
HETATM   12  C   UNL     1      27.407  43.884  51.384  1.00  0.00     0.183 C 
BRANCH  12  13
HETATM   13  C   UNL     1      28.449  43.164  52.219  1.00  0.00     0.227 C 
HETATM   14  N   UNL     1      29.021  43.842  53.265  1.00  0.00    -0.356 N 
HETATM   15  H   UNL     1      28.842  44.836  53.361  1.00  0.00     0.162 HD
HETATM   16  O   UNL     1      28.780  42.014  51.926  1.00  0.00    -0.273 OA
BRANCH  14  17
HETATM   17  C   UNL     1      30.115  43.254  54.006  1.00  0.00     0.161 C 
BRANCH  17  18
HETATM   18  C   UNL     1      30.295  43.856  55.373  1.00  0.00    -0.041 A 
HETATM   19  C   UNL     1      31.180  43.296  56.306  1.00  0.00     0.009 A 
HETATM   20  C   UNL     1      31.385  43.904  57.547  1.00  0.00     0.001 A 
HETATM   21  C   UNL     1      30.720  45.087  57.863  1.00  0.00     0.000 A 
HETATM   22  C   UNL     1      29.851  45.664  56.940  1.00  0.00     0.001 A 
HETATM   23  C   UNL     1      29.641  45.054  55.702  1.00  0.00     0.009 A 
ENDBRANCH  17  18
ENDBRANCH  14  17
ENDBRANCH  12  13
ENDBRANCH  11  12
ENDBRANCH   4  11
BRANCH   8  24
HETATM   24  C   UNL     1      25.620  48.184  49.696  1.00  0.00     0.066 A 
HETATM   25  O   UNL     1      25.310  49.363  49.083  1.00  0.00    -0.326 OA
HETATM   26  C   UNL     1      26.467  49.859  48.573  1.00  0.00     0.142 A 
HETATM   27  C   UNL     1      27.512  49.002  48.826  1.00  0.00     0.027 A 
HETATM   28  C   UNL     1      26.967  47.916  49.548  1.00  0.00     0.035 A 
ENDBRANCH   8  24
BRANCH   9  29
HETATM   29  C   UNL     1      22.501  47.728  48.631  1.00  0.00     0.255 C 
HETATM   30  N   UNL     1      21.288  47.805  49.281  1.00  0.00    -0.323 N 
HETATM   31  H   UNL     1      21.154  47.260  50.124  1.00  0.00     0.169 HD
HETATM   32  O   UNL     1      22.763  48.269  47.561  1.00  0.00    -0.268 OA
BRANCH  30  33
HETATM   33  C   UNL     1      20.160  48.570  48.908  1.00  0.00     0.035 A 
HETATM   34  C   UNL     1      20.019  49.937  49.161  1.00  0.00     0.045 A 
HETATM   35  C   UNL     1      18.854  50.625  48.776  1.00  0.00     0.050 A 
HETATM   36  C   UNL     1      17.830  49.923  48.122  1.00  0.00     0.016 A 
HETATM   37  C   UNL     1      17.964  48.562  47.864  1.00  0.00     0.003 A 
HETATM   38  C   UNL     1      19.120  47.890  48.262  1.00  0.00     0.029 A 
BRANCH  35  39
HETATM   39  C   UNL     1      18.680  52.093  49.079  1.00  0.00     0.417 C 
HETATM   40  F   UNL     1      19.440  52.914  48.302  1.00  0.00    -0.166 F 
HETATM   41  F   UNL     1      17.394  52.510  48.915  1.00  0.00    -0.166 F 
HETATM   42  F   UNL     1      19.005  52.394  50.367  1.00  0.00    -0.166 F 
ENDBRANCH  35  39
ENDBRANCH  30  33
ENDBRANCH   9  29
TORSDOF 9
ENDMDL
MODEL 2
REMARK VINA RESULT:     -11.4      1.107      1.775
REMARK  9 active torsions:
REMARK  status: ('A' for Active; 'I' for Inactive)
REMARK    1  A    between atoms: C_4  and  S_5 
REMARK    2  A    between atoms: S_5  and  C_6 
REMARK    3  A    between atoms: C_6  and  C_7 
REMARK       I    between atoms: C_7  and  N_8 
REMARK    4  A    between atoms: N_8  and  C_9 
REMARK    5  A    between atoms: C_9  and  C_10 
REMARK    6  A    between atoms: C_20  and  C_21 
REMARK    7  A    between atoms: C_26  and  C_27 
REMARK       I    between atoms: C_27  and  N_28 
REMARK    8  A    between atoms: N_28  and  C_29 
REMARK    9  A    between atoms: C_31  and  C_32 
ROOT
HETATM    1  C   UNL     1      22.642  44.966  48.015  1.00  0.00     0.069 C 
HETATM    2  C   UNL     1      23.509  45.644  49.049  1.00  0.00     0.019 C 
HETATM    3  N   UNL     1      24.322  44.797  49.795  1.00  0.00    -0.353 N 
HETATM    4  C   UNL     1      24.952  45.163  50.978  1.00  0.00     0.087 C 
HETATM    5  C   UNL     1      25.004  46.476  51.300  1.00  0.00     0.057 C 
HETATM    6  C   UNL     1      25.509  47.005  52.633  1.00  0.00     0.019 C 
HETATM    7  N   UNL     1      25.927  47.442  53.739  1.00  0.00    -0.096 N 
HETATM    8  C   UNL     1      24.501  47.538  50.320  1.00  0.00     0.129 C 
HETATM    9  C   UNL     1      23.533  46.979  49.282  1.00  0.00     0.048 C 
HETATM   10  H   UNL     1      24.073  43.811  49.747  1.00  0.00     0.166 HD
ENDROOT
BRANCH   4  11
HETATM   11  S   UNL     1      25.655  43.944  52.033  1.00  0.00    -0.102 SA
BRANCH  11  12
HETATM   12  C   UNL     1      27.379  44.018  51.449  1.00  0.00     0.183 C 
BRANCH  12  13
HETATM   13  C   UNL     1      28.382  43.226  52.268  1.00  0.00     0.227 C 
HETATM   14  N   UNL     1      28.918  43.817  53.382  1.00  0.00    -0.356 N 
HETATM   15  H   UNL     1      28.745  44.803  53.546  1.00  0.00     0.162 HD
HETATM   16  O   UNL     1      28.713  42.096  51.903  1.00  0.00    -0.273 OA
BRANCH  14  17
HETATM   17  C   UNL     1      29.978  43.162  54.118  1.00  0.00     0.161 C 
BRANCH  17  18
HETATM   18  C   UNL     1      30.321  43.861  55.406  1.00  0.00    -0.041 A 
HETATM   19  C   UNL     1      29.672  45.043  55.790  1.00  0.00     0.009 A 
HETATM   20  C   UNL     1      29.955  45.644  57.019  1.00  0.00     0.001 A 
HETATM   21  C   UNL     1      30.878  45.061  57.885  1.00  0.00     0.000 A 
HETATM   22  C   UNL     1      31.518  43.878  57.524  1.00  0.00     0.001 A 
HETATM   23  C   UNL     1      31.241  43.279  56.294  1.00  0.00     0.009 A 
ENDBRANCH  17  18
ENDBRANCH  14  17
ENDBRANCH  12  13
ENDBRANCH  11  12
ENDBRANCH   4  11
BRANCH   8  24
HETATM   24  C   UNL     1      25.665  48.253  49.676  1.00  0.00     0.066 A 
HETATM   25  O   UNL     1      25.369  49.390  48.980  1.00  0.00    -0.326 OA
HETATM   26  C   UNL     1      26.540  49.861  48.477  1.00  0.00     0.142 A 
HETATM   27  C   UNL     1      27.580  49.029  48.817  1.00  0.00     0.027 A 
HETATM   28  C   UNL     1      27.017  47.986  49.587  1.00  0.00     0.035 A 
ENDBRANCH   8  24
BRANCH   9  29
HETATM   29  C   UNL     1      22.525  47.893  48.639  1.00  0.00     0.255 C 
HETATM   30  N   UNL     1      21.667  48.533  49.507  1.00  0.00    -0.323 N 
HETATM   31  H   UNL     1      21.747  48.339  50.498  1.00  0.00     0.169 HD
HETATM   32  O   UNL     1      22.479  47.976  47.415  1.00  0.00    -0.268 OA
BRANCH  30  33
HETATM   33  C   UNL     1      20.648  49.458  49.185  1.00  0.00     0.035 A 
HETATM   34  C   UNL     1      19.323  49.105  48.917  1.00  0.00     0.045 A 
HETATM   35  C   UNL     1      18.370  50.085  48.582  1.00  0.00     0.050 A 
HETATM   36  C   UNL     1      18.763  51.431  48.528  1.00  0.00     0.016 A 
HETATM   37  C   UNL     1      20.080  51.790  48.797  1.00  0.00     0.003 A 
HETATM   38  C   UNL     1      21.018  50.807  49.116  1.00  0.00     0.029 A 
BRANCH  35  39
HETATM   39  C   UNL     1      16.946  49.707  48.256  1.00  0.00     0.417 C 
HETATM   40  F   UNL     1      16.011  50.509  48.837  1.00  0.00    -0.166 F 
HETATM   41  F   UNL     1      16.691  49.745  46.919  1.00  0.00    -0.166 F 
HETATM   42  F   UNL     1      16.647  48.439  48.654  1.00  0.00    -0.166 F 
ENDBRANCH  35  39
ENDBRANCH  30  33
ENDBRANCH   9  29
TORSDOF 9
ENDMDL
MODEL 3
REMARK VINA RESULT:     -10.2      4.417     10.753
REMARK  9 active torsions:
REMARK  status: ('A' for Active; 'I' for Inactive)
REMARK    1  A    between atoms: C_4  and  S_5 
REMARK    2  A    between atoms: S_5  and  C_6 
REMARK    3  A    between atoms: C_6  and  C_7 
REMARK       I    between atoms: C_7  and  N_8 
REMARK    4  A    between atoms: N_8  and  C_9 
REMARK    5  A    between atoms: C_9  and  C_10 
REMARK    6  A    between atoms: C_20  and  C_21 
REMARK    7  A    between atoms: C_26  and  C_27 
REMARK       I    between atoms: C_27  and  N_28 
REMARK    8  A    between atoms: N_28  and  C_29 
REMARK    9  A    between atoms: C_31  and  C_32 
ROOT
HETATM    1  C   UNL     1      26.282  46.879  51.008  1.00  0.00     0.069 C 
HETATM    2  C   UNL     1      25.707  45.581  50.490  1.00  0.00     0.019 C 
HETATM    3  N   UNL     1      24.962  45.683  49.320  1.00  0.00    -0.353 N 
HETATM    4  C   UNL     1      24.106  44.693  48.852  1.00  0.00     0.087 C 
HETATM    5  C   UNL     1      24.184  43.461  49.404  1.00  0.00     0.057 C 
HETATM    6  C   UNL     1      23.206  42.335  49.113  1.00  0.00     0.019 C 
HETATM    7  N   UNL     1      22.393  41.402  48.870  1.00  0.00    -0.096 N 
HETATM    8  C   UNL     1      25.279  43.132  50.422  1.00  0.00     0.129 C 
HETATM    9  C   UNL     1      25.869  44.374  51.083  1.00  0.00     0.048 C 
HETATM   10  H   UNL     1      24.674  46.628  49.075  1.00  0.00     0.166 HD
ENDROOT
BRANCH   4  11
HETATM   11  S   UNL     1      22.943  45.043  47.580  1.00  0.00    -0.102 SA
BRANCH  11  12
HETATM   12  C   UNL     1      21.810  46.119  48.514  1.00  0.00     0.183 C 
BRANCH  12  13
HETATM   13  C   UNL     1      22.206  47.582  48.587  1.00  0.00     0.227 C 
HETATM   14  N   UNL     1      21.497  48.404  49.424  1.00  0.00    -0.356 N 
HETATM   15  H   UNL     1      20.648  48.052  49.853  1.00  0.00     0.162 HD
HETATM   16  O   UNL     1      23.123  48.003  47.879  1.00  0.00    -0.273 OA
BRANCH  14  17
HETATM   17  C   UNL     1      21.742  49.830  49.428  1.00  0.00     0.161 C 
BRANCH  17  18
HETATM   18  C   UNL     1      20.479  50.647  49.372  1.00  0.00    -0.041 A 
HETATM   19  C   UNL     1      20.320  51.681  48.438  1.00  0.00     0.009 A 
HETATM   20  C   UNL     1      19.118  52.386  48.355  1.00  0.00     0.001 A 
HETATM   21  C   UNL     1      18.056  52.057  49.194  1.00  0.00     0.000 A 
HETATM   22  C   UNL     1      18.193  51.022  50.115  1.00  0.00     0.001 A 
HETATM   23  C   UNL     1      19.396  50.319  50.204  1.00  0.00     0.009 A 
ENDBRANCH  17  18
ENDBRANCH  14  17
ENDBRANCH  12  13
ENDBRANCH  11  12
ENDBRANCH   4  11
BRANCH   8  24
HETATM   24  C   UNL     1      26.347  42.273  49.786  1.00  0.00     0.066 A 
HETATM   25  O   UNL     1      27.170  41.597  50.640  1.00  0.00    -0.326 OA
HETATM   26  C   UNL     1      28.054  40.907  49.874  1.00  0.00     0.142 A 
HETATM   27  C   UNL     1      27.828  41.150  48.540  1.00  0.00     0.027 A 
HETATM   28  C   UNL     1      26.729  42.037  48.480  1.00  0.00     0.035 A 
ENDBRANCH   8  24
BRANCH   9  29
HETATM   29  C   UNL     1      26.492  44.261  52.449  1.00  0.00     0.255 C 
HETATM   30  N   UNL     1      27.868  44.173  52.467  1.00  0.00    -0.323 N 
HETATM   31  H   UNL     1      28.364  44.164  51.584  1.00  0.00     0.169 HD
HETATM   32  O   UNL     1      25.769  44.198  53.439  1.00  0.00    -0.268 OA
BRANCH  30  33
HETATM   33  C   UNL     1      28.709  44.084  53.598  1.00  0.00     0.035 A 
HETATM   34  C   UNL     1      28.662  44.962  54.684  1.00  0.00     0.045 A 
HETATM   35  C   UNL     1      29.549  44.819  55.767  1.00  0.00     0.050 A 
HETATM   36  C   UNL     1      30.484  43.774  55.750  1.00  0.00     0.016 A 
HETATM   37  C   UNL     1      30.536  42.894  54.674  1.00  0.00     0.003 A 
HETATM   38  C   UNL     1      29.658  43.054  53.602  1.00  0.00     0.029 A 
BRANCH  35  39
HETATM   39  C   UNL     1      29.526  45.786  56.925  1.00  0.00     0.417 C 
HETATM   40  F   UNL     1      28.493  46.672  56.890  1.00  0.00    -0.166 F 
HETATM   41  F   UNL     1      29.435  45.155  58.129  1.00  0.00    -0.166 F 
HETATM   42  F   UNL     1      30.659  46.540  56.988  1.00  0.00    -0.166 F 
ENDBRANCH  35  39
ENDBRANCH  30  33
ENDBRANCH   9  29
TORSDOF 9
ENDMDL
MODEL 4
REMARK VINA RESULT:     -10.1      2.206      4.116
REMARK  9 active torsions:
REMARK  status: ('A' for Active; 'I' for Inactive)
REMARK    1  A    between atoms: C_4  and  S_5 
REMARK    2  A    between atoms: S_5  and  C_6 
REMARK    3  A    between atoms: C_6  and  C_7 
REMARK       I    between atoms: C_7  and  N_8 
REMARK    4  A    between atoms: N_8  and  C_9 
REMARK    5  A    between atoms: C_9  and  C_10 
REMARK    6  A    between atoms: C_20  and  C_21 
REMARK    7  A    between atoms: C_26  and  C_27 
REMARK       I    between atoms: C_27  and  N_28 
REMARK    8  A    between atoms: N_28  and  C_29 
REMARK    9  A    between atoms: C_31  and  C_32 
ROOT
HETATM    1  C   UNL     1      25.525  45.944  52.761  1.00  0.00     0.069 C 
HETATM    2  C   UNL     1      25.682  44.950  51.635  1.00  0.00     0.019 C 
HETATM    3  N   UNL     1      25.967  43.646  52.025  1.00  0.00    -0.353 N 
HETATM    4  C   UNL     1      26.446  42.663  51.168  1.00  0.00     0.087 C 
HETATM    5  C   UNL     1      26.392  42.888  49.835  1.00  0.00     0.057 C 
HETATM    6  C   UNL     1      27.028  41.983  48.793  1.00  0.00     0.019 C 
HETATM    7  N   UNL     1      27.556  41.231  47.930  1.00  0.00    -0.096 N 
HETATM    8  C   UNL     1      25.697  44.136  49.285  1.00  0.00     0.129 C 
HETATM    9  C   UNL     1      25.569  45.250  50.318  1.00  0.00     0.048 C 
HETATM   10  H   UNL     1      26.283  43.545  52.988  1.00  0.00     0.166 HD
ENDROOT
BRANCH   4  11
HETATM   11  S   UNL     1      27.116  41.167  51.806  1.00  0.00    -0.102 SA
BRANCH  11  12
HETATM   12  C   UNL     1      28.559  41.849  52.684  1.00  0.00     0.183 C 
BRANCH  12  13
HETATM   13  C   UNL     1      28.254  42.936  53.698  1.00  0.00     0.227 C 
HETATM   14  N   UNL     1      29.088  44.023  53.752  1.00  0.00    -0.356 N 
HETATM   15  H   UNL     1      29.954  44.003  53.224  1.00  0.00     0.162 HD
HETATM   16  O   UNL     1      27.296  42.808  54.463  1.00  0.00    -0.273 OA
BRANCH  14  17
HETATM   17  C   UNL     1      28.925  45.019  54.789  1.00  0.00     0.161 C 
BRANCH  17  18
HETATM   18  C   UNL     1      29.829  44.795  55.971  1.00  0.00    -0.041 A 
HETATM   19  C   UNL     1      30.817  43.799  55.955  1.00  0.00     0.009 A 
HETATM   20  C   UNL     1      31.692  43.647  57.033  1.00  0.00     0.001 A 
HETATM   21  C   UNL     1      31.600  44.498  58.132  1.00  0.00     0.000 A 
HETATM   22  C   UNL     1      30.635  45.502  58.155  1.00  0.00     0.001 A 
HETATM   23  C   UNL     1      29.756  45.652  57.080  1.00  0.00     0.009 A 
ENDBRANCH  17  18
ENDBRANCH  14  17
ENDBRANCH  12  13
ENDBRANCH  11  12
ENDBRANCH   4  11
BRANCH   8  24
HETATM   24  C   UNL     1      24.360  43.771  48.683  1.00  0.00     0.066 A 
HETATM   25  O   UNL     1      23.851  44.640  47.763  1.00  0.00    -0.326 OA
HETATM   26  C   UNL     1      22.654  44.138  47.364  1.00  0.00     0.142 A 
HETATM   27  C   UNL     1      22.373  42.972  48.036  1.00  0.00     0.027 A 
HETATM   28  C   UNL     1      23.471  42.734  48.893  1.00  0.00     0.035 A 
ENDBRANCH   8  24
BRANCH   9  29
HETATM   29  C   UNL     1      25.465  46.680  49.859  1.00  0.00     0.255 C 
HETATM   30  N   UNL     1      24.184  47.140  49.639  1.00  0.00    -0.323 N 
HETATM   31  H   UNL     1      23.410  46.501  49.773  1.00  0.00     0.169 HD
HETATM   32  O   UNL     1      26.489  47.324  49.654  1.00  0.00    -0.268 OA
BRANCH  30  33
HETATM   33  C   UNL     1      23.793  48.435  49.232  1.00  0.00     0.035 A 
HETATM   34  C   UNL     1      22.540  48.996  49.490  1.00  0.00     0.045 A 
HETATM   35  C   UNL     1      22.219  50.287  49.032  1.00  0.00     0.050 A 
HETATM   36  C   UNL     1      23.180  51.017  48.316  1.00  0.00     0.016 A 
HETATM   37  C   UNL     1      24.432  50.467  48.058  1.00  0.00     0.003 A 
HETATM   38  C   UNL     1      24.732  49.180  48.508  1.00  0.00     0.029 A 
BRANCH  35  39
HETATM   39  C   UNL     1      20.854  50.883  49.276  1.00  0.00     0.417 C 
HETATM   40  F   UNL     1      20.583  51.980  48.517  1.00  0.00    -0.166 F 
HETATM   41  F   UNL     1      19.848  49.999  49.027  1.00  0.00    -0.166 F 
HETATM   42  F   UNL     1      20.689  51.276  50.570  1.00  0.00    -0.166 F 
ENDBRANCH  35  39
ENDBRANCH  30  33
ENDBRANCH   9  29
TORSDOF 9
ENDMDL
MODEL 5
REMARK VINA RESULT:      -9.9      3.070      4.651
REMARK  9 active torsions:
REMARK  status: ('A' for Active; 'I' for Inactive)
REMARK    1  A    between atoms: C_4  and  S_5 
REMARK    2  A    between atoms: S_5  and  C_6 
REMARK    3  A    between atoms: C_6  and  C_7 
REMARK       I    between atoms: C_7  and  N_8 
REMARK    4  A    between atoms: N_8  and  C_9 
REMARK    5  A    between atoms: C_9  and  C_10 
REMARK    6  A    between atoms: C_20  and  C_21 
REMARK    7  A    between atoms: C_26  and  C_27 
REMARK       I    between atoms: C_27  and  N_28 
REMARK    8  A    between atoms: N_28  and  C_29 
REMARK    9  A    between atoms: C_31  and  C_32 
ROOT
HETATM    1  C   UNL     1      22.766  44.762  47.932  1.00  0.00     0.069 C 
HETATM    2  C   UNL     1      23.591  45.471  48.980  1.00  0.00     0.019 C 
HETATM    3  N   UNL     1      24.459  44.662  49.705  1.00  0.00    -0.353 N 
HETATM    4  C   UNL     1      25.067  45.040  50.895  1.00  0.00     0.087 C 
HETATM    5  C   UNL     1      25.036  46.346  51.248  1.00  0.00     0.057 C 
HETATM    6  C   UNL     1      25.510  46.876  52.591  1.00  0.00     0.019 C 
HETATM    7  N   UNL     1      25.902  47.314  53.706  1.00  0.00    -0.096 N 
HETATM    8  C   UNL     1      24.463  47.395  50.293  1.00  0.00     0.129 C 
HETATM    9  C   UNL     1      23.531  46.799  49.243  1.00  0.00     0.048 C 
HETATM   10  H   UNL     1      24.273  43.662  49.636  1.00  0.00     0.166 HD
ENDROOT
BRANCH   4  11
HETATM   11  S   UNL     1      25.850  43.845  51.921  1.00  0.00    -0.102 SA
BRANCH  11  12
HETATM   12  C   UNL     1      25.428  42.341  50.984  1.00  0.00     0.183 C 
BRANCH  12  13
HETATM   13  C   UNL     1      26.599  41.620  50.343  1.00  0.00     0.227 C 
HETATM   14  N   UNL     1      26.976  40.408  50.862  1.00  0.00    -0.356 N 
HETATM   15  H   UNL     1      26.564  40.100  51.736  1.00  0.00     0.162 HD
HETATM   16  O   UNL     1      27.200  42.143  49.403  1.00  0.00    -0.273 OA
BRANCH  14  17
HETATM   17  C   UNL     1      28.167  39.744  50.379  1.00  0.00     0.161 C 
BRANCH  17  18
HETATM   18  C   UNL     1      27.882  38.717  49.317  1.00  0.00    -0.041 A 
HETATM   19  C   UNL     1      28.678  38.619  48.166  1.00  0.00     0.009 A 
HETATM   20  C   UNL     1      28.442  37.619  47.221  1.00  0.00     0.001 A 
HETATM   21  C   UNL     1      27.418  36.696  47.422  1.00  0.00     0.000 A 
HETATM   22  C   UNL     1      26.630  36.771  48.567  1.00  0.00     0.001 A 
HETATM   23  C   UNL     1      26.861  37.774  49.511  1.00  0.00     0.009 A 
ENDBRANCH  17  18
ENDBRANCH  14  17
ENDBRANCH  12  13
ENDBRANCH  11  12
ENDBRANCH   4  11
BRANCH   8  24
HETATM   24  C   UNL     1      25.578  48.198  49.663  1.00  0.00     0.066 A 
HETATM   25  O   UNL     1      25.222  49.385  49.090  1.00  0.00    -0.326 OA
HETATM   26  C   UNL     1      26.355  49.932  48.578  1.00  0.00     0.142 A 
HETATM   27  C   UNL     1      27.430  49.101  48.790  1.00  0.00     0.027 A 
HETATM   28  C   UNL     1      26.930  47.977  49.487  1.00  0.00     0.035 A 
ENDBRANCH   8  24
BRANCH   9  29
HETATM   29  C   UNL     1      22.464  47.661  48.622  1.00  0.00     0.255 C 
HETATM   30  N   UNL     1      21.292  47.765  49.342  1.00  0.00    -0.323 N 
HETATM   31  H   UNL     1      21.210  47.250  50.210  1.00  0.00     0.169 HD
HETATM   32  O   UNL     1      22.660  48.164  47.520  1.00  0.00    -0.268 OA
BRANCH  30  33
HETATM   33  C   UNL     1      20.145  48.520  49.012  1.00  0.00     0.035 A 
HETATM   34  C   UNL     1      20.046  49.906  49.160  1.00  0.00     0.045 A 
HETATM   35  C   UNL     1      18.859  50.584  48.828  1.00  0.00     0.050 A 
HETATM   36  C   UNL     1      17.769  49.852  48.335  1.00  0.00     0.016 A 
HETATM   37  C   UNL     1      17.860  48.471  48.182  1.00  0.00     0.003 A 
HETATM   38  C   UNL     1      19.040  47.810  48.526  1.00  0.00     0.029 A 
BRANCH  35  39
HETATM   39  C   UNL     1      18.735  52.075  49.020  1.00  0.00     0.417 C 
HETATM   40  F   UNL     1      19.688  52.801  48.373  1.00  0.00    -0.166 F 
HETATM   41  F   UNL     1      17.538  52.559  48.582  1.00  0.00    -0.166 F 
HETATM   42  F   UNL     1      18.820  52.434  50.331  1.00  0.00    -0.166 F 
ENDBRANCH  35  39
ENDBRANCH  30  33
ENDBRANCH   9  29
TORSDOF 9
ENDMDL
MODEL 6
REMARK VINA RESULT:      -9.5      4.584     10.229
REMARK  9 active torsions:
REMARK  status: ('A' for Active; 'I' for Inactive)
REMARK    1  A    between atoms: C_4  and  S_5 
REMARK    2  A    between atoms: S_5  and  C_6 
REMARK    3  A    between atoms: C_6  and  C_7 
REMARK       I    between atoms: C_7  and  N_8 
REMARK    4  A    between atoms: N_8  and  C_9 
REMARK    5  A    between atoms: C_9  and  C_10 
REMARK    6  A    between atoms: C_20  and  C_21 
REMARK    7  A    between atoms: C_26  and  C_27 
REMARK       I    between atoms: C_27  and  N_28 
REMARK    8  A    between atoms: N_28  and  C_29 
REMARK    9  A    between atoms: C_31  and  C_32 
ROOT
HETATM    1  C   UNL     1      25.668  46.222  50.028  1.00  0.00     0.069 C 
HETATM    2  C   UNL     1      25.259  44.871  49.490  1.00  0.00     0.019 C 
HETATM    3  N   UNL     1      24.508  44.898  48.319  1.00  0.00    -0.353 N 
HETATM    4  C   UNL     1      23.781  43.818  47.835  1.00  0.00     0.087 C 
HETATM    5  C   UNL     1      24.010  42.596  48.368  1.00  0.00     0.057 C 
HETATM    6  C   UNL     1      23.178  41.362  48.057  1.00  0.00     0.019 C 
HETATM    7  N   UNL     1      22.487  40.340  47.799  1.00  0.00    -0.096 N 
HETATM    8  C   UNL     1      25.136  42.390  49.383  1.00  0.00     0.129 C 
HETATM    9  C   UNL     1      25.568  43.684  50.065  1.00  0.00     0.048 C 
HETATM   10  H   UNL     1      24.105  45.804  48.088  1.00  0.00     0.166 HD
ENDROOT
BRANCH   4  11
HETATM   11  S   UNL     1      22.585  44.040  46.564  1.00  0.00    -0.102 SA
BRANCH  11  12
HETATM   12  C   UNL     1      21.133  44.415  47.599  1.00  0.00     0.183 C 
BRANCH  12  13
HETATM   13  C   UNL     1      20.737  45.878  47.666  1.00  0.00     0.227 C 
HETATM   14  N   UNL     1      20.894  46.537  48.858  1.00  0.00    -0.356 N 
HETATM   15  H   UNL     1      21.129  46.002  49.687  1.00  0.00     0.162 HD
HETATM   16  O   UNL     1      20.260  46.429  46.672  1.00  0.00    -0.273 OA
BRANCH  14  17
HETATM   17  C   UNL     1      20.406  47.890  49.015  1.00  0.00     0.161 C 
BRANCH  17  18
HETATM   18  C   UNL     1      21.481  48.930  48.846  1.00  0.00    -0.041 A 
HETATM   19  C   UNL     1      22.837  48.576  48.801  1.00  0.00     0.009 A 
HETATM   20  C   UNL     1      23.818  49.544  48.578  1.00  0.00     0.001 A 
HETATM   21  C   UNL     1      23.454  50.875  48.382  1.00  0.00     0.000 A 
HETATM   22  C   UNL     1      22.110  51.239  48.408  1.00  0.00     0.001 A 
HETATM   23  C   UNL     1      21.128  50.272  48.637  1.00  0.00     0.009 A 
ENDBRANCH  17  18
ENDBRANCH  14  17
ENDBRANCH  12  13
ENDBRANCH  11  12
ENDBRANCH   4  11
BRANCH   8  24
HETATM   24  C   UNL     1      26.303  41.679  48.738  1.00  0.00     0.066 A 
HETATM   25  O   UNL     1      27.279  41.227  49.578  1.00  0.00    -0.326 OA
HETATM   26  C   UNL     1      28.227  40.639  48.803  1.00  0.00     0.142 A 
HETATM   27  C   UNL     1      27.888  40.731  47.474  1.00  0.00     0.027 A 
HETATM   28  C   UNL     1      26.647  41.406  47.428  1.00  0.00     0.035 A 
ENDBRANCH   8  24
BRANCH   9  29
HETATM   29  C   UNL     1      26.199  43.629  51.430  1.00  0.00     0.255 C 
HETATM   30  N   UNL     1      27.578  43.628  51.446  1.00  0.00    -0.323 N 
HETATM   31  H   UNL     1      28.072  43.640  50.563  1.00  0.00     0.169 HD
HETATM   32  O   UNL     1      25.483  43.533  52.423  1.00  0.00    -0.268 OA
BRANCH  30  33
HETATM   33  C   UNL     1      28.425  43.608  52.577  1.00  0.00     0.035 A 
HETATM   34  C   UNL     1      28.376  44.544  53.613  1.00  0.00     0.045 A 
HETATM   35  C   UNL     1      29.270  44.466  54.697  1.00  0.00     0.050 A 
HETATM   36  C   UNL     1      30.212  43.428  54.734  1.00  0.00     0.016 A 
HETATM   37  C   UNL     1      30.265  42.490  53.707  1.00  0.00     0.003 A 
HETATM   38  C   UNL     1      29.380  42.585  52.632  1.00  0.00     0.029 A 
BRANCH  35  39
HETATM   39  C   UNL     1      29.245  45.495  55.801  1.00  0.00     0.417 C 
HETATM   40  F   UNL     1      28.079  45.531  56.502  1.00  0.00    -0.166 F 
HETATM   41  F   UNL     1      30.228  45.293  56.723  1.00  0.00    -0.166 F 
HETATM   42  F   UNL     1      29.435  46.759  55.330  1.00  0.00    -0.166 F 
ENDBRANCH  35  39
ENDBRANCH  30  33
ENDBRANCH   9  29
TORSDOF 9
ENDMDL
MODEL 7
REMARK VINA RESULT:      -9.5      4.528     11.524
REMARK  9 active torsions:
REMARK  status: ('A' for Active; 'I' for Inactive)
REMARK    1  A    between atoms: C_4  and  S_5 
REMARK    2  A    between atoms: S_5  and  C_6 
REMARK    3  A    between atoms: C_6  and  C_7 
REMARK       I    between atoms: C_7  and  N_8 
REMARK    4  A    between atoms: N_8  and  C_9 
REMARK    5  A    between atoms: C_9  and  C_10 
REMARK    6  A    between atoms: C_20  and  C_21 
REMARK    7  A    between atoms: C_26  and  C_27 
REMARK       I    between atoms: C_27  and  N_28 
REMARK    8  A    between atoms: N_28  and  C_29 
REMARK    9  A    between atoms: C_31  and  C_32 
ROOT
HETATM    1  C   UNL     1      25.353  49.442  48.861  1.00  0.00     0.069 C 
HETATM    2  C   UNL     1      23.989  48.811  48.713  1.00  0.00     0.019 C 
HETATM    3  N   UNL     1      23.024  49.610  48.108  1.00  0.00    -0.353 N 
HETATM    4  C   UNL     1      21.659  49.352  48.151  1.00  0.00     0.087 C 
HETATM    5  C   UNL     1      21.247  48.134  48.571  1.00  0.00     0.057 C 
HETATM    6  C   UNL     1      19.794  47.770  48.828  1.00  0.00     0.019 C 
HETATM    7  N   UNL     1      18.588  47.469  49.041  1.00  0.00    -0.096 N 
HETATM    8  C   UNL     1      22.262  47.027  48.861  1.00  0.00     0.129 C 
HETATM    9  C   UNL     1      23.667  47.561  49.124  1.00  0.00     0.048 C 
HETATM   10  H   UNL     1      23.256  50.600  48.057  1.00  0.00     0.166 HD
ENDROOT
BRANCH   4  11
HETATM   11  S   UNL     1      20.499  50.587  47.680  1.00  0.00    -0.102 SA
BRANCH  11  12
HETATM   12  C   UNL     1      20.210  51.347  49.310  1.00  0.00     0.183 C 
BRANCH  12  13
HETATM   13  C   UNL     1      18.764  51.379  49.770  1.00  0.00     0.227 C 
HETATM   14  N   UNL     1      17.985  52.439  49.383  1.00  0.00    -0.356 N 
HETATM   15  H   UNL     1      18.427  53.232  48.931  1.00  0.00     0.162 HD
HETATM   16  O   UNL     1      18.333  50.482  50.497  1.00  0.00    -0.273 OA
BRANCH  14  17
HETATM   17  C   UNL     1      16.645  52.590  49.905  1.00  0.00     0.161 C 
BRANCH  17  18
HETATM   18  C   UNL     1      15.654  53.046  48.868  1.00  0.00    -0.041 A 
HETATM   19  C   UNL     1      14.746  54.082  49.132  1.00  0.00     0.009 A 
HETATM   20  C   UNL     1      13.878  54.538  48.139  1.00  0.00     0.001 A 
HETATM   21  C   UNL     1      13.917  53.975  46.865  1.00  0.00     0.000 A 
HETATM   22  C   UNL     1      14.825  52.957  46.582  1.00  0.00     0.001 A 
HETATM   23  C   UNL     1      15.690  52.496  47.577  1.00  0.00     0.009 A 
ENDBRANCH  17  18
ENDBRANCH  14  17
ENDBRANCH  12  13
ENDBRANCH  11  12
ENDBRANCH   4  11
BRANCH   8  24
HETATM   24  C   UNL     1      22.251  45.999  47.754  1.00  0.00     0.066 A 
HETATM   25  O   UNL     1      22.014  46.466  46.494  1.00  0.00    -0.326 OA
HETATM   26  C   UNL     1      22.032  45.391  45.663  1.00  0.00     0.142 A 
HETATM   27  C   UNL     1      22.250  44.236  46.375  1.00  0.00     0.027 A 
HETATM   28  C   UNL     1      22.387  44.624  47.728  1.00  0.00     0.035 A 
ENDBRANCH   8  24
BRANCH   9  29
HETATM   29  C   UNL     1      24.624  46.753  49.959  1.00  0.00     0.255 C 
HETATM   30  N   UNL     1      24.578  46.996  51.316  1.00  0.00    -0.323 N 
HETATM   31  H   UNL     1      23.938  47.701  51.660  1.00  0.00     0.169 HD
HETATM   32  O   UNL     1      25.410  45.989  49.407  1.00  0.00    -0.268 OA
BRANCH  30  33
HETATM   33  C   UNL     1      25.339  46.370  52.328  1.00  0.00     0.035 A 
HETATM   34  C   UNL     1      26.259  47.033  53.143  1.00  0.00     0.045 A 
HETATM   35  C   UNL     1      26.995  46.333  54.118  1.00  0.00     0.050 A 
HETATM   36  C   UNL     1      26.788  44.954  54.271  1.00  0.00     0.016 A 
HETATM   37  C   UNL     1      25.870  44.287  53.465  1.00  0.00     0.003 A 
HETATM   38  C   UNL     1      25.156  44.991  52.494  1.00  0.00     0.029 A 
BRANCH  35  39
HETATM   39  C   UNL     1      28.017  47.037  54.976  1.00  0.00     0.417 C 
HETATM   40  F   UNL     1      29.253  46.466  54.951  1.00  0.00    -0.166 F 
HETATM   41  F   UNL     1      28.199  48.336  54.609  1.00  0.00    -0.166 F 
HETATM   42  F   UNL     1      27.650  47.071  56.288  1.00  0.00    -0.166 F 
ENDBRANCH  35  39
ENDBRANCH  30  33
ENDBRANCH   9  29
TORSDOF 9
ENDMDL
MODEL 8
REMARK VINA RESULT:      -9.2      1.959      2.658
REMARK  9 active torsions:
REMARK  status: ('A' for Active; 'I' for Inactive)
REMARK    1  A    between atoms: C_4  and  S_5 
REMARK    2  A    between atoms: S_5  and  C_6 
REMARK    3  A    between atoms: C_6  and  C_7 
REMARK       I    between atoms: C_7  and  N_8 
REMARK    4  A    between atoms: N_8  and  C_9 
REMARK    5  A    between atoms: C_9  and  C_10 
REMARK    6  A    between atoms: C_20  and  C_21 
REMARK    7  A    between atoms: C_26  and  C_27 
REMARK       I    between atoms: C_27  and  N_28 
REMARK    8  A    between atoms: N_28  and  C_29 
REMARK    9  A    between atoms: C_31  and  C_32 
ROOT
HETATM    1  C   UNL     1      23.257  43.631  47.115  1.00  0.00     0.069 C 
HETATM    2  C   UNL     1      23.715  44.606  48.173  1.00  0.00     0.019 C 
HETATM    3  N   UNL     1      25.048  44.495  48.551  1.00  0.00    -0.353 N 
HETATM    4  C   UNL     1      25.584  45.068  49.698  1.00  0.00     0.087 C 
HETATM    5  C   UNL     1      24.855  45.999  50.354  1.00  0.00     0.057 C 
HETATM    6  C   UNL     1      25.237  46.584  51.703  1.00  0.00     0.019 C 
HETATM    7  N   UNL     1      25.555  47.068  52.823  1.00  0.00    -0.096 N 
HETATM    8  C   UNL     1      23.533  46.504  49.770  1.00  0.00     0.129 C 
HETATM    9  C   UNL     1      22.926  45.544  48.752  1.00  0.00     0.048 C 
HETATM   10  H   UNL     1      25.503  43.628  48.271  1.00  0.00     0.166 HD
ENDROOT
BRANCH   4  11
HETATM   11  S   UNL     1      27.169  44.583  50.285  1.00  0.00    -0.102 SA
BRANCH  11  12
HETATM   12  C   UNL     1      26.777  42.880  50.799  1.00  0.00     0.183 C 
BRANCH  12  13
HETATM   13  C   UNL     1      27.611  42.332  51.942  1.00  0.00     0.227 C 
HETATM   14  N   UNL     1      28.688  43.067  52.367  1.00  0.00    -0.356 N 
HETATM   15  H   UNL     1      28.980  43.870  51.821  1.00  0.00     0.162 HD
HETATM   16  O   UNL     1      27.328  41.240  52.437  1.00  0.00    -0.273 OA
BRANCH  14  17
HETATM   17  C   UNL     1      29.595  42.528  53.357  1.00  0.00     0.161 C 
BRANCH  17  18
HETATM   18  C   UNL     1      29.853  43.473  54.500  1.00  0.00    -0.041 A 
HETATM   19  C   UNL     1      29.014  44.570  54.741  1.00  0.00     0.009 A 
HETATM   20  C   UNL     1      29.227  45.400  55.844  1.00  0.00     0.001 A 
HETATM   21  C   UNL     1      30.271  45.134  56.727  1.00  0.00     0.000 A 
HETATM   22  C   UNL     1      31.102  44.038  56.509  1.00  0.00     0.001 A 
HETATM   23  C   UNL     1      30.894  43.210  55.404  1.00  0.00     0.009 A 
ENDBRANCH  17  18
ENDBRANCH  14  17
ENDBRANCH  12  13
ENDBRANCH  11  12
ENDBRANCH   4  11
BRANCH   8  24
HETATM   24  C   UNL     1      23.707  47.892  49.199  1.00  0.00     0.066 A 
HETATM   25  O   UNL     1      22.564  48.552  48.848  1.00  0.00    -0.326 OA
HETATM   26  C   UNL     1      22.941  49.758  48.351  1.00  0.00     0.142 A 
HETATM   27  C   UNL     1      24.311  49.874  48.351  1.00  0.00     0.027 A 
HETATM   28  C   UNL     1      24.809  48.667  48.894  1.00  0.00     0.035 A 
ENDBRANCH   8  24
BRANCH   9  29
HETATM   29  C   UNL     1      21.440  45.556  48.515  1.00  0.00     0.255 C 
HETATM   30  N   UNL     1      20.994  46.481  47.595  1.00  0.00    -0.323 N 
HETATM   31  H   UNL     1      21.670  47.098  47.162  1.00  0.00     0.169 HD
HETATM   32  O   UNL     1      20.718  44.810  49.170  1.00  0.00    -0.268 OA
BRANCH  30  33
HETATM   33  C   UNL     1      19.666  46.693  47.163  1.00  0.00     0.035 A 
HETATM   34  C   UNL     1      18.783  47.601  47.753  1.00  0.00     0.045 A 
HETATM   35  C   UNL     1      17.466  47.740  47.277  1.00  0.00     0.050 A 
HETATM   36  C   UNL     1      17.046  46.959  46.190  1.00  0.00     0.016 A 
HETATM   37  C   UNL     1      17.921  46.055  45.595  1.00  0.00     0.003 A 
HETATM   38  C   UNL     1      19.220  45.919  46.084  1.00  0.00     0.029 A 
BRANCH  35  39
HETATM   39  C   UNL     1      16.497  48.692  47.933  1.00  0.00     0.417 C 
HETATM   40  F   UNL     1      15.787  49.455  47.057  1.00  0.00    -0.166 F 
HETATM   41  F   UNL     1      15.573  48.049  48.700  1.00  0.00    -0.166 F 
HETATM   42  F   UNL     1      17.123  49.569  48.767  1.00  0.00    -0.166 F 
ENDBRANCH  35  39
ENDBRANCH  30  33
ENDBRANCH   9  29
TORSDOF 9
ENDMDL
MODEL 9
REMARK VINA RESULT:      -8.9      5.247     10.643
REMARK  9 active torsions:
REMARK  status: ('A' for Active; 'I' for Inactive)
REMARK    1  A    between atoms: C_4  and  S_5 
REMARK    2  A    between atoms: S_5  and  C_6 
REMARK    3  A    between atoms: C_6  and  C_7 
REMARK       I    between atoms: C_7  and  N_8 
REMARK    4  A    between atoms: N_8  and  C_9 
REMARK    5  A    between atoms: C_9  and  C_10 
REMARK    6  A    between atoms: C_20  and  C_21 
REMARK    7  A    between atoms: C_26  and  C_27 
REMARK       I    between atoms: C_27  and  N_28 
REMARK    8  A    between atoms: N_28  and  C_29 
REMARK    9  A    between atoms: C_31  and  C_32 
ROOT
HETATM    1  C   UNL     1      24.144  46.285  49.545  1.00  0.00     0.069 C 
HETATM    2  C   UNL     1      23.945  44.865  49.069  1.00  0.00     0.019 C 
HETATM    3  N   UNL     1      23.239  44.728  47.878  1.00  0.00    -0.353 N 
HETATM    4  C   UNL     1      22.687  43.533  47.432  1.00  0.00     0.087 C 
HETATM    5  C   UNL     1      23.066  42.384  48.036  1.00  0.00     0.057 C 
HETATM    6  C   UNL     1      22.425  41.031  47.769  1.00  0.00     0.019 C 
HETATM    7  N   UNL     1      21.893  39.911  47.547  1.00  0.00    -0.096 N 
HETATM    8  C   UNL     1      24.173  42.388  49.092  1.00  0.00     0.129 C 
HETATM    9  C   UNL     1      24.396  43.763  49.715  1.00  0.00     0.048 C 
HETATM   10  H   UNL     1      22.722  45.556  47.587  1.00  0.00     0.166 HD
ENDROOT
BRANCH   4  11
HETATM   11  S   UNL     1      21.517  43.522  46.119  1.00  0.00    -0.102 SA
BRANCH  11  12
HETATM   12  C   UNL     1      20.288  44.668  46.820  1.00  0.00     0.183 C 
BRANCH  12  13
HETATM   13  C   UNL     1      20.459  46.127  46.437  1.00  0.00     0.227 C 
HETATM   14  N   UNL     1      19.497  47.018  46.837  1.00  0.00    -0.356 N 
HETATM   15  H   UNL     1      18.639  46.663  47.243  1.00  0.00     0.162 HD
HETATM   16  O   UNL     1      21.428  46.471  45.759  1.00  0.00    -0.273 OA
BRANCH  14  17
HETATM   17  C   UNL     1      19.540  48.391  46.383  1.00  0.00     0.161 C 
BRANCH  17  18
HETATM   18  C   UNL     1      19.884  49.365  47.478  1.00  0.00    -0.041 A 
HETATM   19  C   UNL     1      19.626  50.737  47.341  1.00  0.00     0.009 A 
HETATM   20  C   UNL     1      19.890  51.618  48.391  1.00  0.00     0.001 A 
HETATM   21  C   UNL     1      20.399  51.138  49.596  1.00  0.00     0.000 A 
HETATM   22  C   UNL     1      20.645  49.776  49.752  1.00  0.00     0.001 A 
HETATM   23  C   UNL     1      20.387  48.893  48.701  1.00  0.00     0.009 A 
ENDBRANCH  17  18
ENDBRANCH  14  17
ENDBRANCH  12  13
ENDBRANCH  11  12
ENDBRANCH   4  11
BRANCH   8  24
HETATM   24  C   UNL     1      25.450  41.818  48.519  1.00  0.00     0.066 A 
HETATM   25  O   UNL     1      26.538  41.816  49.343  1.00  0.00    -0.326 OA
HETATM   26  C   UNL     1      27.567  41.281  48.636  1.00  0.00     0.142 A 
HETATM   27  C   UNL     1      27.164  40.965  47.361  1.00  0.00     0.027 A 
HETATM   28  C   UNL     1      25.797  41.315  47.280  1.00  0.00     0.035 A 
ENDBRANCH   8  24
BRANCH   9  29
HETATM   29  C   UNL     1      24.981  43.865  51.099  1.00  0.00     0.255 C 
HETATM   30  N   UNL     1      26.268  44.354  51.164  1.00  0.00    -0.323 N 
HETATM   31  H   UNL     1      26.742  44.586  50.299  1.00  0.00     0.169 HD
HETATM   32  O   UNL     1      24.329  43.469  52.060  1.00  0.00    -0.268 OA
BRANCH  30  33
HETATM   33  C   UNL     1      27.046  44.577  52.321  1.00  0.00     0.035 A 
HETATM   34  C   UNL     1      28.142  43.794  52.695  1.00  0.00     0.045 A 
HETATM   35  C   UNL     1      28.855  44.069  53.877  1.00  0.00     0.050 A 
HETATM   36  C   UNL     1      28.458  45.149  54.679  1.00  0.00     0.016 A 
HETATM   37  C   UNL     1      27.370  45.935  54.312  1.00  0.00     0.003 A 
HETATM   38  C   UNL     1      26.665  45.644  53.143  1.00  0.00     0.029 A 
BRANCH  35  39
HETATM   39  C   UNL     1      30.016  43.206  54.304  1.00  0.00     0.417 C 
HETATM   40  F   UNL     1      29.656  42.098  55.009  1.00  0.00    -0.166 F 
HETATM   41  F   UNL     1      30.745  42.753  53.246  1.00  0.00    -0.166 F 
HETATM   42  F   UNL     1      30.895  43.881  55.096  1.00  0.00    -0.166 F 
ENDBRANCH  35  39
ENDBRANCH  30  33
ENDBRANCH   9  29
TORSDOF 9
ENDMDL
MODEL 10
REMARK VINA RESULT:      -8.7      4.819     11.582
REMARK  9 active torsions:
REMARK  status: ('A' for Active; 'I' for Inactive)
REMARK    1  A    between atoms: C_4  and  S_5 
REMARK    2  A    between atoms: S_5  and  C_6 
REMARK    3  A    between atoms: C_6  and  C_7 
REMARK       I    between atoms: C_7  and  N_8 
REMARK    4  A    between atoms: N_8  and  C_9 
REMARK    5  A    between atoms: C_9  and  C_10 
REMARK    6  A    between atoms: C_20  and  C_21 
REMARK    7  A    between atoms: C_26  and  C_27 
REMARK       I    between atoms: C_27  and  N_28 
REMARK    8  A    between atoms: N_28  and  C_29 
REMARK    9  A    between atoms: C_31  and  C_32 
ROOT
HETATM    1  C   UNL     1      25.698  49.447  48.825  1.00  0.00     0.069 C 
HETATM    2  C   UNL     1      24.357  48.758  48.747  1.00  0.00     0.019 C 
HETATM    3  N   UNL     1      23.364  49.457  48.069  1.00  0.00    -0.353 N 
HETATM    4  C   UNL     1      22.010  49.159  48.144  1.00  0.00     0.087 C 
HETATM    5  C   UNL     1      21.640  47.977  48.687  1.00  0.00     0.057 C 
HETATM    6  C   UNL     1      20.200  47.591  48.986  1.00  0.00     0.019 C 
HETATM    7  N   UNL     1      19.006  47.272  49.233  1.00  0.00    -0.096 N 
HETATM    8  C   UNL     1      22.693  46.940  49.083  1.00  0.00     0.129 C 
HETATM    9  C   UNL     1      24.079  47.545  49.285  1.00  0.00     0.048 C 
HETATM   10  H   UNL     1      23.562  50.445  47.917  1.00  0.00     0.166 HD
ENDROOT
BRANCH   4  11
HETATM   11  S   UNL     1      20.807  50.299  47.555  1.00  0.00    -0.102 SA
BRANCH  11  12
HETATM   12  C   UNL     1      20.305  51.034  49.144  1.00  0.00     0.183 C 
BRANCH  12  13
HETATM   13  C   UNL     1      18.853  50.822  49.534  1.00  0.00     0.227 C 
HETATM   14  N   UNL     1      17.885  51.124  48.611  1.00  0.00    -0.356 N 
HETATM   15  H   UNL     1      18.152  51.611  47.762  1.00  0.00     0.162 HD
HETATM   16  O   UNL     1      18.576  50.419  50.665  1.00  0.00    -0.273 OA
BRANCH  14  17
HETATM   17  C   UNL     1      16.486  51.073  48.976  1.00  0.00     0.161 C 
BRANCH  17  18
HETATM   18  C   UNL     1      15.685  52.216  48.412  1.00  0.00    -0.041 A 
HETATM   19  C   UNL     1      15.398  52.298  47.042  1.00  0.00     0.009 A 
HETATM   20  C   UNL     1      14.599  53.329  46.544  1.00  0.00     0.001 A 
HETATM   21  C   UNL     1      14.064  54.280  47.410  1.00  0.00     0.000 A 
HETATM   22  C   UNL     1      14.327  54.201  48.775  1.00  0.00     0.001 A 
HETATM   23  C   UNL     1      15.131  53.174  49.275  1.00  0.00     0.009 A 
ENDBRANCH  17  18
ENDBRANCH  14  17
ENDBRANCH  12  13
ENDBRANCH  11  12
ENDBRANCH   4  11
BRANCH   8  24
HETATM   24  C   UNL     1      22.716  45.805  48.086  1.00  0.00     0.066 A 
HETATM   25  O   UNL     1      23.272  44.633  48.511  1.00  0.00    -0.326 OA
HETATM   26  C   UNL     1      23.204  43.763  47.471  1.00  0.00     0.142 A 
HETATM   27  C   UNL     1      22.638  44.366  46.373  1.00  0.00     0.027 A 
HETATM   28  C   UNL     1      22.325  45.688  46.766  1.00  0.00     0.035 A 
ENDBRANCH   8  24
BRANCH   9  29
HETATM   29  C   UNL     1      25.064  46.860  50.193  1.00  0.00     0.255 C 
HETATM   30  N   UNL     1      24.930  47.145  51.536  1.00  0.00    -0.323 N 
HETATM   31  H   UNL     1      24.213  47.800  51.822  1.00  0.00     0.169 HD
HETATM   32  O   UNL     1      25.941  46.152  49.708  1.00  0.00    -0.268 OA
BRANCH  30  33
HETATM   33  C   UNL     1      25.695  46.628  52.605  1.00  0.00     0.035 A 
HETATM   34  C   UNL     1      26.087  45.292  52.717  1.00  0.00     0.045 A 
HETATM   35  C   UNL     1      26.833  44.849  53.825  1.00  0.00     0.050 A 
HETATM   36  C   UNL     1      27.189  45.770  54.821  1.00  0.00     0.016 A 
HETATM   37  C   UNL     1      26.804  47.104  54.716  1.00  0.00     0.003 A 
HETATM   38  C   UNL     1      26.055  47.526  53.617  1.00  0.00     0.029 A 
BRANCH  35  39
HETATM   39  C   UNL     1      27.229  43.400  53.969  1.00  0.00     0.417 C 
HETATM   40  F   UNL     1      26.513  42.719  54.906  1.00  0.00    -0.166 F 
HETATM   41  F   UNL     1      27.081  42.702  52.808  1.00  0.00    -0.166 F 
HETATM   42  F   UNL     1      28.536  43.257  54.323  1.00  0.00    -0.166 F 
ENDBRANCH  35  39
ENDBRANCH  30  33
ENDBRANCH   9  29
TORSDOF 9
ENDMDL
