MODEL 1
REMARK VINA RESULT:      -9.1      0.000      0.000
REMARK  8 active torsions:
REMARK  status: ('A' for Active; 'I' for Inactive)
REMARK    1  A    between atoms: C_4  and  N_5 
REMARK    2  A    between atoms: N_5  and  S_6 
REMARK    3  A    between atoms: S_6  and  C_7 
REMARK    4  A    between atoms: C_13  and  C_14 
REMARK       I    between atoms: C_14  and  N_15 
REMARK    5  A    between atoms: N_15  and  C_16 
REMARK    6  A    between atoms: C_16  and  C_17 
REMARK    7  A    between atoms: C_17  and  C_18 
REMARK    8  A    between atoms: C_18  and  O_19 
ROOT
HETATM    1  C   UNL     1      25.593  43.451  50.887  1.00  0.00     0.081 A 
HETATM    2  C   UNL     1      25.567  44.822  50.617  1.00  0.00     0.043 A 
HETATM    3  C   UNL     1      24.433  45.375  50.015  1.00  0.00     0.043 A 
HETATM    4  C   UNL     1      23.320  44.575  49.697  1.00  0.00     0.046 A 
HETATM    5  N   UNL     1      22.218  45.145  49.052  1.00  0.00    -0.364 N 
HETATM    6  C   UNL     1      22.175  46.491  48.787  1.00  0.00     0.109 A 
HETATM    7  C   UNL     1      23.158  47.368  49.051  1.00  0.00     0.098 A 
HETATM    8  C   UNL     1      24.387  46.828  49.698  1.00  0.00     0.201 A 
HETATM    9  O   UNL     1      25.346  47.548  49.967  1.00  0.00    -0.286 OA
HETATM   10  C   UNL     1      23.364  43.206  49.979  1.00  0.00     0.032 A 
HETATM   11  C   UNL     1      24.492  42.643  50.585  1.00  0.00     0.027 A 
HETATM   12  H   UNL     1      21.368  44.602  48.939  1.00  0.00     0.165 HD
ENDROOT
BRANCH   1  13
HETATM   13  S   UNL     1      27.026  42.746  51.675  1.00  0.00     0.263 S 
HETATM   14  O   UNL     1      28.187  43.484  51.228  1.00  0.00    -0.200 OA
HETATM   15  O   UNL     1      26.940  41.310  51.508  1.00  0.00    -0.200 OA
BRANCH  13  16
HETATM   16  N   UNL     1      26.741  43.050  53.311  1.00  0.00    -0.281 N 
HETATM   17  H   UNL     1      25.747  43.089  53.533  1.00  0.00     0.179 HD
BRANCH  16  18
HETATM   18  C   UNL     1      27.613  43.927  54.012  1.00  0.00     0.043 A 
HETATM   19  C   UNL     1      28.797  43.433  54.561  1.00  0.00     0.037 A 
HETATM   20  C   UNL     1      29.641  44.283  55.288  1.00  0.00    -0.059 A 
HETATM   21  C   UNL     1      30.923  43.777  55.881  1.00  0.00     0.048 C 
HETATM   22  C   UNL     1      29.290  45.632  55.436  1.00  0.00     0.013 A 
HETATM   23  C   UNL     1      28.101  46.132  54.889  1.00  0.00    -0.059 A 
HETATM   24  C   UNL     1      27.262  45.266  54.181  1.00  0.00     0.037 A 
HETATM   25  C   UNL     1      27.757  47.585  55.038  1.00  0.00     0.048 C 
ENDBRANCH  16  18
ENDBRANCH  13  16
ENDBRANCH   1  13
BRANCH   7  26
HETATM   26  C   UNL     1      22.955  48.797  48.673  1.00  0.00     0.257 C 
HETATM   27  N   UNL     1      22.287  49.561  49.595  1.00  0.00    -0.357 N 
HETATM   28  H   UNL     1      21.979  49.117  50.462  1.00  0.00     0.162 HD
HETATM   29  O   UNL     1      23.372  49.246  47.607  1.00  0.00    -0.267 OA
BRANCH  27  30
HETATM   30  C   UNL     1      22.046  50.975  49.411  1.00  0.00     0.125 C 
BRANCH  30  31
HETATM   31  C   UNL     1      20.693  51.258  48.768  1.00  0.00     0.046 C 
BRANCH  31  32
HETATM   32  C   UNL     1      19.598  51.353  49.823  1.00  0.00     0.168 C 
BRANCH  32  33
HETATM   33  O   UNL     1      19.696  50.224  50.689  1.00  0.00    -0.396 OA
HETATM   34  C   UNL     1      18.690  49.260  50.409  1.00  0.00     0.201 C 
ENDBRANCH  32  33
ENDBRANCH  31  32
ENDBRANCH  30  31
ENDBRANCH  27  30
ENDBRANCH   7  26
TORSDOF 8
ENDMDL
MODEL 2
REMARK VINA RESULT:      -8.9      2.485      9.523
REMARK  8 active torsions:
REMARK  status: ('A' for Active; 'I' for Inactive)
REMARK    1  A    between atoms: C_4  and  N_5 
REMARK    2  A    between atoms: N_5  and  S_6 
REMARK    3  A    between atoms: S_6  and  C_7 
REMARK    4  A    between atoms: C_13  and  C_14 
REMARK       I    between atoms: C_14  and  N_15 
REMARK    5  A    between atoms: N_15  and  C_16 
REMARK    6  A    between atoms: C_16  and  C_17 
REMARK    7  A    between atoms: C_17  and  C_18 
REMARK    8  A    between atoms: C_18  and  O_19 
ROOT
HETATM    1  C   UNL     1      23.763  47.962  49.191  1.00  0.00     0.081 A 
HETATM    2  C   UNL     1      24.552  47.801  50.333  1.00  0.00     0.043 A 
HETATM    3  C   UNL     1      24.749  46.516  50.847  1.00  0.00     0.043 A 
HETATM    4  C   UNL     1      24.182  45.392  50.222  1.00  0.00     0.046 A 
HETATM    5  N   UNL     1      24.355  44.123  50.784  1.00  0.00    -0.364 N 
HETATM    6  C   UNL     1      25.132  43.949  51.902  1.00  0.00     0.109 A 
HETATM    7  C   UNL     1      25.743  44.931  52.586  1.00  0.00     0.098 A 
HETATM    8  C   UNL     1      25.567  46.320  52.074  1.00  0.00     0.201 A 
HETATM    9  O   UNL     1      26.074  47.286  52.638  1.00  0.00    -0.286 OA
HETATM   10  C   UNL     1      23.398  45.573  49.076  1.00  0.00     0.032 A 
HETATM   11  C   UNL     1      23.198  46.853  48.551  1.00  0.00     0.027 A 
HETATM   12  H   UNL     1      24.058  43.301  50.268  1.00  0.00     0.165 HD
ENDROOT
BRANCH   1  13
HETATM   13  S   UNL     1      23.527  49.594  48.517  1.00  0.00     0.263 S 
HETATM   14  O   UNL     1      24.543  49.809  47.510  1.00  0.00    -0.200 OA
HETATM   15  O   UNL     1      23.377  50.499  49.638  1.00  0.00    -0.200 OA
BRANCH  13  16
HETATM   16  N   UNL     1      22.006  49.483  47.792  1.00  0.00    -0.281 N 
HETATM   17  H   UNL     1      22.033  49.692  46.795  1.00  0.00     0.179 HD
BRANCH  16  18
HETATM   18  C   UNL     1      20.860  49.895  48.526  1.00  0.00     0.043 A 
HETATM   19  C   UNL     1      20.326  49.056  49.506  1.00  0.00     0.037 A 
HETATM   20  C   UNL     1      19.174  49.437  50.203  1.00  0.00    -0.059 A 
HETATM   21  C   UNL     1      18.586  48.555  51.266  1.00  0.00     0.048 C 
HETATM   22  C   UNL     1      18.581  50.676  49.920  1.00  0.00     0.013 A 
HETATM   23  C   UNL     1      19.111  51.520  48.936  1.00  0.00    -0.059 A 
HETATM   24  C   UNL     1      20.253  51.116  48.237  1.00  0.00     0.037 A 
HETATM   25  C   UNL     1      18.475  52.853  48.666  1.00  0.00     0.048 C 
ENDBRANCH  16  18
ENDBRANCH  13  16
ENDBRANCH   1  13
BRANCH   7  26
HETATM   26  C   UNL     1      26.532  44.566  53.799  1.00  0.00     0.257 C 
HETATM   27  N   UNL     1      27.876  44.831  53.728  1.00  0.00    -0.357 N 
HETATM   28  H   UNL     1      28.244  45.252  52.873  1.00  0.00     0.162 HD
HETATM   29  O   UNL     1      25.999  44.072  54.789  1.00  0.00    -0.267 OA
BRANCH  27  30
HETATM   30  C   UNL     1      28.780  44.585  54.830  1.00  0.00     0.125 C 
BRANCH  30  31
HETATM   31  C   UNL     1      29.817  43.516  54.506  1.00  0.00     0.046 C 
BRANCH  31  32
HETATM   32  C   UNL     1      30.801  43.345  55.657  1.00  0.00     0.168 C 
BRANCH  32  33
HETATM   33  O   UNL     1      31.003  44.612  56.280  1.00  0.00    -0.396 OA
HETATM   34  C   UNL     1      31.095  44.493  57.693  1.00  0.00     0.201 C 
ENDBRANCH  32  33
ENDBRANCH  31  32
ENDBRANCH  30  31
ENDBRANCH  27  30
ENDBRANCH   7  26
TORSDOF 8
ENDMDL
MODEL 3
REMARK VINA RESULT:      -8.8      2.362      3.675
REMARK  8 active torsions:
REMARK  status: ('A' for Active; 'I' for Inactive)
REMARK    1  A    between atoms: C_4  and  N_5 
REMARK    2  A    between atoms: N_5  and  S_6 
REMARK    3  A    between atoms: S_6  and  C_7 
REMARK    4  A    between atoms: C_13  and  C_14 
REMARK       I    between atoms: C_14  and  N_15 
REMARK    5  A    between atoms: N_15  and  C_16 
REMARK    6  A    between atoms: C_16  and  C_17 
REMARK    7  A    between atoms: C_17  and  C_18 
REMARK    8  A    between atoms: C_18  and  O_19 
ROOT
HETATM    1  C   UNL     1      27.336  41.906  51.160  1.00  0.00     0.081 A 
HETATM    2  C   UNL     1      26.656  43.122  51.264  1.00  0.00     0.043 A 
HETATM    3  C   UNL     1      25.782  43.502  50.241  1.00  0.00     0.043 A 
HETATM    4  C   UNL     1      25.569  42.671  49.127  1.00  0.00     0.046 A 
HETATM    5  N   UNL     1      24.727  43.097  48.095  1.00  0.00    -0.364 N 
HETATM    6  C   UNL     1      24.047  44.286  48.186  1.00  0.00     0.109 A 
HETATM    7  C   UNL     1      24.145  45.163  49.199  1.00  0.00     0.098 A 
HETATM    8  C   UNL     1      25.061  44.801  50.317  1.00  0.00     0.201 A 
HETATM    9  O   UNL     1      25.231  45.544  51.281  1.00  0.00    -0.286 OA
HETATM   10  C   UNL     1      26.256  41.455  49.043  1.00  0.00     0.032 A 
HETATM   11  C   UNL     1      27.129  41.064  50.062  1.00  0.00     0.027 A 
HETATM   12  H   UNL     1      24.471  42.449  47.357  1.00  0.00     0.165 HD
ENDROOT
BRANCH   1  13
HETATM   13  S   UNL     1      28.432  41.406  52.471  1.00  0.00     0.263 S 
HETATM   14  O   UNL     1      29.104  40.196  52.051  1.00  0.00    -0.200 OA
HETATM   15  O   UNL     1      27.673  41.453  53.703  1.00  0.00    -0.200 OA
BRANCH  13  16
HETATM   16  N   UNL     1      29.534  42.684  52.546  1.00  0.00    -0.281 N 
HETATM   17  H   UNL     1      30.389  42.493  52.027  1.00  0.00     0.179 HD
BRANCH  16  18
HETATM   18  C   UNL     1      29.641  43.432  53.750  1.00  0.00     0.043 A 
HETATM   19  C   UNL     1      28.803  44.529  53.961  1.00  0.00     0.037 A 
HETATM   20  C   UNL     1      28.931  45.295  55.126  1.00  0.00    -0.059 A 
HETATM   21  C   UNL     1      28.037  46.474  55.378  1.00  0.00     0.048 C 
HETATM   22  C   UNL     1      29.892  44.935  56.081  1.00  0.00     0.013 A 
HETATM   23  C   UNL     1      30.737  43.837  55.873  1.00  0.00    -0.059 A 
HETATM   24  C   UNL     1      30.607  43.092  54.696  1.00  0.00     0.037 A 
HETATM   25  C   UNL     1      31.742  43.452  56.919  1.00  0.00     0.048 C 
ENDBRANCH  16  18
ENDBRANCH  13  16
ENDBRANCH   1  13
BRANCH   7  26
HETATM   26  C   UNL     1      23.352  46.424  49.125  1.00  0.00     0.257 C 
HETATM   27  N   UNL     1      23.999  47.554  49.558  1.00  0.00    -0.357 N 
HETATM   28  H   UNL     1      24.960  47.464  49.893  1.00  0.00     0.162 HD
HETATM   29  O   UNL     1      22.200  46.436  48.695  1.00  0.00    -0.267 OA
BRANCH  27  30
HETATM   30  C   UNL     1      23.395  48.866  49.511  1.00  0.00     0.125 C 
BRANCH  30  31
HETATM   31  C   UNL     1      24.140  49.819  48.585  1.00  0.00     0.046 C 
BRANCH  31  32
HETATM   32  C   UNL     1      25.533  49.290  48.265  1.00  0.00     0.168 C 
BRANCH  32  33
HETATM   33  O   UNL     1      26.347  49.407  49.430  1.00  0.00    -0.396 OA
HETATM   34  C   UNL     1      27.680  48.979  49.184  1.00  0.00     0.201 C 
ENDBRANCH  32  33
ENDBRANCH  31  32
ENDBRANCH  30  31
ENDBRANCH  27  30
ENDBRANCH   7  26
TORSDOF 8
ENDMDL
MODEL 4
REMARK VINA RESULT:      -8.8      1.762      2.285
REMARK  8 active torsions:
REMARK  status: ('A' for Active; 'I' for Inactive)
REMARK    1  A    between atoms: C_4  and  N_5 
REMARK    2  A    between atoms: N_5  and  S_6 
REMARK    3  A    between atoms: S_6  and  C_7 
REMARK    4  A    between atoms: C_13  and  C_14 
REMARK       I    between atoms: C_14  and  N_15 
REMARK    5  A    between atoms: N_15  and  C_16 
REMARK    6  A    between atoms: C_16  and  C_17 
REMARK    7  A    between atoms: C_17  and  C_18 
REMARK    8  A    between atoms: C_18  and  O_19 
ROOT
HETATM    1  C   UNL     1      27.255  42.440  51.428  1.00  0.00     0.081 A 
HETATM    2  C   UNL     1      26.678  43.701  51.593  1.00  0.00     0.043 A 
HETATM    3  C   UNL     1      25.825  44.194  50.601  1.00  0.00     0.043 A 
HETATM    4  C   UNL     1      25.530  43.431  49.457  1.00  0.00     0.046 A 
HETATM    5  N   UNL     1      24.711  43.968  48.458  1.00  0.00    -0.364 N 
HETATM    6  C   UNL     1      24.133  45.203  48.609  1.00  0.00     0.109 A 
HETATM    7  C   UNL     1      24.316  46.026  49.655  1.00  0.00     0.098 A 
HETATM    8  C   UNL     1      25.214  45.544  50.743  1.00  0.00     0.201 A 
HETATM    9  O   UNL     1      25.457  46.229  51.733  1.00  0.00    -0.286 OA
HETATM   10  C   UNL     1      26.113  42.168  49.312  1.00  0.00     0.032 A 
HETATM   11  C   UNL     1      26.965  41.665  50.300  1.00  0.00     0.027 A 
HETATM   12  H   UNL     1      24.394  43.374  47.698  1.00  0.00     0.165 HD
ENDROOT
BRANCH   1  13
HETATM   13  S   UNL     1      28.324  41.797  52.699  1.00  0.00     0.263 S 
HETATM   14  O   UNL     1      28.883  40.552  52.221  1.00  0.00    -0.200 OA
HETATM   15  O   UNL     1      27.590  41.861  53.945  1.00  0.00    -0.200 OA
BRANCH  13  16
HETATM   16  N   UNL     1      29.532  42.973  52.802  1.00  0.00    -0.281 N 
HETATM   17  H   UNL     1      30.359  42.732  52.258  1.00  0.00     0.179 HD
BRANCH  16  18
HETATM   18  C   UNL     1      29.723  43.659  54.032  1.00  0.00     0.043 A 
HETATM   19  C   UNL     1      30.686  43.206  54.936  1.00  0.00     0.037 A 
HETATM   20  C   UNL     1      30.852  43.853  56.166  1.00  0.00    -0.059 A 
HETATM   21  C   UNL     1      31.885  43.389  57.151  1.00  0.00     0.048 C 
HETATM   22  C   UNL     1      30.056  44.968  56.466  1.00  0.00     0.013 A 
HETATM   23  C   UNL     1      29.087  45.426  55.564  1.00  0.00    -0.059 A 
HETATM   24  C   UNL     1      28.923  44.757  54.346  1.00  0.00     0.037 A 
HETATM   25  C   UNL     1      28.263  46.636  55.894  1.00  0.00     0.048 C 
ENDBRANCH  16  18
ENDBRANCH  13  16
ENDBRANCH   1  13
BRANCH   7  26
HETATM   26  C   UNL     1      23.627  47.349  49.647  1.00  0.00     0.257 C 
HETATM   27  N   UNL     1      22.359  47.350  49.124  1.00  0.00    -0.357 N 
HETATM   28  H   UNL     1      21.974  46.467  48.784  1.00  0.00     0.162 HD
HETATM   29  O   UNL     1      24.169  48.359  50.090  1.00  0.00    -0.267 OA
BRANCH  27  30
HETATM   30  C   UNL     1      21.532  48.535  49.083  1.00  0.00     0.125 C 
BRANCH  30  31
HETATM   31  C   UNL     1      21.833  49.415  47.876  1.00  0.00     0.046 C 
BRANCH  31  32
HETATM   32  C   UNL     1      21.905  50.883  48.276  1.00  0.00     0.168 C 
BRANCH  32  33
HETATM   33  O   UNL     1      20.857  51.158  49.203  1.00  0.00    -0.396 OA
HETATM   34  C   UNL     1      19.830  51.946  48.616  1.00  0.00     0.201 C 
ENDBRANCH  32  33
ENDBRANCH  31  32
ENDBRANCH  30  31
ENDBRANCH  27  30
ENDBRANCH   7  26
TORSDOF 8
ENDMDL
MODEL 5
REMARK VINA RESULT:      -8.3      2.012      2.705
REMARK  8 active torsions:
REMARK  status: ('A' for Active; 'I' for Inactive)
REMARK    1  A    between atoms: C_4  and  N_5 
REMARK    2  A    between atoms: N_5  and  S_6 
REMARK    3  A    between atoms: S_6  and  C_7 
REMARK    4  A    between atoms: C_13  and  C_14 
REMARK       I    between atoms: C_14  and  N_15 
REMARK    5  A    between atoms: N_15  and  C_16 
REMARK    6  A    between atoms: C_16  and  C_17 
REMARK    7  A    between atoms: C_17  and  C_18 
REMARK    8  A    between atoms: C_18  and  O_19 
ROOT
HETATM    1  C   UNL     1      25.251  42.716  49.119  1.00  0.00     0.081 A 
HETATM    2  C   UNL     1      24.930  44.072  49.216  1.00  0.00     0.043 A 
HETATM    3  C   UNL     1      23.659  44.500  48.821  1.00  0.00     0.043 A 
HETATM    4  C   UNL     1      22.701  43.583  48.351  1.00  0.00     0.046 A 
HETATM    5  N   UNL     1      21.454  44.043  47.918  1.00  0.00    -0.364 N 
HETATM    6  C   UNL     1      21.122  45.371  48.012  1.00  0.00     0.109 A 
HETATM    7  C   UNL     1      21.932  46.347  48.457  1.00  0.00     0.098 A 
HETATM    8  C   UNL     1      23.298  45.941  48.894  1.00  0.00     0.201 A 
HETATM    9  O   UNL     1      24.117  46.761  49.302  1.00  0.00    -0.286 OA
HETATM   10  C   UNL     1      23.041  42.228  48.266  1.00  0.00     0.032 A 
HETATM   11  C   UNL     1      24.308  41.790  48.661  1.00  0.00     0.027 A 
HETATM   12  H   UNL     1      20.721  43.375  47.702  1.00  0.00     0.165 HD
ENDROOT
BRANCH   1  13
HETATM   13  S   UNL     1      26.861  42.163  49.642  1.00  0.00     0.263 S 
HETATM   14  O   UNL     1      27.618  41.819  48.458  1.00  0.00    -0.200 OA
HETATM   15  O   UNL     1      26.657  41.204  50.707  1.00  0.00    -0.200 OA
BRANCH  13  16
HETATM   16  N   UNL     1      27.514  43.542  50.367  1.00  0.00    -0.281 N 
HETATM   17  H   UNL     1      28.285  43.936  49.830  1.00  0.00     0.179 HD
BRANCH  16  18
HETATM   18  C   UNL     1      27.590  43.605  51.784  1.00  0.00     0.043 A 
HETATM   19  C   UNL     1      28.813  43.387  52.423  1.00  0.00     0.037 A 
HETATM   20  C   UNL     1      28.887  43.408  53.821  1.00  0.00    -0.059 A 
HETATM   21  C   UNL     1      30.191  43.184  54.529  1.00  0.00     0.048 C 
HETATM   22  C   UNL     1      27.727  43.670  54.565  1.00  0.00     0.013 A 
HETATM   23  C   UNL     1      26.498  43.886  53.929  1.00  0.00    -0.059 A 
HETATM   24  C   UNL     1      26.438  43.845  52.532  1.00  0.00     0.037 A 
HETATM   25  C   UNL     1      25.273  44.189  54.742  1.00  0.00     0.048 C 
ENDBRANCH  16  18
ENDBRANCH  13  16
ENDBRANCH   1  13
BRANCH   7  26
HETATM   26  C   UNL     1      21.417  47.747  48.469  1.00  0.00     0.257 C 
HETATM   27  N   UNL     1      21.959  48.565  49.427  1.00  0.00    -0.357 N 
HETATM   28  H   UNL     1      22.665  48.177  50.055  1.00  0.00     0.162 HD
HETATM   29  O   UNL     1      20.570  48.128  47.664  1.00  0.00    -0.267 OA
BRANCH  27  30
HETATM   30  C   UNL     1      21.609  49.963  49.549  1.00  0.00     0.125 C 
BRANCH  30  31
HETATM   31  C   UNL     1      22.792  50.886  49.280  1.00  0.00     0.046 C 
BRANCH  31  32
HETATM   32  C   UNL     1      23.061  51.004  47.785  1.00  0.00     0.168 C 
BRANCH  32  33
HETATM   33  O   UNL     1      23.950  49.959  47.396  1.00  0.00    -0.396 OA
HETATM   34  C   UNL     1      25.105  49.916  48.224  1.00  0.00     0.201 C 
ENDBRANCH  32  33
ENDBRANCH  31  32
ENDBRANCH  30  31
ENDBRANCH  27  30
ENDBRANCH   7  26
TORSDOF 8
ENDMDL
MODEL 6
REMARK VINA RESULT:      -8.2      1.745      2.620
REMARK  8 active torsions:
REMARK  status: ('A' for Active; 'I' for Inactive)
REMARK    1  A    between atoms: C_4  and  N_5 
REMARK    2  A    between atoms: N_5  and  S_6 
REMARK    3  A    between atoms: S_6  and  C_7 
REMARK    4  A    between atoms: C_13  and  C_14 
REMARK       I    between atoms: C_14  and  N_15 
REMARK    5  A    between atoms: N_15  and  C_16 
REMARK    6  A    between atoms: C_16  and  C_17 
REMARK    7  A    between atoms: C_17  and  C_18 
REMARK    8  A    between atoms: C_18  and  O_19 
ROOT
HETATM    1  C   UNL     1      25.178  44.793  49.299  1.00  0.00     0.081 A 
HETATM    2  C   UNL     1      24.835  46.120  49.567  1.00  0.00     0.043 A 
HETATM    3  C   UNL     1      23.624  46.621  49.078  1.00  0.00     0.043 A 
HETATM    4  C   UNL     1      22.748  45.804  48.342  1.00  0.00     0.046 A 
HETATM    5  N   UNL     1      21.566  46.344  47.824  1.00  0.00    -0.364 N 
HETATM    6  C   UNL     1      21.213  47.644  48.085  1.00  0.00     0.109 A 
HETATM    7  C   UNL     1      21.946  48.525  48.785  1.00  0.00     0.098 A 
HETATM    8  C   UNL     1      23.244  48.037  49.332  1.00  0.00     0.201 A 
HETATM    9  O   UNL     1      23.993  48.771  49.974  1.00  0.00    -0.286 OA
HETATM   10  C   UNL     1      23.108  44.476  48.088  1.00  0.00     0.032 A 
HETATM   11  C   UNL     1      24.314  43.964  48.575  1.00  0.00     0.027 A 
HETATM   12  H   UNL     1      20.875  45.729  47.406  1.00  0.00     0.165 HD
ENDROOT
BRANCH   1  13
HETATM   13  S   UNL     1      26.707  44.142  49.938  1.00  0.00     0.263 S 
HETATM   14  O   UNL     1      27.673  45.219  49.961  1.00  0.00    -0.200 OA
HETATM   15  O   UNL     1      26.976  42.909  49.228  1.00  0.00    -0.200 OA
BRANCH  13  16
HETATM   16  N   UNL     1      26.296  43.699  51.515  1.00  0.00    -0.281 N 
HETATM   17  H   UNL     1      25.288  43.671  51.661  1.00  0.00     0.179 HD
BRANCH  16  18
HETATM   18  C   UNL     1      27.111  44.142  52.591  1.00  0.00     0.043 A 
HETATM   19  C   UNL     1      26.780  45.313  53.275  1.00  0.00     0.037 A 
HETATM   20  C   UNL     1      27.602  45.777  54.310  1.00  0.00    -0.059 A 
HETATM   21  C   UNL     1      27.263  47.030  55.064  1.00  0.00     0.048 C 
HETATM   22  C   UNL     1      28.743  45.042  54.660  1.00  0.00     0.013 A 
HETATM   23  C   UNL     1      29.081  43.867  53.976  1.00  0.00    -0.059 A 
HETATM   24  C   UNL     1      28.258  43.427  52.933  1.00  0.00     0.037 A 
HETATM   25  C   UNL     1      30.293  43.081  54.383  1.00  0.00     0.048 C 
ENDBRANCH  16  18
ENDBRANCH  13  16
ENDBRANCH   1  13
BRANCH   7  26
HETATM   26  C   UNL     1      21.422  49.912  48.953  1.00  0.00     0.257 C 
HETATM   27  N   UNL     1      20.307  50.029  49.743  1.00  0.00    -0.357 N 
HETATM   28  H   UNL     1      19.916  49.181  50.159  1.00  0.00     0.162 HD
HETATM   29  O   UNL     1      21.968  50.875  48.420  1.00  0.00    -0.267 OA
BRANCH  27  30
HETATM   30  C   UNL     1      19.697  51.303  50.050  1.00  0.00     0.125 C 
BRANCH  30  31
HETATM   31  C   UNL     1      18.188  51.295  49.831  1.00  0.00     0.046 C 
BRANCH  31  32
HETATM   32  C   UNL     1      17.817  50.442  48.624  1.00  0.00     0.168 C 
BRANCH  32  33
HETATM   33  O   UNL     1      18.466  50.973  47.471  1.00  0.00    -0.396 OA
HETATM   34  C   UNL     1      17.662  51.946  46.817  1.00  0.00     0.201 C 
ENDBRANCH  32  33
ENDBRANCH  31  32
ENDBRANCH  30  31
ENDBRANCH  27  30
ENDBRANCH   7  26
TORSDOF 8
ENDMDL
MODEL 7
REMARK VINA RESULT:      -8.1      2.041      3.354
REMARK  8 active torsions:
REMARK  status: ('A' for Active; 'I' for Inactive)
REMARK    1  A    between atoms: C_4  and  N_5 
REMARK    2  A    between atoms: N_5  and  S_6 
REMARK    3  A    between atoms: S_6  and  C_7 
REMARK    4  A    between atoms: C_13  and  C_14 
REMARK       I    between atoms: C_14  and  N_15 
REMARK    5  A    between atoms: N_15  and  C_16 
REMARK    6  A    between atoms: C_16  and  C_17 
REMARK    7  A    between atoms: C_17  and  C_18 
REMARK    8  A    between atoms: C_18  and  O_19 
ROOT
HETATM    1  C   UNL     1      24.581  46.118  49.548  1.00  0.00     0.081 A 
HETATM    2  C   UNL     1      23.692  47.193  49.467  1.00  0.00     0.043 A 
HETATM    3  C   UNL     1      22.551  47.074  48.667  1.00  0.00     0.043 A 
HETATM    4  C   UNL     1      22.283  45.886  47.963  1.00  0.00     0.046 A 
HETATM    5  N   UNL     1      21.161  45.811  47.132  1.00  0.00    -0.364 N 
HETATM    6  C   UNL     1      20.275  46.856  47.048  1.00  0.00     0.109 A 
HETATM    7  C   UNL     1      20.401  48.036  47.678  1.00  0.00     0.098 A 
HETATM    8  C   UNL     1      21.599  48.211  48.548  1.00  0.00     0.201 A 
HETATM    9  O   UNL     1      21.812  49.259  49.154  1.00  0.00    -0.286 OA
HETATM   10  C   UNL     1      23.183  44.820  48.060  1.00  0.00     0.032 A 
HETATM   11  C   UNL     1      24.324  44.927  48.860  1.00  0.00     0.027 A 
HETATM   12  H   UNL     1      20.895  44.919  46.728  1.00  0.00     0.165 HD
ENDROOT
BRANCH   1  13
HETATM   13  S   UNL     1      26.022  46.256  50.583  1.00  0.00     0.263 S 
HETATM   14  O   UNL     1      26.444  47.640  50.576  1.00  0.00    -0.200 OA
HETATM   15  O   UNL     1      26.928  45.194  50.196  1.00  0.00    -0.200 OA
BRANCH  13  16
HETATM   16  N   UNL     1      25.429  45.838  52.108  1.00  0.00    -0.281 N 
HETATM   17  H   UNL     1      24.417  45.935  52.173  1.00  0.00     0.179 HD
BRANCH  16  18
HETATM   18  C   UNL     1      26.201  46.155  53.259  1.00  0.00     0.043 A 
HETATM   19  C   UNL     1      25.906  47.302  53.998  1.00  0.00     0.037 A 
HETATM   20  C   UNL     1      26.687  47.641  55.109  1.00  0.00    -0.059 A 
HETATM   21  C   UNL     1      26.385  48.865  55.922  1.00  0.00     0.048 C 
HETATM   22  C   UNL     1      27.752  46.806  55.478  1.00  0.00     0.013 A 
HETATM   23  C   UNL     1      28.054  45.655  54.739  1.00  0.00    -0.059 A 
HETATM   24  C   UNL     1      27.273  45.340  53.622  1.00  0.00     0.037 A 
HETATM   25  C   UNL     1      29.181  44.761  55.166  1.00  0.00     0.048 C 
ENDBRANCH  16  18
ENDBRANCH  13  16
ENDBRANCH   1  13
BRANCH   7  26
HETATM   26  C   UNL     1      19.355  49.076  47.454  1.00  0.00     0.257 C 
HETATM   27  N   UNL     1      19.770  50.373  47.617  1.00  0.00    -0.357 N 
HETATM   28  H   UNL     1      20.745  50.543  47.872  1.00  0.00     0.162 HD
HETATM   29  O   UNL     1      18.207  48.775  47.138  1.00  0.00    -0.267 OA
BRANCH  27  30
HETATM   30  C   UNL     1      18.899  51.506  47.393  1.00  0.00     0.125 C 
BRANCH  30  31
HETATM   31  C   UNL     1      18.490  52.192  48.690  1.00  0.00     0.046 C 
BRANCH  31  32
HETATM   32  C   UNL     1      19.107  51.494  49.895  1.00  0.00     0.168 C 
BRANCH  32  33
HETATM   33  O   UNL     1      18.153  50.581  50.435  1.00  0.00    -0.396 OA
HETATM   34  C   UNL     1      18.782  49.441  51.006  1.00  0.00     0.201 C 
ENDBRANCH  32  33
ENDBRANCH  31  32
ENDBRANCH  30  31
ENDBRANCH  27  30
ENDBRANCH   7  26
TORSDOF 8
ENDMDL
MODEL 8
REMARK VINA RESULT:      -8.0      2.233      3.683
REMARK  8 active torsions:
REMARK  status: ('A' for Active; 'I' for Inactive)
REMARK    1  A    between atoms: C_4  and  N_5 
REMARK    2  A    between atoms: N_5  and  S_6 
REMARK    3  A    between atoms: S_6  and  C_7 
REMARK    4  A    between atoms: C_13  and  C_14 
REMARK       I    between atoms: C_14  and  N_15 
REMARK    5  A    between atoms: N_15  and  C_16 
REMARK    6  A    between atoms: C_16  and  C_17 
REMARK    7  A    between atoms: C_17  and  C_18 
REMARK    8  A    between atoms: C_18  and  O_19 
ROOT
HETATM    1  C   UNL     1      25.627  46.081  49.853  1.00  0.00     0.081 A 
HETATM    2  C   UNL     1      24.286  46.242  49.494  1.00  0.00     0.043 A 
HETATM    3  C   UNL     1      23.822  47.517  49.155  1.00  0.00     0.043 A 
HETATM    4  C   UNL     1      24.687  48.625  49.154  1.00  0.00     0.046 A 
HETATM    5  N   UNL     1      24.186  49.897  48.858  1.00  0.00    -0.364 N 
HETATM    6  C   UNL     1      22.873  50.069  48.497  1.00  0.00     0.109 A 
HETATM    7  C   UNL     1      21.946  49.098  48.441  1.00  0.00     0.098 A 
HETATM    8  C   UNL     1      22.394  47.719  48.789  1.00  0.00     0.201 A 
HETATM    9  O   UNL     1      21.618  46.766  48.783  1.00  0.00    -0.286 OA
HETATM   10  C   UNL     1      26.027  48.443  49.512  1.00  0.00     0.032 A 
HETATM   11  C   UNL     1      26.503  47.172  49.849  1.00  0.00     0.027 A 
HETATM   12  H   UNL     1      24.828  50.672  48.730  1.00  0.00     0.165 HD
ENDROOT
BRANCH   1  13
HETATM   13  S   UNL     1      26.230  44.457  50.263  1.00  0.00     0.263 S 
HETATM   14  O   UNL     1      27.671  44.473  50.135  1.00  0.00    -0.200 OA
HETATM   15  O   UNL     1      25.422  43.505  49.530  1.00  0.00    -0.200 OA
BRANCH  13  16
HETATM   16  N   UNL     1      25.795  44.295  51.886  1.00  0.00    -0.281 N 
HETATM   17  H   UNL     1      24.803  44.470  52.044  1.00  0.00     0.179 HD
BRANCH  16  18
HETATM   18  C   UNL     1      26.710  44.710  52.891  1.00  0.00     0.043 A 
HETATM   19  C   UNL     1      26.593  45.984  53.451  1.00  0.00     0.037 A 
HETATM   20  C   UNL     1      27.516  46.414  54.412  1.00  0.00    -0.059 A 
HETATM   21  C   UNL     1      27.406  47.776  55.034  1.00  0.00     0.048 C 
HETATM   22  C   UNL     1      28.540  45.546  54.816  1.00  0.00     0.013 A 
HETATM   23  C   UNL     1      28.663  44.268  54.255  1.00  0.00    -0.059 A 
HETATM   24  C   UNL     1      27.743  43.860  53.284  1.00  0.00     0.037 A 
HETATM   25  C   UNL     1      29.752  43.345  54.719  1.00  0.00     0.048 C 
ENDBRANCH  16  18
ENDBRANCH  13  16
ENDBRANCH   1  13
BRANCH   7  26
HETATM   26  C   UNL     1      20.554  49.466  48.053  1.00  0.00     0.257 C 
HETATM   27  N   UNL     1      19.560  48.824  48.747  1.00  0.00    -0.357 N 
HETATM   28  H   UNL     1      19.827  48.153  49.469  1.00  0.00     0.162 HD
HETATM   29  O   UNL     1      20.328  50.296  47.176  1.00  0.00    -0.267 OA
BRANCH  27  30
HETATM   30  C   UNL     1      18.156  49.096  48.532  1.00  0.00     0.125 C 
BRANCH  30  31
HETATM   31  C   UNL     1      17.271  47.906  48.882  1.00  0.00     0.046 C 
BRANCH  31  32
HETATM   32  C   UNL     1      17.168  46.939  47.708  1.00  0.00     0.168 C 
BRANCH  32  33
HETATM   33  O   UNL     1      18.483  46.543  47.325  1.00  0.00    -0.396 OA
HETATM   34  C   UNL     1      18.703  45.157  47.558  1.00  0.00     0.201 C 
ENDBRANCH  32  33
ENDBRANCH  31  32
ENDBRANCH  30  31
ENDBRANCH  27  30
ENDBRANCH   7  26
TORSDOF 8
ENDMDL
MODEL 9
REMARK VINA RESULT:      -8.0      2.236      9.178
REMARK  8 active torsions:
REMARK  status: ('A' for Active; 'I' for Inactive)
REMARK    1  A    between atoms: C_4  and  N_5 
REMARK    2  A    between atoms: N_5  and  S_6 
REMARK    3  A    between atoms: S_6  and  C_7 
REMARK    4  A    between atoms: C_13  and  C_14 
REMARK       I    between atoms: C_14  and  N_15 
REMARK    5  A    between atoms: N_15  and  C_16 
REMARK    6  A    between atoms: C_16  and  C_17 
REMARK    7  A    between atoms: C_17  and  C_18 
REMARK    8  A    between atoms: C_18  and  O_19 
ROOT
HETATM    1  C   UNL     1      23.369  47.070  49.015  1.00  0.00     0.081 A 
HETATM    2  C   UNL     1      24.472  46.439  49.598  1.00  0.00     0.043 A 
HETATM    3  C   UNL     1      24.461  45.049  49.744  1.00  0.00     0.043 A 
HETATM    4  C   UNL     1      23.369  44.283  49.297  1.00  0.00     0.046 A 
HETATM    5  N   UNL     1      23.363  42.900  49.499  1.00  0.00    -0.364 N 
HETATM    6  C   UNL     1      24.441  42.266  50.064  1.00  0.00     0.109 A 
HETATM    7  C   UNL     1      25.551  42.872  50.518  1.00  0.00     0.098 A 
HETATM    8  C   UNL     1      25.613  44.355  50.380  1.00  0.00     0.201 A 
HETATM    9  O   UNL     1      26.579  45.001  50.777  1.00  0.00    -0.286 OA
HETATM   10  C   UNL     1      22.276  44.933  48.712  1.00  0.00     0.032 A 
HETATM   11  C   UNL     1      22.279  46.322  48.558  1.00  0.00     0.027 A 
HETATM   12  H   UNL     1      22.641  42.333  49.065  1.00  0.00     0.165 HD
ENDROOT
BRANCH   1  13
HETATM   13  S   UNL     1      23.388  48.838  48.805  1.00  0.00     0.263 S 
HETATM   14  O   UNL     1      22.922  49.131  47.467  1.00  0.00    -0.200 OA
HETATM   15  O   UNL     1      24.675  49.309  49.272  1.00  0.00    -0.200 OA
BRANCH  13  16
HETATM   16  N   UNL     1      22.253  49.362  49.941  1.00  0.00    -0.281 N 
HETATM   17  H   UNL     1      22.367  48.905  50.845  1.00  0.00     0.179 HD
BRANCH  16  18
HETATM   18  C   UNL     1      20.932  49.661  49.510  1.00  0.00     0.043 A 
HETATM   19  C   UNL     1      20.608  50.962  49.123  1.00  0.00     0.037 A 
HETATM   20  C   UNL     1      19.299  51.273  48.736  1.00  0.00    -0.059 A 
HETATM   21  C   UNL     1      18.928  52.663  48.309  1.00  0.00     0.048 C 
HETATM   22  C   UNL     1      18.330  50.259  48.723  1.00  0.00     0.013 A 
HETATM   23  C   UNL     1      18.649  48.952  49.112  1.00  0.00    -0.059 A 
HETATM   24  C   UNL     1      19.958  48.663  49.512  1.00  0.00     0.037 A 
HETATM   25  C   UNL     1      17.604  47.876  49.066  1.00  0.00     0.048 C 
ENDBRANCH  16  18
ENDBRANCH  13  16
ENDBRANCH   1  13
BRANCH   7  26
HETATM   26  C   UNL     1      26.620  42.030  51.129  1.00  0.00     0.257 C 
HETATM   27  N   UNL     1      27.730  42.710  51.562  1.00  0.00    -0.357 N 
HETATM   28  H   UNL     1      27.754  43.725  51.444  1.00  0.00     0.162 HD
HETATM   29  O   UNL     1      26.497  40.812  51.238  1.00  0.00    -0.267 OA
BRANCH  27  30
HETATM   30  C   UNL     1      28.839  42.057  52.220  1.00  0.00     0.125 C 
BRANCH  30  31
HETATM   31  C   UNL     1      29.684  43.026  53.038  1.00  0.00     0.046 C 
BRANCH  31  32
HETATM   32  C   UNL     1      28.806  44.039  53.761  1.00  0.00     0.168 C 
BRANCH  32  33
HETATM   33  O   UNL     1      27.807  43.337  54.498  1.00  0.00    -0.396 OA
HETATM   34  C   UNL     1      26.653  44.140  54.715  1.00  0.00     0.201 C 
ENDBRANCH  32  33
ENDBRANCH  31  32
ENDBRANCH  30  31
ENDBRANCH  27  30
ENDBRANCH   7  26
TORSDOF 8
ENDMDL
MODEL 10
REMARK VINA RESULT:      -7.8     13.525     16.331
REMARK  8 active torsions:
REMARK  status: ('A' for Active; 'I' for Inactive)
REMARK    1  A    between atoms: C_4  and  N_5 
REMARK    2  A    between atoms: N_5  and  S_6 
REMARK    3  A    between atoms: S_6  and  C_7 
REMARK    4  A    between atoms: C_13  and  C_14 
REMARK       I    between atoms: C_14  and  N_15 
REMARK    5  A    between atoms: N_15  and  C_16 
REMARK    6  A    between atoms: C_16  and  C_17 
REMARK    7  A    between atoms: C_17  and  C_18 
REMARK    8  A    between atoms: C_18  and  O_19 
ROOT
HETATM    1  C   UNL     1      32.455  49.606  41.874  1.00  0.00     0.081 A 
HETATM    2  C   UNL     1      33.819  49.796  41.636  1.00  0.00     0.043 A 
HETATM    3  C   UNL     1      34.528  50.704  42.428  1.00  0.00     0.043 A 
HETATM    4  C   UNL     1      33.891  51.408  43.466  1.00  0.00     0.046 A 
HETATM    5  N   UNL     1      34.612  52.346  44.212  1.00  0.00    -0.364 N 
HETATM    6  C   UNL     1      35.954  52.538  43.994  1.00  0.00     0.109 A 
HETATM    7  C   UNL     1      36.686  51.921  43.051  1.00  0.00     0.098 A 
HETATM    8  C   UNL     1      35.976  50.939  42.182  1.00  0.00     0.201 A 
HETATM    9  O   UNL     1      36.554  50.335  41.283  1.00  0.00    -0.286 OA
HETATM   10  C   UNL     1      32.526  51.202  43.691  1.00  0.00     0.032 A 
HETATM   11  C   UNL     1      31.809  50.293  42.907  1.00  0.00     0.027 A 
HETATM   12  H   UNL     1      34.193  52.758  45.039  1.00  0.00     0.165 HD
ENDROOT
BRANCH   1  13
HETATM   13  S   UNL     1      31.553  48.434  40.883  1.00  0.00     0.263 S 
HETATM   14  O   UNL     1      30.265  48.223  41.507  1.00  0.00    -0.200 OA
HETATM   15  O   UNL     1      32.446  47.327  40.614  1.00  0.00    -0.200 OA
BRANCH  13  16
HETATM   16  N   UNL     1      31.359  49.252  39.418  1.00  0.00    -0.281 N 
HETATM   17  H   UNL     1      32.250  49.502  38.991  1.00  0.00     0.179 HD
BRANCH  16  18
HETATM   18  C   UNL     1      30.275  50.159  39.273  1.00  0.00     0.043 A 
HETATM   19  C   UNL     1      29.078  49.722  38.703  1.00  0.00     0.037 A 
HETATM   20  C   UNL     1      28.020  50.621  38.520  1.00  0.00    -0.059 A 
HETATM   21  C   UNL     1      26.721  50.173  37.916  1.00  0.00     0.048 C 
HETATM   22  C   UNL     1      28.172  51.952  38.932  1.00  0.00     0.013 A 
HETATM   23  C   UNL     1      29.372  52.397  39.502  1.00  0.00    -0.059 A 
HETATM   24  C   UNL     1      30.426  51.490  39.663  1.00  0.00     0.037 A 
HETATM   25  C   UNL     1      29.507  53.819  39.960  1.00  0.00     0.048 C 
ENDBRANCH  16  18
ENDBRANCH  13  16
ENDBRANCH   1  13
BRANCH   7  26
HETATM   26  C   UNL     1      38.132  52.268  42.935  1.00  0.00     0.257 C 
HETATM   27  N   UNL     1      38.969  51.595  43.788  1.00  0.00    -0.357 N 
HETATM   28  H   UNL     1      38.562  50.915  44.432  1.00  0.00     0.162 HD
HETATM   29  O   UNL     1      38.532  53.096  42.119  1.00  0.00    -0.267 OA
BRANCH  27  30
HETATM   30  C   UNL     1      40.404  51.774  43.777  1.00  0.00     0.125 C 
BRANCH  30  31
HETATM   31  C   UNL     1      41.032  51.538  45.145  1.00  0.00     0.046 C 
BRANCH  31  32
HETATM   32  C   UNL     1      40.570  52.591  46.145  1.00  0.00     0.168 C 
BRANCH  32  33
HETATM   33  O   UNL     1      39.326  52.177  46.706  1.00  0.00    -0.396 OA
HETATM   34  C   UNL     1      38.473  53.284  46.966  1.00  0.00     0.201 C 
ENDBRANCH  32  33
ENDBRANCH  31  32
ENDBRANCH  30  31
ENDBRANCH  27  30
ENDBRANCH   7  26
TORSDOF 8
ENDMDL
