MODEL 1
REMARK VINA RESULT:      -8.8      0.000      0.000
REMARK  3 active torsions:
REMARK  status: ('A' for Active; 'I' for Inactive)
REMARK    1  A    between atoms: C_11  and  N_12 
REMARK       I    between atoms: N_12  and  C_13 
REMARK    2  A    between atoms: C_13  and  C_14 
REMARK    3  A    between atoms: C_15  and  C_16 
ROOT
HETATM    1  N   UNL     1      25.209  45.149  52.445  1.00  0.00    -0.352 N 
HETATM    2  C   UNL     1      25.475  45.063  53.805  1.00  0.00     0.255 C 
HETATM    3  O   UNL     1      25.042  44.149  54.496  1.00  0.00    -0.268 OA
HETATM    4  H   UNL     1      25.816  45.779  51.936  1.00  0.00     0.163 HD
ENDROOT
BRANCH   2   5
HETATM    5  C   UNL     1      26.287  46.143  54.339  1.00  0.00     0.080 A 
HETATM    6  C   UNL     1      27.686  46.126  54.653  1.00  0.00     0.107 A 
HETATM    7  N   UNL     1      28.095  47.335  55.074  1.00  0.00    -0.173 NA
HETATM    8  N   UNL     1      27.003  48.101  55.041  1.00  0.00    -0.288 N 
HETATM    9  H   UNL     1      27.095  49.077  55.310  1.00  0.00     0.188 HD
HETATM   10  C   UNL     1      25.887  47.438  54.627  1.00  0.00     0.128 A 
BRANCH   6  11
HETATM   11  C   UNL     1      28.638  45.021  54.579  1.00  0.00     0.034 A 
HETATM   12  C   UNL     1      29.565  44.784  55.599  1.00  0.00     0.129 A 
HETATM   13  F   UNL     1      29.626  45.589  56.672  1.00  0.00    -0.205 F 
HETATM   14  C   UNL     1      30.469  43.725  55.520  1.00  0.00     0.043 A 
HETATM   15  C   UNL     1      30.466  42.892  54.402  1.00  0.00     0.003 A 
HETATM   16  C   UNL     1      29.565  43.127  53.365  1.00  0.00     0.001 A 
HETATM   17  C   UNL     1      28.657  44.187  53.451  1.00  0.00     0.017 A 
ENDBRANCH   6  11
ENDBRANCH   2   5
BRANCH   1  18
HETATM   18  C   UNL     1      24.534  44.078  51.729  1.00  0.00     0.089 C 
HETATM   19  C   UNL     1      25.524  43.084  51.110  1.00  0.00     0.063 C 
HETATM   20  C   UNL     1      26.219  43.555  49.821  1.00  0.00     0.121 C 
HETATM   21  N   UNL     1      25.207  44.145  48.866  1.00  0.00    -0.059 N 
HETATM   22  C   UNL     1      27.360  44.549  50.062  1.00  0.00     0.046 C 
HETATM   23  C   UNL     1      26.821  42.330  49.099  1.00  0.00     0.046 C 
HETATM   24  C   UNL     1      24.144  45.099  49.372  1.00  0.00     0.121 C 
HETATM   25  H   UNL     1      24.711  43.357  48.423  1.00  0.00     0.279 HD
HETATM   26  H   UNL     1      25.705  44.596  48.085  1.00  0.00     0.279 HD
HETATM   27  C   UNL     1      24.720  46.511  49.508  1.00  0.00     0.046 C 
HETATM   28  C   UNL     1      23.063  45.147  48.272  1.00  0.00     0.046 C 
HETATM   29  C   UNL     1      23.530  44.539  50.660  1.00  0.00     0.063 C 
ENDBRANCH   1  18
TORSDOF 3
ENDMDL
MODEL 2
REMARK VINA RESULT:      -8.0     12.428     14.926
REMARK  3 active torsions:
REMARK  status: ('A' for Active; 'I' for Inactive)
REMARK    1  A    between atoms: C_11  and  N_12 
REMARK       I    between atoms: N_12  and  C_13 
REMARK    2  A    between atoms: C_13  and  C_14 
REMARK    3  A    between atoms: C_15  and  C_16 
ROOT
HETATM    1  N   UNL     1      30.415  49.331  41.579  1.00  0.00    -0.352 N 
HETATM    2  C   UNL     1      29.884  48.581  40.538  1.00  0.00     0.255 C 
HETATM    3  O   UNL     1      30.586  47.886  39.813  1.00  0.00    -0.268 OA
HETATM    4  H   UNL     1      29.734  49.651  42.257  1.00  0.00     0.163 HD
ENDROOT
BRANCH   2   5
HETATM    5  C   UNL     1      28.446  48.701  40.368  1.00  0.00     0.080 A 
HETATM    6  C   UNL     1      27.701  49.840  39.919  1.00  0.00     0.107 A 
HETATM    7  N   UNL     1      26.391  49.551  39.835  1.00  0.00    -0.173 NA
HETATM    8  N   UNL     1      26.292  48.278  40.222  1.00  0.00    -0.288 N 
HETATM    9  H   UNL     1      25.372  47.848  40.217  1.00  0.00     0.188 HD
HETATM   10  C   UNL     1      27.487  47.722  40.570  1.00  0.00     0.128 A 
BRANCH   6  11
HETATM   11  C   UNL     1      28.173  51.181  39.578  1.00  0.00     0.034 A 
HETATM   12  C   UNL     1      28.258  52.193  40.539  1.00  0.00     0.129 A 
HETATM   13  F   UNL     1      27.877  51.970  41.808  1.00  0.00    -0.205 F 
HETATM   14  C   UNL     1      28.711  53.469  40.205  1.00  0.00     0.043 A 
HETATM   15  C   UNL     1      29.075  53.753  38.890  1.00  0.00     0.003 A 
HETATM   16  C   UNL     1      28.975  52.762  37.913  1.00  0.00     0.001 A 
HETATM   17  C   UNL     1      28.525  51.484  38.255  1.00  0.00     0.017 A 
ENDBRANCH   6  11
ENDBRANCH   2   5
BRANCH   1  18
HETATM   18  C   UNL     1      31.809  49.214  41.971  1.00  0.00     0.089 C 
HETATM   19  C   UNL     1      32.110  49.973  43.269  1.00  0.00     0.063 C 
HETATM   20  C   UNL     1      32.240  51.499  43.131  1.00  0.00     0.121 C 
HETATM   21  N   UNL     1      33.127  51.844  41.956  1.00  0.00    -0.059 N 
HETATM   22  C   UNL     1      30.896  52.226  43.010  1.00  0.00     0.046 C 
HETATM   23  C   UNL     1      32.955  52.057  44.380  1.00  0.00     0.046 C 
HETATM   24  C   UNL     1      32.960  51.121  40.634  1.00  0.00     0.121 C 
HETATM   25  H   UNL     1      34.101  51.693  42.255  1.00  0.00     0.279 HD
HETATM   26  H   UNL     1      33.074  52.858  41.782  1.00  0.00     0.279 HD
HETATM   27  C   UNL     1      31.803  51.732  39.838  1.00  0.00     0.046 C 
HETATM   28  C   UNL     1      34.256  51.390  39.842  1.00  0.00     0.046 C 
HETATM   29  C   UNL     1      32.828  49.616  40.891  1.00  0.00     0.063 C 
ENDBRANCH   1  18
TORSDOF 3
ENDMDL
MODEL 3
REMARK VINA RESULT:      -7.8     15.899     17.555
REMARK  3 active torsions:
REMARK  status: ('A' for Active; 'I' for Inactive)
REMARK    1  A    between atoms: C_11  and  N_12 
REMARK       I    between atoms: N_12  and  C_13 
REMARK    2  A    between atoms: C_13  and  C_14 
REMARK    3  A    between atoms: C_15  and  C_16 
ROOT
HETATM    1  N   UNL     1      37.300  45.468  66.334  1.00  0.00    -0.352 N 
HETATM    2  C   UNL     1      37.116  44.205  66.882  1.00  0.00     0.255 C 
HETATM    3  O   UNL     1      37.845  43.767  67.765  1.00  0.00    -0.268 OA
HETATM    4  H   UNL     1      36.505  45.821  65.815  1.00  0.00     0.163 HD
ENDROOT
BRANCH   2   5
HETATM    5  C   UNL     1      36.013  43.447  66.318  1.00  0.00     0.080 A 
HETATM    6  C   UNL     1      36.068  42.406  65.334  1.00  0.00     0.107 A 
HETATM    7  N   UNL     1      34.843  41.901  65.104  1.00  0.00    -0.173 NA
HETATM    8  N   UNL     1      34.029  42.593  65.903  1.00  0.00    -0.288 N 
HETATM    9  H   UNL     1      33.041  42.355  65.898  1.00  0.00     0.188 HD
HETATM   10  C   UNL     1      34.669  43.543  66.640  1.00  0.00     0.128 A 
BRANCH   6  11
HETATM   11  C   UNL     1      37.220  41.882  64.602  1.00  0.00     0.034 A 
HETATM   12  C   UNL     1      37.683  42.492  63.433  1.00  0.00     0.129 A 
HETATM   13  F   UNL     1      37.061  43.570  62.927  1.00  0.00    -0.205 F 
HETATM   14  C   UNL     1      38.784  41.986  62.742  1.00  0.00     0.043 A 
HETATM   15  C   UNL     1      39.430  40.843  63.211  1.00  0.00     0.003 A 
HETATM   16  C   UNL     1      38.968  40.208  64.363  1.00  0.00     0.001 A 
HETATM   17  C   UNL     1      37.868  40.723  65.054  1.00  0.00     0.017 A 
ENDBRANCH   6  11
ENDBRANCH   2   5
BRANCH   1  18
HETATM   18  C   UNL     1      38.266  46.405  66.882  1.00  0.00     0.089 C 
HETATM   19  C   UNL     1      37.850  47.863  66.652  1.00  0.00     0.063 C 
HETATM   20  C   UNL     1      38.078  48.404  65.231  1.00  0.00     0.121 C 
HETATM   21  N   UNL     1      39.464  48.040  64.750  1.00  0.00    -0.059 N 
HETATM   22  C   UNL     1      37.028  47.938  64.216  1.00  0.00     0.046 C 
HETATM   23  C   UNL     1      38.032  49.946  65.266  1.00  0.00     0.046 C 
HETATM   24  C   UNL     1      40.007  46.642  64.969  1.00  0.00     0.121 C 
HETATM   25  H   UNL     1      40.124  48.688  65.204  1.00  0.00     0.279 HD
HETATM   26  H   UNL     1      39.542  48.267  63.748  1.00  0.00     0.279 HD
HETATM   27  C   UNL     1      39.473  45.691  63.895  1.00  0.00     0.046 C 
HETATM   28  C   UNL     1      41.534  46.748  64.771  1.00  0.00     0.046 C 
HETATM   29  C   UNL     1      39.714  46.202  66.407  1.00  0.00     0.063 C 
ENDBRANCH   1  18
TORSDOF 3
ENDMDL
MODEL 4
REMARK VINA RESULT:      -7.8     12.641     14.613
REMARK  3 active torsions:
REMARK  status: ('A' for Active; 'I' for Inactive)
REMARK    1  A    between atoms: C_11  and  N_12 
REMARK       I    between atoms: N_12  and  C_13 
REMARK    2  A    between atoms: C_13  and  C_14 
REMARK    3  A    between atoms: C_15  and  C_16 
ROOT
HETATM    1  N   UNL     1      30.658  49.774  41.143  1.00  0.00    -0.352 N 
HETATM    2  C   UNL     1      29.444  49.259  41.578  1.00  0.00     0.255 C 
HETATM    3  O   UNL     1      29.374  48.419  42.466  1.00  0.00    -0.268 OA
HETATM    4  H   UNL     1      30.586  50.628  40.606  1.00  0.00     0.163 HD
ENDROOT
BRANCH   2   5
HETATM    5  C   UNL     1      28.276  49.781  40.887  1.00  0.00     0.080 A 
HETATM    6  C   UNL     1      27.486  49.137  39.879  1.00  0.00     0.107 A 
HETATM    7  N   UNL     1      26.449  49.914  39.520  1.00  0.00    -0.173 NA
HETATM    8  N   UNL     1      26.569  51.017  40.260  1.00  0.00    -0.288 N 
HETATM    9  H   UNL     1      25.864  51.742  40.154  1.00  0.00     0.188 HD
HETATM   10  C   UNL     1      27.654  51.002  41.084  1.00  0.00     0.128 A 
BRANCH   6  11
HETATM   11  C   UNL     1      27.676  47.836  39.243  1.00  0.00     0.034 A 
HETATM   12  C   UNL     1      28.818  47.549  38.489  1.00  0.00     0.129 A 
HETATM   13  F   UNL     1      29.768  48.479  38.302  1.00  0.00    -0.205 F 
HETATM   14  C   UNL     1      28.991  46.304  37.887  1.00  0.00     0.043 A 
HETATM   15  C   UNL     1      28.006  45.326  38.022  1.00  0.00     0.003 A 
HETATM   16  C   UNL     1      26.850  45.602  38.750  1.00  0.00     0.001 A 
HETATM   17  C   UNL     1      26.684  46.850  39.356  1.00  0.00     0.017 A 
ENDBRANCH   6  11
ENDBRANCH   2   5
BRANCH   1  18
HETATM   18  C   UNL     1      31.906  49.465  41.823  1.00  0.00     0.089 C 
HETATM   19  C   UNL     1      31.975  50.095  43.218  1.00  0.00     0.063 C 
HETATM   20  C   UNL     1      32.289  51.601  43.253  1.00  0.00     0.121 C 
HETATM   21  N   UNL     1      33.453  51.912  42.340  1.00  0.00    -0.059 N 
HETATM   22  C   UNL     1      31.091  52.490  42.903  1.00  0.00     0.046 C 
HETATM   23  C   UNL     1      32.749  51.986  44.675  1.00  0.00     0.046 C 
HETATM   24  C   UNL     1      33.522  51.303  40.954  1.00  0.00     0.121 C 
HETATM   25  H   UNL     1      34.312  51.627  42.832  1.00  0.00     0.279 HD
HETATM   26  H   UNL     1      33.545  52.935  42.252  1.00  0.00     0.279 HD
HETATM   27  C   UNL     1      32.649  52.099  39.980  1.00  0.00     0.046 C 
HETATM   28  C   UNL     1      34.987  51.465  40.496  1.00  0.00     0.046 C 
HETATM   29  C   UNL     1      33.181  49.812  41.037  1.00  0.00     0.063 C 
ENDBRANCH   1  18
TORSDOF 3
ENDMDL
MODEL 5
REMARK VINA RESULT:      -7.6     12.065     14.006
REMARK  3 active torsions:
REMARK  status: ('A' for Active; 'I' for Inactive)
REMARK    1  A    between atoms: C_11  and  N_12 
REMARK       I    between atoms: N_12  and  C_13 
REMARK    2  A    between atoms: C_13  and  C_14 
REMARK    3  A    between atoms: C_15  and  C_16 
ROOT
HETATM    1  N   UNL     1      28.901  47.743  41.018  1.00  0.00    -0.352 N 
HETATM    2  C   UNL     1      29.047  48.861  41.828  1.00  0.00     0.255 C 
HETATM    3  O   UNL     1      28.095  49.378  42.402  1.00  0.00    -0.268 OA
HETATM    4  H   UNL     1      29.764  47.257  40.811  1.00  0.00     0.163 HD
ENDROOT
BRANCH   2   5
HETATM    5  C   UNL     1      30.403  49.375  41.925  1.00  0.00     0.080 A 
HETATM    6  C   UNL     1      31.007  50.425  41.159  1.00  0.00     0.107 A 
HETATM    7  N   UNL     1      32.264  50.657  41.576  1.00  0.00    -0.173 NA
HETATM    8  N   UNL     1      32.466  49.786  42.566  1.00  0.00    -0.288 N 
HETATM    9  H   UNL     1      33.365  49.804  43.040  1.00  0.00     0.188 HD
HETATM   10  C   UNL     1      31.394  48.981  42.809  1.00  0.00     0.128 A 
BRANCH   6  11
HETATM   11  C   UNL     1      30.451  51.203  40.054  1.00  0.00     0.034 A 
HETATM   12  C   UNL     1      29.496  52.201  40.269  1.00  0.00     0.129 A 
HETATM   13  F   UNL     1      29.037  52.457  41.505  1.00  0.00    -0.205 F 
HETATM   14  C   UNL     1      28.973  52.939  39.208  1.00  0.00     0.043 A 
HETATM   15  C   UNL     1      29.392  52.674  37.905  1.00  0.00     0.003 A 
HETATM   16  C   UNL     1      30.326  51.666  37.669  1.00  0.00     0.001 A 
HETATM   17  C   UNL     1      30.852  50.933  38.737  1.00  0.00     0.017 A 
ENDBRANCH   6  11
ENDBRANCH   2   5
BRANCH   1  18
HETATM   18  C   UNL     1      27.640  47.025  40.927  1.00  0.00     0.089 C 
HETATM   19  C   UNL     1      27.782  45.706  40.159  1.00  0.00     0.063 C 
HETATM   20  C   UNL     1      27.860  45.833  38.628  1.00  0.00     0.121 C 
HETATM   21  N   UNL     1      26.781  46.765  38.126  1.00  0.00    -0.059 N 
HETATM   22  C   UNL     1      29.231  46.286  38.115  1.00  0.00     0.046 C 
HETATM   23  C   UNL     1      27.562  44.457  37.993  1.00  0.00     0.046 C 
HETATM   24  C   UNL     1      26.512  48.076  38.837  1.00  0.00     0.121 C 
HETATM   25  H   UNL     1      25.896  46.238  38.131  1.00  0.00     0.279 HD
HETATM   26  H   UNL     1      26.947  46.964  37.128  1.00  0.00     0.279 HD
HETATM   27  C   UNL     1      27.523  49.137  38.395  1.00  0.00     0.046 C 
HETATM   28  C   UNL     1      25.120  48.538  38.355  1.00  0.00     0.046 C 
HETATM   29  C   UNL     1      26.467  47.834  40.349  1.00  0.00     0.063 C 
ENDBRANCH   1  18
TORSDOF 3
ENDMDL
MODEL 6
REMARK VINA RESULT:      -7.5     12.098     14.483
REMARK  3 active torsions:
REMARK  status: ('A' for Active; 'I' for Inactive)
REMARK    1  A    between atoms: C_11  and  N_12 
REMARK       I    between atoms: N_12  and  C_13 
REMARK    2  A    between atoms: C_13  and  C_14 
REMARK    3  A    between atoms: C_15  and  C_16 
ROOT
HETATM    1  N   UNL     1      29.276  50.350  40.321  1.00  0.00    -0.352 N 
HETATM    2  C   UNL     1      27.961  50.177  40.733  1.00  0.00     0.255 C 
HETATM    3  O   UNL     1      27.647  50.155  41.918  1.00  0.00    -0.268 OA
HETATM    4  H   UNL     1      29.382  50.608  39.349  1.00  0.00     0.163 HD
ENDROOT
BRANCH   2   5
HETATM    5  C   UNL     1      26.999  50.008  39.656  1.00  0.00     0.080 A 
HETATM    6  C   UNL     1      26.069  48.935  39.463  1.00  0.00     0.107 A 
HETATM    7  N   UNL     1      25.302  49.158  38.382  1.00  0.00    -0.173 NA
HETATM    8  N   UNL     1      25.725  50.325  37.892  1.00  0.00    -0.288 N 
HETATM    9  H   UNL     1      25.259  50.693  37.067  1.00  0.00     0.188 HD
HETATM   10  C   UNL     1      26.751  50.872  38.603  1.00  0.00     0.128 A 
BRANCH   6  11
HETATM   11  C   UNL     1      25.885  47.716  40.247  1.00  0.00     0.034 A 
HETATM   12  C   UNL     1      26.919  46.788  40.411  1.00  0.00     0.129 A 
HETATM   13  F   UNL     1      28.112  46.979  39.825  1.00  0.00    -0.205 F 
HETATM   14  C   UNL     1      26.734  45.628  41.162  1.00  0.00     0.043 A 
HETATM   15  C   UNL     1      25.496  45.373  41.751  1.00  0.00     0.003 A 
HETATM   16  C   UNL     1      24.447  46.275  41.578  1.00  0.00     0.001 A 
HETATM   17  C   UNL     1      24.639  47.439  40.829  1.00  0.00     0.017 A 
ENDBRANCH   6  11
ENDBRANCH   2   5
BRANCH   1  18
HETATM   18  C   UNL     1      30.335  50.673  41.263  1.00  0.00     0.089 C 
HETATM   19  C   UNL     1      31.345  51.667  40.678  1.00  0.00     0.063 C 
HETATM   20  C   UNL     1      32.360  51.075  39.685  1.00  0.00     0.121 C 
HETATM   21  N   UNL     1      32.950  49.799  40.240  1.00  0.00    -0.059 N 
HETATM   22  C   UNL     1      31.784  50.828  38.287  1.00  0.00     0.046 C 
HETATM   23  C   UNL     1      33.541  52.057  39.530  1.00  0.00     0.046 C 
HETATM   24  C   UNL     1      32.056  48.763  40.891  1.00  0.00     0.121 C 
HETATM   25  H   UNL     1      33.653  50.069  40.943  1.00  0.00     0.279 HD
HETATM   26  H   UNL     1      33.501  49.336  39.501  1.00  0.00     0.279 HD
HETATM   27  C   UNL     1      31.385  47.895  39.825  1.00  0.00     0.046 C 
HETATM   28  C   UNL     1      32.997  47.849  41.704  1.00  0.00     0.046 C 
HETATM   29  C   UNL     1      31.082  49.462  41.846  1.00  0.00     0.063 C 
ENDBRANCH   1  18
TORSDOF 3
ENDMDL
MODEL 7
REMARK VINA RESULT:      -7.5      2.563      3.891
REMARK  3 active torsions:
REMARK  status: ('A' for Active; 'I' for Inactive)
REMARK    1  A    between atoms: C_11  and  N_12 
REMARK       I    between atoms: N_12  and  C_13 
REMARK    2  A    between atoms: C_13  and  C_14 
REMARK    3  A    between atoms: C_15  and  C_16 
ROOT
HETATM    1  N   UNL     1      26.349  43.179  50.251  1.00  0.00    -0.352 N 
HETATM    2  C   UNL     1      27.440  43.399  51.081  1.00  0.00     0.255 C 
HETATM    3  O   UNL     1      28.218  44.328  50.901  1.00  0.00    -0.268 OA
HETATM    4  H   UNL     1      25.645  42.561  50.634  1.00  0.00     0.163 HD
ENDROOT
BRANCH   2   5
HETATM    5  C   UNL     1      27.592  42.436  52.159  1.00  0.00     0.080 A 
HETATM    6  C   UNL     1      27.873  42.695  53.541  1.00  0.00     0.107 A 
HETATM    7  N   UNL     1      27.883  41.552  54.248  1.00  0.00    -0.173 NA
HETATM    8  N   UNL     1      27.626  40.592  53.357  1.00  0.00    -0.288 N 
HETATM    9  H   UNL     1      27.571  39.634  53.691  1.00  0.00     0.188 HD
HETATM   10  C   UNL     1      27.460  41.060  52.088  1.00  0.00     0.128 A 
BRANCH   6  11
HETATM   11  C   UNL     1      28.139  43.967  54.210  1.00  0.00     0.034 A 
HETATM   12  C   UNL     1      29.370  44.229  54.821  1.00  0.00     0.129 A 
HETATM   13  F   UNL     1      30.341  43.301  54.836  1.00  0.00    -0.205 F 
HETATM   14  C   UNL     1      29.615  45.445  55.457  1.00  0.00     0.043 A 
HETATM   15  C   UNL     1      28.617  46.418  55.501  1.00  0.00     0.003 A 
HETATM   16  C   UNL     1      27.376  46.165  54.917  1.00  0.00     0.001 A 
HETATM   17  C   UNL     1      27.138  44.946  54.277  1.00  0.00     0.017 A 
ENDBRANCH   6  11
ENDBRANCH   2   5
BRANCH   1  18
HETATM   18  C   UNL     1      25.974  44.127  49.214  1.00  0.00     0.089 C 
HETATM   19  C   UNL     1      25.917  45.566  49.742  1.00  0.00     0.063 C 
HETATM   20  C   UNL     1      24.668  45.921  50.567  1.00  0.00     0.121 C 
HETATM   21  N   UNL     1      23.421  45.436  49.864  1.00  0.00    -0.059 N 
HETATM   22  C   UNL     1      24.706  45.389  52.004  1.00  0.00     0.046 C 
HETATM   23  C   UNL     1      24.540  47.457  50.648  1.00  0.00     0.046 C 
HETATM   24  C   UNL     1      23.378  44.049  49.254  1.00  0.00     0.121 C 
HETATM   25  H   UNL     1      23.222  46.101  49.103  1.00  0.00     0.279 HD
HETATM   26  H   UNL     1      22.617  45.537  50.500  1.00  0.00     0.279 HD
HETATM   27  C   UNL     1      23.080  43.004  50.332  1.00  0.00     0.046 C 
HETATM   28  C   UNL     1      22.183  44.056  48.277  1.00  0.00     0.046 C 
HETATM   29  C   UNL     1      24.670  43.799  48.469  1.00  0.00     0.063 C 
ENDBRANCH   1  18
TORSDOF 3
ENDMDL
MODEL 8
REMARK VINA RESULT:      -7.4     12.926     14.680
REMARK  3 active torsions:
REMARK  status: ('A' for Active; 'I' for Inactive)
REMARK    1  A    between atoms: C_11  and  N_12 
REMARK       I    between atoms: N_12  and  C_13 
REMARK    2  A    between atoms: C_13  and  C_14 
REMARK    3  A    between atoms: C_15  and  C_16 
ROOT
HETATM    1  N   UNL     1      28.924  50.611  39.292  1.00  0.00    -0.352 N 
HETATM    2  C   UNL     1      29.643  51.605  38.643  1.00  0.00     0.255 C 
HETATM    3  O   UNL     1      29.966  51.511  37.464  1.00  0.00    -0.268 OA
HETATM    4  H   UNL     1      28.497  50.900  40.163  1.00  0.00     0.163 HD
ENDROOT
BRANCH   2   5
HETATM    5  C   UNL     1      29.994  52.747  39.471  1.00  0.00     0.080 A 
HETATM    6  C   UNL     1      31.084  52.867  40.394  1.00  0.00     0.107 A 
HETATM    7  N   UNL     1      31.118  54.098  40.934  1.00  0.00    -0.173 NA
HETATM    8  N   UNL     1      30.087  54.745  40.386  1.00  0.00    -0.288 N 
HETATM    9  H   UNL     1      29.938  55.715  40.650  1.00  0.00     0.188 HD
HETATM   10  C   UNL     1      29.368  53.982  39.517  1.00  0.00     0.128 A 
BRANCH   6  11
HETATM   11  C   UNL     1      32.077  51.871  40.790  1.00  0.00     0.034 A 
HETATM   12  C   UNL     1      33.124  51.504  39.938  1.00  0.00     0.129 A 
HETATM   13  F   UNL     1      33.231  52.038  38.711  1.00  0.00    -0.205 F 
HETATM   14  C   UNL     1      34.068  50.553  40.324  1.00  0.00     0.043 A 
HETATM   15  C   UNL     1      33.966  49.943  41.574  1.00  0.00     0.003 A 
HETATM   16  C   UNL     1      32.916  50.280  42.427  1.00  0.00     0.001 A 
HETATM   17  C   UNL     1      31.976  51.237  42.036  1.00  0.00     0.017 A 
ENDBRANCH   6  11
ENDBRANCH   2   5
BRANCH   1  18
HETATM   18  C   UNL     1      28.375  49.472  38.573  1.00  0.00     0.089 C 
HETATM   19  C   UNL     1      27.010  49.045  39.125  1.00  0.00     0.063 C 
HETATM   20  C   UNL     1      27.044  48.245  40.437  1.00  0.00     0.121 C 
HETATM   21  N   UNL     1      28.084  47.150  40.355  1.00  0.00    -0.059 N 
HETATM   22  C   UNL     1      27.284  49.107  41.681  1.00  0.00     0.046 C 
HETATM   23  C   UNL     1      25.689  47.530  40.626  1.00  0.00     0.046 C 
HETATM   24  C   UNL     1      29.455  47.439  39.777  1.00  0.00     0.121 C 
HETATM   25  H   UNL     1      27.679  46.388  39.791  1.00  0.00     0.279 HD
HETATM   26  H   UNL     1      28.205  46.731  41.289  1.00  0.00     0.279 HD
HETATM   27  C   UNL     1      30.347  48.097  40.833  1.00  0.00     0.046 C 
HETATM   28  C   UNL     1      30.070  46.063  39.446  1.00  0.00     0.046 C 
HETATM   29  C   UNL     1      29.301  48.248  38.485  1.00  0.00     0.063 C 
ENDBRANCH   1  18
TORSDOF 3
ENDMDL
MODEL 9
REMARK VINA RESULT:      -7.3     12.766     14.098
REMARK  3 active torsions:
REMARK  status: ('A' for Active; 'I' for Inactive)
REMARK    1  A    between atoms: C_11  and  N_12 
REMARK       I    between atoms: N_12  and  C_13 
REMARK    2  A    between atoms: C_13  and  C_14 
REMARK    3  A    between atoms: C_15  and  C_16 
ROOT
HETATM    1  N   UNL     1      29.653  47.411  39.404  1.00  0.00    -0.352 N 
HETATM    2  C   UNL     1      30.605  48.421  39.378  1.00  0.00     0.255 C 
HETATM    3  O   UNL     1      30.872  49.037  38.353  1.00  0.00    -0.268 OA
HETATM    4  H   UNL     1      29.333  47.157  40.331  1.00  0.00     0.163 HD
ENDROOT
BRANCH   2   5
HETATM    5  C   UNL     1      31.265  48.673  40.648  1.00  0.00     0.080 A 
HETATM    6  C   UNL     1      31.147  49.826  41.491  1.00  0.00     0.107 A 
HETATM    7  N   UNL     1      31.868  49.670  42.615  1.00  0.00    -0.173 NA
HETATM    8  N   UNL     1      32.434  48.468  42.499  1.00  0.00    -0.288 N 
HETATM    9  H   UNL     1      33.020  48.141  43.263  1.00  0.00     0.188 HD
HETATM   10  C   UNL     1      32.125  47.832  41.335  1.00  0.00     0.128 A 
BRANCH   6  11
HETATM   11  C   UNL     1      30.395  51.060  41.274  1.00  0.00     0.034 A 
HETATM   12  C   UNL     1      31.025  52.239  40.866  1.00  0.00     0.129 A 
HETATM   13  F   UNL     1      32.356  52.281  40.687  1.00  0.00    -0.205 F 
HETATM   14  C   UNL     1      30.299  53.412  40.660  1.00  0.00     0.043 A 
HETATM   15  C   UNL     1      28.922  53.421  40.877  1.00  0.00     0.003 A 
HETATM   16  C   UNL     1      28.280  52.260  41.307  1.00  0.00     0.001 A 
HETATM   17  C   UNL     1      29.012  51.087  41.507  1.00  0.00     0.017 A 
ENDBRANCH   6  11
ENDBRANCH   2   5
BRANCH   1  18
HETATM   18  C   UNL     1      28.804  47.131  38.258  1.00  0.00     0.089 C 
HETATM   19  C   UNL     1      27.613  48.093  38.173  1.00  0.00     0.063 C 
HETATM   20  C   UNL     1      26.455  47.804  39.144  1.00  0.00     0.121 C 
HETATM   21  N   UNL     1      26.107  46.333  39.119  1.00  0.00    -0.059 N 
HETATM   22  C   UNL     1      26.728  48.258  40.582  1.00  0.00     0.046 C 
HETATM   23  C   UNL     1      25.193  48.548  38.657  1.00  0.00     0.046 C 
HETATM   24  C   UNL     1      27.204  45.287  39.144  1.00  0.00     0.121 C 
HETATM   25  H   UNL     1      25.556  46.165  38.265  1.00  0.00     0.279 HD
HETATM   26  H   UNL     1      25.447  46.132  39.884  1.00  0.00     0.279 HD
HETATM   27  C   UNL     1      27.692  45.065  40.578  1.00  0.00     0.046 C 
HETATM   28  C   UNL     1      26.543  43.974  38.675  1.00  0.00     0.046 C 
HETATM   29  C   UNL     1      28.304  45.681  38.153  1.00  0.00     0.063 C 
ENDBRANCH   1  18
TORSDOF 3
ENDMDL
MODEL 10
REMARK VINA RESULT:      -7.3     13.712     15.026
REMARK  3 active torsions:
REMARK  status: ('A' for Active; 'I' for Inactive)
REMARK    1  A    between atoms: C_11  and  N_12 
REMARK       I    between atoms: N_12  and  C_13 
REMARK    2  A    between atoms: C_13  and  C_14 
REMARK    3  A    between atoms: C_15  and  C_16 
ROOT
HETATM    1  N   UNL     1      33.557  51.732  42.185  1.00  0.00    -0.352 N 
HETATM    2  C   UNL     1      34.623  51.742  43.075  1.00  0.00     0.255 C 
HETATM    3  O   UNL     1      34.476  52.001  44.263  1.00  0.00    -0.268 OA
HETATM    4  H   UNL     1      33.744  51.262  41.308  1.00  0.00     0.163 HD
ENDROOT
BRANCH   2   5
HETATM    5  C   UNL     1      35.916  51.440  42.485  1.00  0.00     0.080 A 
HETATM    6  C   UNL     1      37.203  51.938  42.873  1.00  0.00     0.107 A 
HETATM    7  N   UNL     1      38.174  51.385  42.126  1.00  0.00    -0.173 NA
HETATM    8  N   UNL     1      37.539  50.568  41.284  1.00  0.00    -0.288 N 
HETATM    9  H   UNL     1      38.099  50.029  40.629  1.00  0.00     0.188 HD
HETATM   10  C   UNL     1      36.186  50.572  41.439  1.00  0.00     0.128 A 
BRANCH   6  11
HETATM   11  C   UNL     1      37.545  52.914  43.906  1.00  0.00     0.034 A 
HETATM   12  C   UNL     1      37.605  54.283  43.629  1.00  0.00     0.129 A 
HETATM   13  F   UNL     1      37.376  54.743  42.388  1.00  0.00    -0.205 F 
HETATM   14  C   UNL     1      37.932  55.206  44.621  1.00  0.00     0.043 A 
HETATM   15  C   UNL     1      38.219  54.764  45.912  1.00  0.00     0.003 A 
HETATM   16  C   UNL     1      38.187  53.401  46.201  1.00  0.00     0.001 A 
HETATM   17  C   UNL     1      37.854  52.480  45.204  1.00  0.00     0.017 A 
ENDBRANCH   6  11
ENDBRANCH   2   5
BRANCH   1  18
HETATM   18  C   UNL     1      32.183  51.874  42.637  1.00  0.00     0.089 C 
HETATM   19  C   UNL     1      31.524  50.518  42.916  1.00  0.00     0.063 C 
HETATM   20  C   UNL     1      31.071  49.731  41.675  1.00  0.00     0.121 C 
HETATM   21  N   UNL     1      30.318  50.637  40.728  1.00  0.00    -0.059 N 
HETATM   22  C   UNL     1      32.217  49.030  40.936  1.00  0.00     0.046 C 
HETATM   23  C   UNL     1      30.068  48.641  42.109  1.00  0.00     0.046 C 
HETATM   24  C   UNL     1      30.844  52.024  40.416  1.00  0.00     0.121 C 
HETATM   25  H   UNL     1      29.370  50.759  41.112  1.00  0.00     0.279 HD
HETATM   26  H   UNL     1      30.164  50.139  39.839  1.00  0.00     0.279 HD
HETATM   27  C   UNL     1      31.937  51.949  39.347  1.00  0.00     0.046 C 
HETATM   28  C   UNL     1      29.655  52.796  39.806  1.00  0.00     0.046 C 
HETATM   29  C   UNL     1      31.275  52.708  41.718  1.00  0.00     0.063 C 
ENDBRANCH   1  18
TORSDOF 3
ENDMDL
