MODEL 1
REMARK VINA RESULT:      -9.7      0.000      0.000
REMARK  7 active torsions:
REMARK  status: ('A' for Active; 'I' for Inactive)
REMARK    1  A    between atoms: O_2  and  C_3 
REMARK    2  A    between atoms: C_6  and  C_7 
REMARK    3  A    between atoms: C_11  and  C_12 
REMARK       I    between atoms: C_12  and  N_13 
REMARK    4  A    between atoms: N_13  and  N_14 
REMARK       I    between atoms: N_14  and  C_15 
REMARK    5  A    between atoms: C_15  and  C_16 
REMARK    6  A    between atoms: C_16  and  C_17 
REMARK    7  A    between atoms: C_17  and  C_18 
ROOT
HETATM    1  C   UNL     1      24.219  44.831  50.875  1.00  0.00     0.288 C 
HETATM    2  N   UNL     1      24.315  46.158  50.518  1.00  0.00    -0.262 N 
HETATM    3  O   UNL     1      23.262  44.133  50.550  1.00  0.00    -0.264 OA
HETATM    4  H   UNL     1      25.109  46.750  50.753  1.00  0.00     0.190 HD
ENDROOT
BRANCH   1   5
HETATM    5  C   UNL     1      25.319  44.333  51.656  1.00  0.00     0.121 A 
HETATM    6  N   UNL     1      25.662  43.011  51.674  1.00  0.00    -0.272 N 
HETATM    7  N   UNL     1      26.698  42.722  52.476  1.00  0.00    -0.174 NA
HETATM    8  H   UNL     1      25.211  42.257  51.166  1.00  0.00     0.189 HD
HETATM    9  C   UNL     1      27.075  43.905  52.986  1.00  0.00     0.089 A 
HETATM   10  C   UNL     1      26.230  44.941  52.497  1.00  0.00     0.071 A 
BRANCH   9  11
HETATM   11  C   UNL     1      28.194  44.031  53.924  1.00  0.00    -0.005 A 
HETATM   12  C   UNL     1      29.192  43.052  53.993  1.00  0.00     0.016 A 
HETATM   13  C   UNL     1      30.272  43.198  54.870  1.00  0.00     0.037 A 
HETATM   14  C   UNL     1      30.380  44.323  55.687  1.00  0.00     0.068 A 
HETATM   15  C   UNL     1      29.382  45.295  55.639  1.00  0.00     0.037 A 
HETATM   16  C   UNL     1      28.297  45.148  54.765  1.00  0.00     0.016 A 
BRANCH  14  17
HETATM   17  O   UNL     1      31.492  44.347  56.483  1.00  0.00    -0.356 OA
HETATM   18  C   UNL     1      31.784  43.159  57.207  1.00  0.00     0.210 C 
ENDBRANCH  14  17
ENDBRANCH   9  11
ENDBRANCH   1   5
BRANCH   2  19
HETATM   19  N   UNL     1      23.330  46.742  49.721  1.00  0.00    -0.267 N 
HETATM   20  C   UNL     1      23.512  48.057  49.348  1.00  0.00     0.236 C 
HETATM   21  O   UNL     1      24.476  48.717  49.731  1.00  0.00    -0.272 OA
HETATM   22  H   UNL     1      22.593  46.136  49.363  1.00  0.00     0.190 HD
BRANCH  20  23
HETATM   23  C   UNL     1      22.437  48.579  48.425  1.00  0.00     0.109 C 
BRANCH  23  24
HETATM   24  C   UNL     1      21.049  48.364  49.025  1.00  0.00     0.049 C 
BRANCH  24  25
HETATM   25  C   UNL     1      20.266  49.651  49.137  1.00  0.00    -0.036 A 
HETATM   26  C   UNL     1      19.181  49.811  50.013  1.00  0.00     0.040 A 
HETATM   27 CL   UNL     1      18.644  48.535  51.045  1.00  0.00    -0.084 Cl
HETATM   28  C   UNL     1      18.490  51.026  50.074  1.00  0.00     0.024 A 
HETATM   29  C   UNL     1      18.871  52.093  49.263  1.00  0.00     0.002 A 
HETATM   30  C   UNL     1      19.941  51.947  48.383  1.00  0.00     0.001 A 
HETATM   31  C   UNL     1      20.632  50.735  48.319  1.00  0.00     0.009 A 
ENDBRANCH  24  25
ENDBRANCH  23  24
ENDBRANCH  20  23
ENDBRANCH   2  19
TORSDOF 7
ENDMDL
MODEL 2
REMARK VINA RESULT:      -9.6      2.914     10.764
REMARK  7 active torsions:
REMARK  status: ('A' for Active; 'I' for Inactive)
REMARK    1  A    between atoms: O_2  and  C_3 
REMARK    2  A    between atoms: C_6  and  C_7 
REMARK    3  A    between atoms: C_11  and  C_12 
REMARK       I    between atoms: C_12  and  N_13 
REMARK    4  A    between atoms: N_13  and  N_14 
REMARK       I    between atoms: N_14  and  C_15 
REMARK    5  A    between atoms: C_15  and  C_16 
REMARK    6  A    between atoms: C_16  and  C_17 
REMARK    7  A    between atoms: C_17  and  C_18 
ROOT
HETATM    1  C   UNL     1      26.397  45.263  50.427  1.00  0.00     0.288 C 
HETATM    2  N   UNL     1      26.424  45.046  51.787  1.00  0.00    -0.262 N 
HETATM    3  O   UNL     1      27.295  44.876  49.684  1.00  0.00    -0.264 OA
HETATM    4  H   UNL     1      25.681  45.334  52.421  1.00  0.00     0.190 HD
ENDROOT
BRANCH   1   5
HETATM    5  C   UNL     1      25.243  45.975  49.951  1.00  0.00     0.121 A 
HETATM    6  N   UNL     1      24.196  45.344  49.342  1.00  0.00    -0.272 N 
HETATM    7  N   UNL     1      23.215  46.167  48.940  1.00  0.00    -0.174 NA
HETATM    8  H   UNL     1      24.105  44.349  49.160  1.00  0.00     0.189 HD
HETATM    9  C   UNL     1      23.615  47.389  49.327  1.00  0.00     0.089 A 
HETATM   10  C   UNL     1      24.886  47.309  49.961  1.00  0.00     0.071 A 
BRANCH   9  11
HETATM   11  C   UNL     1      22.813  48.590  49.076  1.00  0.00    -0.005 A 
HETATM   12  C   UNL     1      21.416  48.526  49.017  1.00  0.00     0.016 A 
HETATM   13  C   UNL     1      20.660  49.684  48.808  1.00  0.00     0.037 A 
HETATM   14  C   UNL     1      21.280  50.925  48.662  1.00  0.00     0.068 A 
HETATM   15  C   UNL     1      22.672  50.996  48.700  1.00  0.00     0.037 A 
HETATM   16  C   UNL     1      23.431  49.836  48.904  1.00  0.00     0.016 A 
BRANCH  14  17
HETATM   17  O   UNL     1      20.423  51.974  48.481  1.00  0.00    -0.356 OA
HETATM   18  C   UNL     1      19.187  51.917  49.180  1.00  0.00     0.210 C 
ENDBRANCH  14  17
ENDBRANCH   9  11
ENDBRANCH   1   5
BRANCH   2  19
HETATM   19  N   UNL     1      27.473  44.326  52.361  1.00  0.00    -0.267 N 
HETATM   20  C   UNL     1      27.223  43.682  53.555  1.00  0.00     0.236 C 
HETATM   21  O   UNL     1      26.138  43.766  54.127  1.00  0.00    -0.272 OA
HETATM   22  H   UNL     1      28.325  44.218  51.813  1.00  0.00     0.190 HD
BRANCH  20  23
HETATM   23  C   UNL     1      28.389  42.866  54.059  1.00  0.00     0.109 C 
BRANCH  23  24
HETATM   24  C   UNL     1      29.683  43.677  54.016  1.00  0.00     0.049 C 
BRANCH  24  25
HETATM   25  C   UNL     1      30.161  44.065  55.396  1.00  0.00    -0.036 A 
HETATM   26  C   UNL     1      29.802  45.272  56.017  1.00  0.00     0.040 A 
HETATM   27 CL   UNL     1      28.772  46.425  55.245  1.00  0.00    -0.084 Cl
HETATM   28  C   UNL     1      30.276  45.582  57.296  1.00  0.00     0.024 A 
HETATM   29  C   UNL     1      31.115  44.695  57.968  1.00  0.00     0.002 A 
HETATM   30  C   UNL     1      31.486  43.498  57.362  1.00  0.00     0.001 A 
HETATM   31  C   UNL     1      31.016  43.186  56.085  1.00  0.00     0.009 A 
ENDBRANCH  24  25
ENDBRANCH  23  24
ENDBRANCH  20  23
ENDBRANCH   2  19
TORSDOF 7
ENDMDL
MODEL 3
REMARK VINA RESULT:      -9.3      3.290     11.520
REMARK  7 active torsions:
REMARK  status: ('A' for Active; 'I' for Inactive)
REMARK    1  A    between atoms: O_2  and  C_3 
REMARK    2  A    between atoms: C_6  and  C_7 
REMARK    3  A    between atoms: C_11  and  C_12 
REMARK       I    between atoms: C_12  and  N_13 
REMARK    4  A    between atoms: N_13  and  N_14 
REMARK       I    between atoms: N_14  and  C_15 
REMARK    5  A    between atoms: C_15  and  C_16 
REMARK    6  A    between atoms: C_16  and  C_17 
REMARK    7  A    between atoms: C_17  and  C_18 
ROOT
HETATM    1  C   UNL     1      24.803  48.030  49.567  1.00  0.00     0.288 C 
HETATM    2  N   UNL     1      24.274  47.128  50.464  1.00  0.00    -0.262 N 
HETATM    3  O   UNL     1      25.994  48.035  49.268  1.00  0.00    -0.264 OA
HETATM    4  H   UNL     1      23.287  47.087  50.709  1.00  0.00     0.190 HD
ENDROOT
BRANCH   1   5
HETATM    5  C   UNL     1      23.855  48.960  49.015  1.00  0.00     0.121 A 
HETATM    6  N   UNL     1      24.243  50.096  48.363  1.00  0.00    -0.272 N 
HETATM    7  N   UNL     1      23.225  50.859  47.934  1.00  0.00    -0.174 NA
HETATM    8  H   UNL     1      25.194  50.408  48.193  1.00  0.00     0.189 HD
HETATM    9  C   UNL     1      22.120  50.186  48.291  1.00  0.00     0.089 A 
HETATM   10  C   UNL     1      22.475  48.990  48.976  1.00  0.00     0.071 A 
BRANCH   9  11
HETATM   11  C   UNL     1      20.773  50.685  48.002  1.00  0.00    -0.005 A 
HETATM   12  C   UNL     1      20.251  51.791  48.685  1.00  0.00     0.016 A 
HETATM   13  C   UNL     1      18.976  52.278  48.379  1.00  0.00     0.037 A 
HETATM   14  C   UNL     1      18.203  51.679  47.384  1.00  0.00     0.068 A 
HETATM   15  C   UNL     1      18.706  50.566  46.712  1.00  0.00     0.037 A 
HETATM   16  C   UNL     1      19.981  50.073  47.021  1.00  0.00     0.016 A 
BRANCH  14  17
HETATM   17  O   UNL     1      16.985  52.265  47.176  1.00  0.00    -0.356 OA
HETATM   18  C   UNL     1      15.953  51.938  48.097  1.00  0.00     0.210 C 
ENDBRANCH  14  17
ENDBRANCH   9  11
ENDBRANCH   1   5
BRANCH   2  19
HETATM   19  N   UNL     1      25.088  46.147  51.033  1.00  0.00    -0.267 N 
HETATM   20  C   UNL     1      25.609  46.402  52.284  1.00  0.00     0.236 C 
HETATM   21  O   UNL     1      25.412  47.464  52.870  1.00  0.00    -0.272 OA
HETATM   22  H   UNL     1      25.157  45.254  50.548  1.00  0.00     0.190 HD
BRANCH  20  23
HETATM   23  C   UNL     1      26.411  45.254  52.851  1.00  0.00     0.109 C 
BRANCH  23  24
HETATM   24  C   UNL     1      27.092  45.656  54.158  1.00  0.00     0.049 C 
BRANCH  24  25
HETATM   25  C   UNL     1      28.339  44.846  54.426  1.00  0.00    -0.036 A 
HETATM   26  C   UNL     1      29.171  45.070  55.534  1.00  0.00     0.040 A 
HETATM   27 CL   UNL     1      28.834  46.304  56.695  1.00  0.00    -0.084 Cl
HETATM   28  C   UNL     1      30.316  44.290  55.733  1.00  0.00     0.024 A 
HETATM   29  C   UNL     1      30.645  43.282  54.829  1.00  0.00     0.002 A 
HETATM   30  C   UNL     1      29.834  43.054  53.720  1.00  0.00     0.001 A 
HETATM   31  C   UNL     1      28.692  43.831  53.518  1.00  0.00     0.009 A 
ENDBRANCH  24  25
ENDBRANCH  23  24
ENDBRANCH  20  23
ENDBRANCH   2  19
TORSDOF 7
ENDMDL
MODEL 4
REMARK VINA RESULT:      -9.1      1.887      2.084
REMARK  7 active torsions:
REMARK  status: ('A' for Active; 'I' for Inactive)
REMARK    1  A    between atoms: O_2  and  C_3 
REMARK    2  A    between atoms: C_6  and  C_7 
REMARK    3  A    between atoms: C_11  and  C_12 
REMARK       I    between atoms: C_12  and  N_13 
REMARK    4  A    between atoms: N_13  and  N_14 
REMARK       I    between atoms: N_14  and  C_15 
REMARK    5  A    between atoms: C_15  and  C_16 
REMARK    6  A    between atoms: C_16  and  C_17 
REMARK    7  A    between atoms: C_17  and  C_18 
ROOT
HETATM    1  C   UNL     1      24.536  46.185  50.703  1.00  0.00     0.288 C 
HETATM    2  N   UNL     1      23.941  47.420  50.568  1.00  0.00    -0.262 N 
HETATM    3  O   UNL     1      24.259  45.241  49.966  1.00  0.00    -0.264 OA
HETATM    4  H   UNL     1      24.171  48.225  51.148  1.00  0.00     0.190 HD
ENDROOT
BRANCH   1   5
HETATM    5  C   UNL     1      25.497  46.089  51.768  1.00  0.00     0.121 A 
HETATM    6  N   UNL     1      25.658  47.078  52.696  1.00  0.00    -0.272 N 
HETATM    7  N   UNL     1      26.616  46.831  53.603  1.00  0.00    -0.174 NA
HETATM    8  H   UNL     1      25.147  47.954  52.750  1.00  0.00     0.189 HD
HETATM    9  C   UNL     1      27.087  45.617  53.279  1.00  0.00     0.089 A 
HETATM   10  C   UNL     1      26.412  45.120  52.129  1.00  0.00     0.071 A 
BRANCH   9  11
HETATM   11  C   UNL     1      28.161  44.968  54.036  1.00  0.00    -0.005 A 
HETATM   12  C   UNL     1      28.669  43.723  53.646  1.00  0.00     0.016 A 
HETATM   13  C   UNL     1      29.716  43.127  54.358  1.00  0.00     0.037 A 
HETATM   14  C   UNL     1      30.278  43.763  55.465  1.00  0.00     0.068 A 
HETATM   15  C   UNL     1      29.767  44.994  55.873  1.00  0.00     0.037 A 
HETATM   16  C   UNL     1      28.715  45.590  55.164  1.00  0.00     0.016 A 
BRANCH  14  17
HETATM   17  O   UNL     1      31.304  43.079  56.057  1.00  0.00    -0.356 OA
HETATM   18  C   UNL     1      31.758  43.570  57.311  1.00  0.00     0.210 C 
ENDBRANCH  14  17
ENDBRANCH   9  11
ENDBRANCH   1   5
BRANCH   2  19
HETATM   19  N   UNL     1      23.025  47.648  49.541  1.00  0.00    -0.267 N 
HETATM   20  C   UNL     1      22.807  48.957  49.163  1.00  0.00     0.236 C 
HETATM   21  O   UNL     1      23.356  49.900  49.729  1.00  0.00    -0.272 OA
HETATM   22  H   UNL     1      22.656  46.835  49.050  1.00  0.00     0.190 HD
BRANCH  20  23
HETATM   23  C   UNL     1      21.861  49.100  47.994  1.00  0.00     0.109 C 
BRANCH  23  24
HETATM   24  C   UNL     1      21.554  50.571  47.716  1.00  0.00     0.049 C 
BRANCH  24  25
HETATM   25  C   UNL     1      20.171  50.965  48.179  1.00  0.00    -0.036 A 
HETATM   26  C   UNL     1      19.032  50.846  47.368  1.00  0.00     0.040 A 
HETATM   27 CL   UNL     1      19.119  50.231  45.756  1.00  0.00    -0.084 Cl
HETATM   28  C   UNL     1      17.775  51.228  47.847  1.00  0.00     0.024 A 
HETATM   29  C   UNL     1      17.639  51.737  49.138  1.00  0.00     0.002 A 
HETATM   30  C   UNL     1      18.762  51.868  49.951  1.00  0.00     0.001 A 
HETATM   31  C   UNL     1      20.018  51.488  49.476  1.00  0.00     0.009 A 
ENDBRANCH  24  25
ENDBRANCH  23  24
ENDBRANCH  20  23
ENDBRANCH   2  19
TORSDOF 7
ENDMDL
MODEL 5
REMARK VINA RESULT:      -9.0      2.860     11.394
REMARK  7 active torsions:
REMARK  status: ('A' for Active; 'I' for Inactive)
REMARK    1  A    between atoms: O_2  and  C_3 
REMARK    2  A    between atoms: C_6  and  C_7 
REMARK    3  A    between atoms: C_11  and  C_12 
REMARK       I    between atoms: C_12  and  N_13 
REMARK    4  A    between atoms: N_13  and  N_14 
REMARK       I    between atoms: N_14  and  C_15 
REMARK    5  A    between atoms: C_15  and  C_16 
REMARK    6  A    between atoms: C_16  and  C_17 
REMARK    7  A    between atoms: C_17  and  C_18 
ROOT
HETATM    1  C   UNL     1      24.801  47.602  49.937  1.00  0.00     0.288 C 
HETATM    2  N   UNL     1      24.796  46.616  50.899  1.00  0.00    -0.262 N 
HETATM    3  O   UNL     1      25.840  48.119  49.535  1.00  0.00    -0.264 OA
HETATM    4  H   UNL     1      23.952  46.154  51.231  1.00  0.00     0.190 HD
ENDROOT
BRANCH   1   5
HETATM    5  C   UNL     1      23.502  47.977  49.449  1.00  0.00     0.121 A 
HETATM    6  N   UNL     1      22.529  47.055  49.180  1.00  0.00    -0.272 N 
HETATM    7  N   UNL     1      21.388  47.581  48.710  1.00  0.00    -0.174 NA
HETATM    8  H   UNL     1      22.597  46.048  49.287  1.00  0.00     0.189 HD
HETATM    9  C   UNL     1      21.603  48.906  48.695  1.00  0.00     0.089 A 
HETATM   10  C   UNL     1      22.921  49.193  49.148  1.00  0.00     0.071 A 
BRANCH   9  11
HETATM   11  C   UNL     1      20.585  49.858  48.242  1.00  0.00    -0.005 A 
HETATM   12  C   UNL     1      19.710  49.536  47.197  1.00  0.00     0.016 A 
HETATM   13  C   UNL     1      18.722  50.441  46.793  1.00  0.00     0.037 A 
HETATM   14  C   UNL     1      18.584  51.676  47.427  1.00  0.00     0.068 A 
HETATM   15  C   UNL     1      19.462  52.013  48.456  1.00  0.00     0.037 A 
HETATM   16  C   UNL     1      20.456  51.111  48.857  1.00  0.00     0.016 A 
BRANCH  14  17
HETATM   17  O   UNL     1      17.568  52.455  46.945  1.00  0.00    -0.356 OA
HETATM   18  C   UNL     1      16.244  52.019  47.222  1.00  0.00     0.210 C 
ENDBRANCH  14  17
ENDBRANCH   9  11
ENDBRANCH   1   5
BRANCH   2  19
HETATM   19  N   UNL     1      26.000  46.136  51.417  1.00  0.00    -0.267 N 
HETATM   20  C   UNL     1      25.966  44.938  52.099  1.00  0.00     0.236 C 
HETATM   21  O   UNL     1      24.917  44.327  52.293  1.00  0.00    -0.272 OA
HETATM   22  H   UNL     1      26.852  46.634  51.164  1.00  0.00     0.190 HD
BRANCH  20  23
HETATM   23  C   UNL     1      27.325  44.461  52.554  1.00  0.00     0.109 C 
BRANCH  23  24
HETATM   24  C   UNL     1      27.264  43.917  53.980  1.00  0.00     0.049 C 
BRANCH  24  25
HETATM   25  C   UNL     1      28.562  44.120  54.727  1.00  0.00    -0.036 A 
HETATM   26  C   UNL     1      28.888  45.320  55.378  1.00  0.00     0.040 A 
HETATM   27 CL   UNL     1      27.821  46.678  55.379  1.00  0.00    -0.084 Cl
HETATM   28  C   UNL     1      30.106  45.454  56.053  1.00  0.00     0.024 A 
HETATM   29  C   UNL     1      31.012  44.396  56.084  1.00  0.00     0.002 A 
HETATM   30  C   UNL     1      30.706  43.202  55.436  1.00  0.00     0.001 A 
HETATM   31  C   UNL     1      29.492  43.065  54.760  1.00  0.00     0.009 A 
ENDBRANCH  24  25
ENDBRANCH  23  24
ENDBRANCH  20  23
ENDBRANCH   2  19
TORSDOF 7
ENDMDL
MODEL 6
REMARK VINA RESULT:      -8.6      2.081      2.946
REMARK  7 active torsions:
REMARK  status: ('A' for Active; 'I' for Inactive)
REMARK    1  A    between atoms: O_2  and  C_3 
REMARK    2  A    between atoms: C_6  and  C_7 
REMARK    3  A    between atoms: C_11  and  C_12 
REMARK       I    between atoms: C_12  and  N_13 
REMARK    4  A    between atoms: N_13  and  N_14 
REMARK       I    between atoms: N_14  and  C_15 
REMARK    5  A    between atoms: C_15  and  C_16 
REMARK    6  A    between atoms: C_16  and  C_17 
REMARK    7  A    between atoms: C_17  and  C_18 
ROOT
HETATM    1  C   UNL     1      24.084  47.938  49.603  1.00  0.00     0.288 C 
HETATM    2  N   UNL     1      22.778  48.280  49.877  1.00  0.00    -0.262 N 
HETATM    3  O   UNL     1      24.659  48.311  48.584  1.00  0.00    -0.264 OA
HETATM    4  H   UNL     1      22.287  48.005  50.725  1.00  0.00     0.190 HD
ENDROOT
BRANCH   1   5
HETATM    5  C   UNL     1      24.713  47.112  50.598  1.00  0.00     0.121 A 
HETATM    6  N   UNL     1      24.290  45.842  50.866  1.00  0.00    -0.272 N 
HETATM    7  N   UNL     1      24.977  45.226  51.841  1.00  0.00    -0.174 NA
HETATM    8  H   UNL     1      23.523  45.348  50.421  1.00  0.00     0.189 HD
HETATM    9  C   UNL     1      25.912  46.115  52.211  1.00  0.00     0.089 A 
HETATM   10  C   UNL     1      25.776  47.313  51.456  1.00  0.00     0.071 A 
BRANCH   9  11
HETATM   11  C   UNL     1      26.888  45.828  53.267  1.00  0.00    -0.005 A 
HETATM   12  C   UNL     1      27.548  44.594  53.325  1.00  0.00     0.016 A 
HETATM   13  C   UNL     1      28.499  44.343  54.319  1.00  0.00     0.037 A 
HETATM   14  C   UNL     1      28.815  45.317  55.267  1.00  0.00     0.068 A 
HETATM   15  C   UNL     1      28.150  46.542  55.229  1.00  0.00     0.037 A 
HETATM   16  C   UNL     1      27.193  46.793  54.237  1.00  0.00     0.016 A 
BRANCH  14  17
HETATM   17  O   UNL     1      29.773  44.947  56.169  1.00  0.00    -0.356 OA
HETATM   18  C   UNL     1      30.678  43.931  55.758  1.00  0.00     0.210 C 
ENDBRANCH  14  17
ENDBRANCH   9  11
ENDBRANCH   1   5
BRANCH   2  19
HETATM   19  N   UNL     1      22.076  49.116  49.007  1.00  0.00    -0.267 N 
HETATM   20  C   UNL     1      21.946  50.441  49.366  1.00  0.00     0.236 C 
HETATM   21  O   UNL     1      22.386  50.876  50.429  1.00  0.00    -0.272 OA
HETATM   22  H   UNL     1      21.801  48.732  48.104  1.00  0.00     0.190 HD
BRANCH  20  23
HETATM   23  C   UNL     1      21.241  51.284  48.329  1.00  0.00     0.109 C 
BRANCH  23  24
HETATM   24  C   UNL     1      19.936  51.852  48.882  1.00  0.00     0.049 C 
BRANCH  24  25
HETATM   25  C   UNL     1      18.723  51.288  48.180  1.00  0.00    -0.036 A 
HETATM   26  C   UNL     1      17.408  51.571  48.581  1.00  0.00     0.040 A 
HETATM   27 CL   UNL     1      17.065  52.599  49.926  1.00  0.00    -0.084 Cl
HETATM   28  C   UNL     1      16.321  51.020  47.894  1.00  0.00     0.024 A 
HETATM   29  C   UNL     1      16.532  50.178  46.803  1.00  0.00     0.002 A 
HETATM   30  C   UNL     1      17.831  49.882  46.399  1.00  0.00     0.001 A 
HETATM   31  C   UNL     1      18.918  50.430  47.082  1.00  0.00     0.009 A 
ENDBRANCH  24  25
ENDBRANCH  23  24
ENDBRANCH  20  23
ENDBRANCH   2  19
TORSDOF 7
ENDMDL
MODEL 7
REMARK VINA RESULT:      -8.6      3.139     11.451
REMARK  7 active torsions:
REMARK  status: ('A' for Active; 'I' for Inactive)
REMARK    1  A    between atoms: O_2  and  C_3 
REMARK    2  A    between atoms: C_6  and  C_7 
REMARK    3  A    between atoms: C_11  and  C_12 
REMARK       I    between atoms: C_12  and  N_13 
REMARK    4  A    between atoms: N_13  and  N_14 
REMARK       I    between atoms: N_14  and  C_15 
REMARK    5  A    between atoms: C_15  and  C_16 
REMARK    6  A    between atoms: C_16  and  C_17 
REMARK    7  A    between atoms: C_17  and  C_18 
ROOT
HETATM    1  C   UNL     1      24.315  48.069  49.682  1.00  0.00     0.288 C 
HETATM    2  N   UNL     1      24.266  46.921  50.441  1.00  0.00    -0.262 N 
HETATM    3  O   UNL     1      25.371  48.646  49.435  1.00  0.00    -0.264 OA
HETATM    4  H   UNL     1      23.408  46.410  50.640  1.00  0.00     0.190 HD
ENDROOT
BRANCH   1   5
HETATM    5  C   UNL     1      23.040  48.537  49.210  1.00  0.00     0.121 A 
HETATM    6  N   UNL     1      22.458  48.047  48.076  1.00  0.00    -0.272 N 
HETATM    7  N   UNL     1      21.280  48.615  47.772  1.00  0.00    -0.174 NA
HETATM    8  H   UNL     1      22.828  47.330  47.461  1.00  0.00     0.189 HD
HETATM    9  C   UNL     1      21.061  49.495  48.761  1.00  0.00     0.089 A 
HETATM   10  C   UNL     1      22.147  49.479  49.681  1.00  0.00     0.071 A 
BRANCH   9  11
HETATM   11  C   UNL     1      19.861  50.336  48.808  1.00  0.00    -0.005 A 
HETATM   12  C   UNL     1      19.939  51.717  48.591  1.00  0.00     0.016 A 
HETATM   13  C   UNL     1      18.784  52.505  48.607  1.00  0.00     0.037 A 
HETATM   14  C   UNL     1      17.531  51.931  48.831  1.00  0.00     0.068 A 
HETATM   15  C   UNL     1      17.446  50.560  49.066  1.00  0.00     0.037 A 
HETATM   16  C   UNL     1      18.603  49.770  49.056  1.00  0.00     0.016 A 
BRANCH  14  17
HETATM   17  O   UNL     1      16.486  52.812  48.803  1.00  0.00    -0.356 OA
HETATM   18  C   UNL     1      15.349  52.478  49.588  1.00  0.00     0.210 C 
ENDBRANCH  14  17
ENDBRANCH   9  11
ENDBRANCH   1   5
BRANCH   2  19
HETATM   19  N   UNL     1      25.444  46.345  50.918  1.00  0.00    -0.267 N 
HETATM   20  C   UNL     1      25.832  46.664  52.203  1.00  0.00     0.236 C 
HETATM   21  O   UNL     1      25.200  47.457  52.898  1.00  0.00    -0.272 OA
HETATM   22  H   UNL     1      25.889  45.635  50.339  1.00  0.00     0.190 HD
BRANCH  20  23
HETATM   23  C   UNL     1      27.074  45.935  52.659  1.00  0.00     0.109 C 
BRANCH  23  24
HETATM   24  C   UNL     1      26.926  45.455  54.102  1.00  0.00     0.049 C 
BRANCH  24  25
HETATM   25  C   UNL     1      28.234  44.963  54.678  1.00  0.00    -0.036 A 
HETATM   26  C   UNL     1      28.737  43.675  54.439  1.00  0.00     0.040 A 
HETATM   27 CL   UNL     1      27.892  42.532  53.456  1.00  0.00    -0.084 Cl
HETATM   28  C   UNL     1      29.953  43.271  55.000  1.00  0.00     0.024 A 
HETATM   29  C   UNL     1      30.679  44.145  55.807  1.00  0.00     0.002 A 
HETATM   30  C   UNL     1      30.189  45.423  56.060  1.00  0.00     0.001 A 
HETATM   31  C   UNL     1      28.975  45.829  55.502  1.00  0.00     0.009 A 
ENDBRANCH  24  25
ENDBRANCH  23  24
ENDBRANCH  20  23
ENDBRANCH   2  19
TORSDOF 7
ENDMDL
MODEL 8
REMARK VINA RESULT:      -8.5      6.960     10.740
REMARK  7 active torsions:
REMARK  status: ('A' for Active; 'I' for Inactive)
REMARK    1  A    between atoms: O_2  and  C_3 
REMARK    2  A    between atoms: C_6  and  C_7 
REMARK    3  A    between atoms: C_11  and  C_12 
REMARK       I    between atoms: C_12  and  N_13 
REMARK    4  A    between atoms: N_13  and  N_14 
REMARK       I    between atoms: N_14  and  C_15 
REMARK    5  A    between atoms: C_15  and  C_16 
REMARK    6  A    between atoms: C_16  and  C_17 
REMARK    7  A    between atoms: C_17  and  C_18 
ROOT
HETATM    1  C   UNL     1      28.089  40.906  51.722  1.00  0.00     0.288 C 
HETATM    2  N   UNL     1      27.162  41.867  52.061  1.00  0.00    -0.262 N 
HETATM    3  O   UNL     1      29.018  40.602  52.467  1.00  0.00    -0.264 OA
HETATM    4  H   UNL     1      26.369  42.120  51.474  1.00  0.00     0.190 HD
ENDROOT
BRANCH   1   5
HETATM    5  C   UNL     1      27.886  40.297  50.437  1.00  0.00     0.121 A 
HETATM    6  N   UNL     1      27.235  39.105  50.289  1.00  0.00    -0.272 N 
HETATM    7  N   UNL     1      27.158  38.673  49.021  1.00  0.00    -0.174 NA
HETATM    8  H   UNL     1      26.833  38.534  51.026  1.00  0.00     0.189 HD
HETATM    9  C   UNL     1      27.756  39.632  48.297  1.00  0.00     0.089 A 
HETATM   10  C   UNL     1      28.230  40.667  49.152  1.00  0.00     0.071 A 
BRANCH   9  11
HETATM   11  C   UNL     1      27.884  39.546  46.840  1.00  0.00    -0.005 A 
HETATM   12  C   UNL     1      27.875  38.308  46.186  1.00  0.00     0.016 A 
HETATM   13  C   UNL     1      27.967  38.240  44.792  1.00  0.00     0.037 A 
HETATM   14  C   UNL     1      28.062  39.402  44.025  1.00  0.00     0.068 A 
HETATM   15  C   UNL     1      28.090  40.638  44.668  1.00  0.00     0.037 A 
HETATM   16  C   UNL     1      28.004  40.708  46.065  1.00  0.00     0.016 A 
BRANCH  14  17
HETATM   17  O   UNL     1      28.128  39.192  42.675  1.00  0.00    -0.356 OA
HETATM   18  C   UNL     1      28.124  40.349  41.849  1.00  0.00     0.210 C 
ENDBRANCH  14  17
ENDBRANCH   9  11
ENDBRANCH   1   5
BRANCH   2  19
HETATM   19  N   UNL     1      27.229  42.498  53.304  1.00  0.00    -0.267 N 
HETATM   20  C   UNL     1      27.387  43.868  53.313  1.00  0.00     0.236 C 
HETATM   21  O   UNL     1      27.512  44.518  52.277  1.00  0.00    -0.272 OA
HETATM   22  H   UNL     1      27.040  41.932  54.130  1.00  0.00     0.190 HD
BRANCH  20  23
HETATM   23  C   UNL     1      27.370  44.470  54.698  1.00  0.00     0.109 C 
BRANCH  23  24
HETATM   24  C   UNL     1      28.467  45.523  54.850  1.00  0.00     0.049 C 
BRANCH  24  25
HETATM   25  C   UNL     1      29.439  45.183  55.955  1.00  0.00    -0.036 A 
HETATM   26  C   UNL     1      30.407  44.173  55.836  1.00  0.00     0.040 A 
HETATM   27 CL   UNL     1      30.567  43.226  54.400  1.00  0.00    -0.084 Cl
HETATM   28  C   UNL     1      31.281  43.898  56.892  1.00  0.00     0.024 A 
HETATM   29  C   UNL     1      31.200  44.624  58.080  1.00  0.00     0.002 A 
HETATM   30  C   UNL     1      30.240  45.623  58.215  1.00  0.00     0.001 A 
HETATM   31  C   UNL     1      29.364  45.899  57.163  1.00  0.00     0.009 A 
ENDBRANCH  24  25
ENDBRANCH  23  24
ENDBRANCH  20  23
ENDBRANCH   2  19
TORSDOF 7
ENDMDL
MODEL 9
REMARK VINA RESULT:      -8.3      3.350     11.207
REMARK  7 active torsions:
REMARK  status: ('A' for Active; 'I' for Inactive)
REMARK    1  A    between atoms: O_2  and  C_3 
REMARK    2  A    between atoms: C_6  and  C_7 
REMARK    3  A    between atoms: C_11  and  C_12 
REMARK       I    between atoms: C_12  and  N_13 
REMARK    4  A    between atoms: N_13  and  N_14 
REMARK       I    between atoms: N_14  and  C_15 
REMARK    5  A    between atoms: C_15  and  C_16 
REMARK    6  A    between atoms: C_16  and  C_17 
REMARK    7  A    between atoms: C_17  and  C_18 
ROOT
HETATM    1  C   UNL     1      24.912  45.627  50.056  1.00  0.00     0.288 C 
HETATM    2  N   UNL     1      24.927  45.674  51.432  1.00  0.00    -0.262 N 
HETATM    3  O   UNL     1      25.861  45.198  49.405  1.00  0.00    -0.264 OA
HETATM    4  H   UNL     1      24.145  46.000  51.996  1.00  0.00     0.190 HD
ENDROOT
BRANCH   1   5
HETATM    5  C   UNL     1      23.706  46.119  49.447  1.00  0.00     0.121 A 
HETATM    6  N   UNL     1      22.649  45.304  49.159  1.00  0.00    -0.272 N 
HETATM    7  N   UNL     1      21.617  45.929  48.571  1.00  0.00    -0.174 NA
HETATM    8  H   UNL     1      22.584  44.306  49.330  1.00  0.00     0.189 HD
HETATM    9  C   UNL     1      21.994  47.214  48.495  1.00  0.00     0.089 A 
HETATM   10  C   UNL     1      23.303  47.373  49.031  1.00  0.00     0.071 A 
BRANCH   9  11
HETATM   11  C   UNL     1      21.136  48.248  47.909  1.00  0.00    -0.005 A 
HETATM   12  C   UNL     1      20.039  47.906  47.108  1.00  0.00     0.016 A 
HETATM   13  C   UNL     1      19.209  48.900  46.580  1.00  0.00     0.037 A 
HETATM   14  C   UNL     1      19.451  50.248  46.844  1.00  0.00     0.068 A 
HETATM   15  C   UNL     1      20.552  50.599  47.625  1.00  0.00     0.037 A 
HETATM   16  C   UNL     1      21.388  49.605  48.150  1.00  0.00     0.016 A 
BRANCH  14  17
HETATM   17  O   UNL     1      18.554  51.112  46.281  1.00  0.00    -0.356 OA
HETATM   18  C   UNL     1      17.798  51.920  47.174  1.00  0.00     0.210 C 
ENDBRANCH  14  17
ENDBRANCH   9  11
ENDBRANCH   1   5
BRANCH   2  19
HETATM   19  N   UNL     1      26.026  45.181  52.138  1.00  0.00    -0.267 N 
HETATM   20  C   UNL     1      25.773  44.473  53.294  1.00  0.00     0.236 C 
HETATM   21  O   UNL     1      24.633  44.311  53.724  1.00  0.00    -0.272 OA
HETATM   22  H   UNL     1      26.943  45.270  51.703  1.00  0.00     0.190 HD
BRANCH  20  23
HETATM   23  C   UNL     1      27.015  43.914  53.946  1.00  0.00     0.109 C 
BRANCH  23  24
HETATM   24  C   UNL     1      28.152  44.933  53.920  1.00  0.00     0.049 C 
BRANCH  24  25
HETATM   25  C   UNL     1      29.210  44.639  54.958  1.00  0.00    -0.036 A 
HETATM   26  C   UNL     1      30.124  43.581  54.837  1.00  0.00     0.040 A 
HETATM   27 CL   UNL     1      30.115  42.516  53.477  1.00  0.00    -0.084 Cl
HETATM   28  C   UNL     1      31.082  43.352  55.831  1.00  0.00     0.024 A 
HETATM   29  C   UNL     1      31.138  44.173  56.956  1.00  0.00     0.002 A 
HETATM   30  C   UNL     1      30.232  45.222  57.093  1.00  0.00     0.001 A 
HETATM   31  C   UNL     1      29.274  45.452  56.104  1.00  0.00     0.009 A 
ENDBRANCH  24  25
ENDBRANCH  23  24
ENDBRANCH  20  23
ENDBRANCH   2  19
TORSDOF 7
ENDMDL
MODEL 10
REMARK VINA RESULT:      -8.2      3.595     10.906
REMARK  7 active torsions:
REMARK  status: ('A' for Active; 'I' for Inactive)
REMARK    1  A    between atoms: O_2  and  C_3 
REMARK    2  A    between atoms: C_6  and  C_7 
REMARK    3  A    between atoms: C_11  and  C_12 
REMARK       I    between atoms: C_12  and  N_13 
REMARK    4  A    between atoms: N_13  and  N_14 
REMARK       I    between atoms: N_14  and  C_15 
REMARK    5  A    between atoms: C_15  and  C_16 
REMARK    6  A    between atoms: C_16  and  C_17 
REMARK    7  A    between atoms: C_17  and  C_18 
ROOT
HETATM    1  C   UNL     1      26.019  44.294  51.914  1.00  0.00     0.288 C 
HETATM    2  N   UNL     1      26.126  43.067  52.531  1.00  0.00    -0.262 N 
HETATM    3  O   UNL     1      26.712  45.254  52.240  1.00  0.00    -0.264 OA
HETATM    4  H   UNL     1      25.582  42.249  52.263  1.00  0.00     0.190 HD
ENDROOT
BRANCH   1   5
HETATM    5  C   UNL     1      25.036  44.360  50.868  1.00  0.00     0.121 A 
HETATM    6  N   UNL     1      24.746  43.290  50.069  1.00  0.00    -0.272 N 
HETATM    7  N   UNL     1      23.821  43.539  49.129  1.00  0.00    -0.174 NA
HETATM    8  H   UNL     1      25.163  42.366  50.113  1.00  0.00     0.189 HD
HETATM    9  C   UNL     1      23.461  44.816  49.334  1.00  0.00     0.089 A 
HETATM   10  C   UNL     1      24.206  45.367  50.414  1.00  0.00     0.071 A 
BRANCH   9  11
HETATM   11  C   UNL     1      22.454  45.486  48.507  1.00  0.00    -0.005 A 
HETATM   12  C   UNL     1      22.473  46.875  48.330  1.00  0.00     0.016 A 
HETATM   13  C   UNL     1      21.525  47.501  47.514  1.00  0.00     0.037 A 
HETATM   14  C   UNL     1      20.548  46.755  46.855  1.00  0.00     0.068 A 
HETATM   15  C   UNL     1      20.509  45.373  47.039  1.00  0.00     0.037 A 
HETATM   16  C   UNL     1      21.454  44.746  47.861  1.00  0.00     0.016 A 
BRANCH  14  17
HETATM   17  O   UNL     1      19.696  47.489  46.076  1.00  0.00    -0.356 OA
HETATM   18  C   UNL     1      19.349  46.937  44.813  1.00  0.00     0.210 C 
ENDBRANCH  14  17
ENDBRANCH   9  11
ENDBRANCH   1   5
BRANCH   2  19
HETATM   19  N   UNL     1      27.078  42.867  53.532  1.00  0.00    -0.267 N 
HETATM   20  C   UNL     1      28.244  42.220  53.179  1.00  0.00     0.236 C 
HETATM   21  O   UNL     1      28.434  41.789  52.043  1.00  0.00    -0.272 OA
HETATM   22  H   UNL     1      26.912  43.310  54.434  1.00  0.00     0.190 HD
BRANCH  20  23
HETATM   23  C   UNL     1      29.245  42.119  54.306  1.00  0.00     0.109 C 
BRANCH  23  24
HETATM   24  C   UNL     1      30.254  43.264  54.244  1.00  0.00     0.049 C 
BRANCH  24  25
HETATM   25  C   UNL     1      30.443  43.933  55.586  1.00  0.00    -0.036 A 
HETATM   26  C   UNL     1      29.769  45.108  55.954  1.00  0.00     0.040 A 
HETATM   27 CL   UNL     1      28.655  45.893  54.892  1.00  0.00    -0.084 Cl
HETATM   28  C   UNL     1      29.983  45.687  57.209  1.00  0.00     0.024 A 
HETATM   29  C   UNL     1      30.874  45.104  58.109  1.00  0.00     0.002 A 
HETATM   30  C   UNL     1      31.556  43.943  57.755  1.00  0.00     0.001 A 
HETATM   31  C   UNL     1      31.345  43.363  56.502  1.00  0.00     0.009 A 
ENDBRANCH  24  25
ENDBRANCH  23  24
ENDBRANCH  20  23
ENDBRANCH   2  19
TORSDOF 7
ENDMDL
