MODEL 1
REMARK VINA RESULT:      -9.0      0.000      0.000
REMARK  8 active torsions:
REMARK  status: ('A' for Active; 'I' for Inactive)
REMARK    1  A    between atoms: C_2  and  O_3 
REMARK    2  A    between atoms: C_2  and  C_4 
REMARK    3  A    between atoms: C_4  and  N_5 
REMARK       I    between atoms: N_5  and  C_6 
REMARK    4  A    between atoms: C_6  and  C_7 
REMARK    5  A    between atoms: C_10  and  O_11 
REMARK    6  A    between atoms: O_11  and  C_12 
REMARK    7  A    between atoms: C_15  and  O_16 
REMARK    8  A    between atoms: O_16  and  C_17 
ROOT
HETATM    1  C   UNL     1      24.686  46.981  50.314  1.00  0.00     0.049 A 
HETATM    2  C   UNL     1      24.834  45.863  49.502  1.00  0.00     0.136 A 
HETATM    3  N   UNL     1      25.225  44.646  49.952  1.00  0.00    -0.236 NA
HETATM    4  C   UNL     1      25.494  44.543  51.272  1.00  0.00     0.169 A 
HETATM    5  C   UNL     1      25.428  45.612  52.154  1.00  0.00     0.059 A 
HETATM    6  C   UNL     1      25.011  46.852  51.667  1.00  0.00     0.023 A 
ENDROOT
BRANCH   4   7
HETATM    7  O   UNL     1      25.908  43.326  51.797  1.00  0.00    -0.292 OA
BRANCH   7   8
HETATM    8  C   UNL     1      27.101  43.311  52.483  1.00  0.00     0.078 A 
HETATM    9  C   UNL     1      27.047  43.022  53.847  1.00  0.00     0.040 A 
HETATM   10  C   UNL     1      28.227  42.950  54.595  1.00  0.00     0.040 A 
HETATM   11  C   UNL     1      29.459  43.133  53.963  1.00  0.00     0.076 A 
HETATM   12  C   UNL     1      29.515  43.416  52.598  1.00  0.00     0.040 A 
HETATM   13  C   UNL     1      28.337  43.488  51.852  1.00  0.00     0.040 A 
BRANCH  11  14
HETATM   14  O   UNL     1      30.655  43.137  54.642  1.00  0.00    -0.311 OA
BRANCH  14  15
HETATM   15  C   UNL     1      30.731  43.818  55.835  1.00  0.00     0.076 A 
HETATM   16  C   UNL     1      31.512  43.403  56.917  1.00  0.00     0.037 A 
HETATM   17  C   UNL     1      31.570  44.186  58.072  1.00  0.00     0.003 A 
HETATM   18  C   UNL     1      30.866  45.388  58.139  1.00  0.00     0.000 A 
HETATM   19  C   UNL     1      30.105  45.813  57.050  1.00  0.00     0.003 A 
HETATM   20  C   UNL     1      30.043  45.030  55.897  1.00  0.00     0.037 A 
ENDBRANCH  14  15
ENDBRANCH  11  14
ENDBRANCH   7   8
ENDBRANCH   4   7
BRANCH   1  21
HETATM   21  C   UNL     1      24.203  48.240  49.701  1.00  0.00     0.253 C 
HETATM   22  N   UNL     1      22.838  48.407  49.614  1.00  0.00    -0.354 N 
HETATM   23  H   UNL     1      22.207  47.652  49.845  1.00  0.00     0.162 HD
HETATM   24  O   UNL     1      25.005  49.055  49.260  1.00  0.00    -0.268 OA
BRANCH  22  25
HETATM   25  C   UNL     1      22.260  49.579  48.967  1.00  0.00     0.154 C 
BRANCH  25  26
HETATM   26  C   UNL     1      21.278  50.323  49.885  1.00  0.00     0.132 C 
HETATM   27  C   UNL     1      20.496  51.377  49.118  1.00  0.00     0.041 C 
BRANCH  26  28
HETATM   28  O   UNL     1      22.008  50.982  50.925  1.00  0.00    -0.394 OA
HETATM   29  H   UNL     1      21.631  51.877  50.988  1.00  0.00     0.210 HD
ENDBRANCH  26  28
ENDBRANCH  25  26
ENDBRANCH  22  25
ENDBRANCH   1  21
TORSDOF 8
ENDMDL
MODEL 2
REMARK VINA RESULT:      -8.5      2.054      3.823
REMARK  8 active torsions:
REMARK  status: ('A' for Active; 'I' for Inactive)
REMARK    1  A    between atoms: C_2  and  O_3 
REMARK    2  A    between atoms: C_2  and  C_4 
REMARK    3  A    between atoms: C_4  and  N_5 
REMARK       I    between atoms: N_5  and  C_6 
REMARK    4  A    between atoms: C_6  and  C_7 
REMARK    5  A    between atoms: C_10  and  O_11 
REMARK    6  A    between atoms: O_11  and  C_12 
REMARK    7  A    between atoms: C_15  and  O_16 
REMARK    8  A    between atoms: O_16  and  C_17 
ROOT
HETATM    1  C   UNL     1      21.959  48.826  49.142  1.00  0.00     0.049 A 
HETATM    2  C   UNL     1      23.012  49.688  49.428  1.00  0.00     0.136 A 
HETATM    3  N   UNL     1      24.302  49.292  49.551  1.00  0.00    -0.236 NA
HETATM    4  C   UNL     1      24.552  47.974  49.393  1.00  0.00     0.169 A 
HETATM    5  C   UNL     1      23.564  47.028  49.159  1.00  0.00     0.059 A 
HETATM    6  C   UNL     1      22.244  47.463  49.025  1.00  0.00     0.023 A 
ENDROOT
BRANCH   4   7
HETATM    7  O   UNL     1      25.852  47.500  49.514  1.00  0.00    -0.292 OA
BRANCH   7   8
HETATM    8  C   UNL     1      26.116  46.655  50.568  1.00  0.00     0.078 A 
HETATM    9  C   UNL     1      25.726  47.082  51.839  1.00  0.00     0.040 A 
HETATM   10  C   UNL     1      25.927  46.254  52.948  1.00  0.00     0.040 A 
HETATM   11  C   UNL     1      26.486  44.986  52.773  1.00  0.00     0.076 A 
HETATM   12  C   UNL     1      26.870  44.556  51.502  1.00  0.00     0.040 A 
HETATM   13  C   UNL     1      26.670  45.383  50.396  1.00  0.00     0.040 A 
BRANCH  11  14
HETATM   14  O   UNL     1      26.770  44.142  53.821  1.00  0.00    -0.311 OA
BRANCH  14  15
HETATM   15  C   UNL     1      28.018  44.207  54.397  1.00  0.00     0.076 A 
HETATM   16  C   UNL     1      28.432  45.246  55.234  1.00  0.00     0.037 A 
HETATM   17  C   UNL     1      29.701  45.203  55.818  1.00  0.00     0.003 A 
HETATM   18  C   UNL     1      30.543  44.116  55.583  1.00  0.00     0.000 A 
HETATM   19  C   UNL     1      30.119  43.069  54.765  1.00  0.00     0.003 A 
HETATM   20  C   UNL     1      28.856  43.112  54.178  1.00  0.00     0.037 A 
ENDBRANCH  14  15
ENDBRANCH  11  14
ENDBRANCH   7   8
ENDBRANCH   4   7
BRANCH   1  21
HETATM   21  C   UNL     1      20.602  49.398  48.986  1.00  0.00     0.253 C 
HETATM   22  N   UNL     1      20.028  49.958  50.106  1.00  0.00    -0.354 N 
HETATM   23  H   UNL     1      20.465  49.869  51.013  1.00  0.00     0.162 HD
HETATM   24  O   UNL     1      20.023  49.320  47.908  1.00  0.00    -0.268 OA
BRANCH  22  25
HETATM   25  C   UNL     1      18.670  50.487  50.076  1.00  0.00     0.154 C 
BRANCH  25  26
HETATM   26  C   UNL     1      18.644  52.008  49.865  1.00  0.00     0.132 C 
HETATM   27  C   UNL     1      17.219  52.540  49.851  1.00  0.00     0.041 C 
BRANCH  26  28
HETATM   28  O   UNL     1      19.246  52.323  48.605  1.00  0.00    -0.394 OA
HETATM   29  H   UNL     1      19.608  51.485  48.268  1.00  0.00     0.210 HD
ENDBRANCH  26  28
ENDBRANCH  25  26
ENDBRANCH  22  25
ENDBRANCH   1  21
TORSDOF 8
ENDMDL
MODEL 3
REMARK VINA RESULT:      -8.4      2.772      4.792
REMARK  8 active torsions:
REMARK  status: ('A' for Active; 'I' for Inactive)
REMARK    1  A    between atoms: C_2  and  O_3 
REMARK    2  A    between atoms: C_2  and  C_4 
REMARK    3  A    between atoms: C_4  and  N_5 
REMARK       I    between atoms: N_5  and  C_6 
REMARK    4  A    between atoms: C_6  and  C_7 
REMARK    5  A    between atoms: C_10  and  O_11 
REMARK    6  A    between atoms: O_11  and  C_12 
REMARK    7  A    between atoms: C_15  and  O_16 
REMARK    8  A    between atoms: O_16  and  C_17 
ROOT
HETATM    1  C   UNL     1      21.380  48.720  48.734  1.00  0.00     0.049 A 
HETATM    2  C   UNL     1      22.168  49.721  49.293  1.00  0.00     0.136 A 
HETATM    3  N   UNL     1      23.485  49.577  49.579  1.00  0.00    -0.236 NA
HETATM    4  C   UNL     1      24.039  48.376  49.307  1.00  0.00     0.169 A 
HETATM    5  C   UNL     1      23.326  47.299  48.800  1.00  0.00     0.059 A 
HETATM    6  C   UNL     1      21.973  47.476  48.502  1.00  0.00     0.023 A 
ENDROOT
BRANCH   4   7
HETATM    7  O   UNL     1      25.382  48.159  49.584  1.00  0.00    -0.292 OA
BRANCH   7   8
HETATM    8  C   UNL     1      25.698  47.044  50.326  1.00  0.00     0.078 A 
HETATM    9  C   UNL     1      26.525  46.093  49.724  1.00  0.00     0.040 A 
HETATM   10  C   UNL     1      26.919  44.956  50.438  1.00  0.00     0.040 A 
HETATM   11  C   UNL     1      26.512  44.796  51.764  1.00  0.00     0.076 A 
HETATM   12  C   UNL     1      25.691  45.749  52.368  1.00  0.00     0.040 A 
HETATM   13  C   UNL     1      25.297  46.883  51.656  1.00  0.00     0.040 A 
BRANCH  11  14
HETATM   14  O   UNL     1      26.808  43.678  52.508  1.00  0.00    -0.311 OA
BRANCH  14  15
HETATM   15  C   UNL     1      28.015  43.629  53.167  1.00  0.00     0.076 A 
HETATM   16  C   UNL     1      28.239  44.207  54.421  1.00  0.00     0.037 A 
HETATM   17  C   UNL     1      29.482  44.062  55.040  1.00  0.00     0.003 A 
HETATM   18  C   UNL     1      30.492  43.327  54.419  1.00  0.00     0.000 A 
HETATM   19  C   UNL     1      30.261  42.732  53.179  1.00  0.00     0.003 A 
HETATM   20  C   UNL     1      29.021  42.879  52.557  1.00  0.00     0.037 A 
ENDBRANCH  14  15
ENDBRANCH  11  14
ENDBRANCH   7   8
ENDBRANCH   4   7
BRANCH   1  21
HETATM   21  C   UNL     1      19.965  49.026  48.425  1.00  0.00     0.253 C 
HETATM   22  N   UNL     1      19.011  48.463  49.246  1.00  0.00    -0.354 N 
HETATM   23  H   UNL     1      19.267  47.778  49.944  1.00  0.00     0.162 HD
HETATM   24  O   UNL     1      19.683  49.714  47.450  1.00  0.00    -0.268 OA
BRANCH  22  25
HETATM   25  C   UNL     1      17.589  48.645  48.988  1.00  0.00     0.154 C 
BRANCH  25  26
HETATM   26  C   UNL     1      16.859  47.308  48.785  1.00  0.00     0.132 C 
HETATM   27  C   UNL     1      17.764  46.280  48.125  1.00  0.00     0.041 C 
BRANCH  26  28
HETATM   28  O   UNL     1      15.725  47.510  47.936  1.00  0.00    -0.394 OA
HETATM   29  H   UNL     1      15.273  48.299  48.282  1.00  0.00     0.210 HD
ENDBRANCH  26  28
ENDBRANCH  25  26
ENDBRANCH  22  25
ENDBRANCH   1  21
TORSDOF 8
ENDMDL
MODEL 4
REMARK VINA RESULT:      -8.4      2.103      3.925
REMARK  8 active torsions:
REMARK  status: ('A' for Active; 'I' for Inactive)
REMARK    1  A    between atoms: C_2  and  O_3 
REMARK    2  A    between atoms: C_2  and  C_4 
REMARK    3  A    between atoms: C_4  and  N_5 
REMARK       I    between atoms: N_5  and  C_6 
REMARK    4  A    between atoms: C_6  and  C_7 
REMARK    5  A    between atoms: C_10  and  O_11 
REMARK    6  A    between atoms: O_11  and  C_12 
REMARK    7  A    between atoms: C_15  and  O_16 
REMARK    8  A    between atoms: O_16  and  C_17 
ROOT
HETATM    1  C   UNL     1      21.715  48.336  48.740  1.00  0.00     0.049 A 
HETATM    2  C   UNL     1      22.496  49.373  49.239  1.00  0.00     0.136 A 
HETATM    3  N   UNL     1      23.790  49.233  49.616  1.00  0.00    -0.236 NA
HETATM    4  C   UNL     1      24.327  47.998  49.502  1.00  0.00     0.169 A 
HETATM    5  C   UNL     1      23.615  46.889  49.068  1.00  0.00     0.059 A 
HETATM    6  C   UNL     1      22.287  47.063  48.673  1.00  0.00     0.023 A 
ENDROOT
BRANCH   4   7
HETATM    7  O   UNL     1      25.646  47.783  49.879  1.00  0.00    -0.292 OA
BRANCH   7   8
HETATM    8  C   UNL     1      25.870  46.883  50.896  1.00  0.00     0.078 A 
HETATM    9  C   UNL     1      26.604  45.738  50.582  1.00  0.00     0.040 A 
HETATM   10  C   UNL     1      26.904  44.804  51.578  1.00  0.00     0.040 A 
HETATM   11  C   UNL     1      26.496  45.039  52.893  1.00  0.00     0.076 A 
HETATM   12  C   UNL     1      25.767  46.186  53.209  1.00  0.00     0.040 A 
HETATM   13  C   UNL     1      25.467  47.118  52.215  1.00  0.00     0.040 A 
BRANCH  11  14
HETATM   14  O   UNL     1      26.700  44.138  53.913  1.00  0.00    -0.311 OA
BRANCH  14  15
HETATM   15  C   UNL     1      27.964  44.025  54.445  1.00  0.00     0.076 A 
HETATM   16  C   UNL     1      28.826  42.958  54.174  1.00  0.00     0.037 A 
HETATM   17  C   UNL     1      30.113  42.951  54.717  1.00  0.00     0.003 A 
HETATM   18  C   UNL     1      30.544  44.015  55.509  1.00  0.00     0.000 A 
HETATM   19  C   UNL     1      29.691  45.090  55.759  1.00  0.00     0.003 A 
HETATM   20  C   UNL     1      28.404  45.096  55.222  1.00  0.00     0.037 A 
ENDBRANCH  14  15
ENDBRANCH  11  14
ENDBRANCH   7   8
ENDBRANCH   4   7
BRANCH   1  21
HETATM   21  C   UNL     1      20.328  48.638  48.318  1.00  0.00     0.253 C 
HETATM   22  N   UNL     1      19.639  49.572  49.060  1.00  0.00    -0.354 N 
HETATM   23  H   UNL     1      20.024  49.937  49.921  1.00  0.00     0.162 HD
HETATM   24  O   UNL     1      19.828  48.033  47.376  1.00  0.00    -0.268 OA
BRANCH  22  25
HETATM   25  C   UNL     1      18.247  49.890  48.771  1.00  0.00     0.154 C 
BRANCH  25  26
HETATM   26  C   UNL     1      17.962  51.397  48.875  1.00  0.00     0.132 C 
HETATM   27  C   UNL     1      19.192  52.217  48.521  1.00  0.00     0.041 C 
BRANCH  26  28
HETATM   28  O   UNL     1      17.586  51.717  50.218  1.00  0.00    -0.394 OA
HETATM   29  H   UNL     1      18.405  51.995  50.663  1.00  0.00     0.210 HD
ENDBRANCH  26  28
ENDBRANCH  25  26
ENDBRANCH  22  25
ENDBRANCH   1  21
TORSDOF 8
ENDMDL
MODEL 5
REMARK VINA RESULT:      -8.0      2.576     11.192
REMARK  8 active torsions:
REMARK  status: ('A' for Active; 'I' for Inactive)
REMARK    1  A    between atoms: C_2  and  O_3 
REMARK    2  A    between atoms: C_2  and  C_4 
REMARK    3  A    between atoms: C_4  and  N_5 
REMARK       I    between atoms: N_5  and  C_6 
REMARK    4  A    between atoms: C_6  and  C_7 
REMARK    5  A    between atoms: C_10  and  O_11 
REMARK    6  A    between atoms: O_11  and  C_12 
REMARK    7  A    between atoms: C_15  and  O_16 
REMARK    8  A    between atoms: O_16  and  C_17 
ROOT
HETATM    1  C   UNL     1      24.884  45.674  51.564  1.00  0.00     0.049 A 
HETATM    2  C   UNL     1      25.090  47.043  51.436  1.00  0.00     0.136 A 
HETATM    3  N   UNL     1      24.603  47.790  50.416  1.00  0.00    -0.236 NA
HETATM    4  C   UNL     1      23.888  47.139  49.472  1.00  0.00     0.169 A 
HETATM    5  C   UNL     1      23.673  45.768  49.482  1.00  0.00     0.059 A 
HETATM    6  C   UNL     1      24.175  45.023  50.550  1.00  0.00     0.023 A 
ENDROOT
BRANCH   4   7
HETATM    7  O   UNL     1      23.368  47.844  48.395  1.00  0.00    -0.292 OA
BRANCH   7   8
HETATM    8  C   UNL     1      22.489  48.865  48.678  1.00  0.00     0.078 A 
HETATM    9  C   UNL     1      21.232  48.506  49.168  1.00  0.00     0.040 A 
HETATM   10  C   UNL     1      20.307  49.495  49.515  1.00  0.00     0.040 A 
HETATM   11  C   UNL     1      20.659  50.842  49.403  1.00  0.00     0.076 A 
HETATM   12  C   UNL     1      21.917  51.203  48.920  1.00  0.00     0.040 A 
HETATM   13  C   UNL     1      22.840  50.215  48.573  1.00  0.00     0.040 A 
BRANCH  11  14
HETATM   14  O   UNL     1      19.783  51.869  49.667  1.00  0.00    -0.311 OA
BRANCH  14  15
HETATM   15  C   UNL     1      18.580  51.894  48.999  1.00  0.00     0.076 A 
HETATM   16  C   UNL     1      18.467  51.964  47.608  1.00  0.00     0.037 A 
HETATM   17  C   UNL     1      17.205  51.931  47.012  1.00  0.00     0.003 A 
HETATM   18  C   UNL     1      16.061  51.808  47.800  1.00  0.00     0.000 A 
HETATM   19  C   UNL     1      16.176  51.716  49.187  1.00  0.00     0.003 A 
HETATM   20  C   UNL     1      17.436  51.753  49.785  1.00  0.00     0.037 A 
ENDBRANCH  14  15
ENDBRANCH  11  14
ENDBRANCH   7   8
ENDBRANCH   4   7
BRANCH   1  21
HETATM   21  C   UNL     1      25.431  44.986  52.756  1.00  0.00     0.253 C 
HETATM   22  N   UNL     1      26.724  45.295  53.116  1.00  0.00    -0.354 N 
HETATM   23  H   UNL     1      27.305  45.869  52.521  1.00  0.00     0.162 HD
HETATM   24  O   UNL     1      24.756  44.150  53.346  1.00  0.00    -0.268 OA
BRANCH  22  25
HETATM   25  C   UNL     1      27.379  44.624  54.232  1.00  0.00     0.154 C 
BRANCH  25  26
HETATM   26  C   UNL     1      28.121  43.353  53.791  1.00  0.00     0.132 C 
HETATM   27  C   UNL     1      28.704  43.510  52.396  1.00  0.00     0.041 C 
BRANCH  26  28
HETATM   28  O   UNL     1      27.205  42.253  53.768  1.00  0.00    -0.394 OA
HETATM   29  H   UNL     1      27.604  41.589  53.181  1.00  0.00     0.210 HD
ENDBRANCH  26  28
ENDBRANCH  25  26
ENDBRANCH  22  25
ENDBRANCH   1  21
TORSDOF 8
ENDMDL
MODEL 6
REMARK VINA RESULT:      -8.0      2.349      2.612
REMARK  8 active torsions:
REMARK  status: ('A' for Active; 'I' for Inactive)
REMARK    1  A    between atoms: C_2  and  O_3 
REMARK    2  A    between atoms: C_2  and  C_4 
REMARK    3  A    between atoms: C_4  and  N_5 
REMARK       I    between atoms: N_5  and  C_6 
REMARK    4  A    between atoms: C_6  and  C_7 
REMARK    5  A    between atoms: C_10  and  O_11 
REMARK    6  A    between atoms: O_11  and  C_12 
REMARK    7  A    between atoms: C_15  and  O_16 
REMARK    8  A    between atoms: O_16  and  C_17 
ROOT
HETATM    1  C   UNL     1      23.047  44.936  49.297  1.00  0.00     0.049 A 
HETATM    2  C   UNL     1      22.657  43.753  49.915  1.00  0.00     0.136 A 
HETATM    3  N   UNL     1      23.448  43.040  50.753  1.00  0.00    -0.236 NA
HETATM    4  C   UNL     1      24.691  43.522  50.974  1.00  0.00     0.169 A 
HETATM    5  C   UNL     1      25.191  44.662  50.363  1.00  0.00     0.059 A 
HETATM    6  C   UNL     1      24.352  45.386  49.514  1.00  0.00     0.023 A 
ENDROOT
BRANCH   4   7
HETATM    7  O   UNL     1      25.555  42.834  51.815  1.00  0.00    -0.292 OA
BRANCH   7   8
HETATM    8  C   UNL     1      26.423  43.586  52.574  1.00  0.00     0.078 A 
HETATM    9  C   UNL     1      25.880  44.294  53.648  1.00  0.00     0.040 A 
HETATM   10  C   UNL     1      26.712  45.045  54.485  1.00  0.00     0.040 A 
HETATM   11  C   UNL     1      28.091  45.053  54.263  1.00  0.00     0.076 A 
HETATM   12  C   UNL     1      28.636  44.340  53.194  1.00  0.00     0.040 A 
HETATM   13  C   UNL     1      27.805  43.592  52.359  1.00  0.00     0.040 A 
BRANCH  11  14
HETATM   14  O   UNL     1      28.964  45.813  55.005  1.00  0.00    -0.311 OA
BRANCH  14  15
HETATM   15  C   UNL     1      29.760  45.182  55.932  1.00  0.00     0.076 A 
HETATM   16  C   UNL     1      30.555  44.069  55.643  1.00  0.00     0.037 A 
HETATM   17  C   UNL     1      31.374  43.524  56.635  1.00  0.00     0.003 A 
HETATM   18  C   UNL     1      31.414  44.100  57.904  1.00  0.00     0.000 A 
HETATM   19  C   UNL     1      30.637  45.224  58.186  1.00  0.00     0.003 A 
HETATM   20  C   UNL     1      29.816  45.767  57.198  1.00  0.00     0.037 A 
ENDBRANCH  14  15
ENDBRANCH  11  14
ENDBRANCH   7   8
ENDBRANCH   4   7
BRANCH   1  21
HETATM   21  C   UNL     1      22.066  45.643  48.442  1.00  0.00     0.253 C 
HETATM   22  N   UNL     1      21.671  46.897  48.852  1.00  0.00    -0.354 N 
HETATM   23  H   UNL     1      21.947  47.259  49.755  1.00  0.00     0.162 HD
HETATM   24  O   UNL     1      21.609  45.092  47.447  1.00  0.00    -0.268 OA
BRANCH  22  25
HETATM   25  C   UNL     1      20.659  47.649  48.120  1.00  0.00     0.154 C 
BRANCH  25  26
HETATM   26  C   UNL     1      19.244  47.401  48.664  1.00  0.00     0.132 C 
HETATM   27  C   UNL     1      18.282  48.490  48.219  1.00  0.00     0.041 C 
BRANCH  26  28
HETATM   28  O   UNL     1      19.280  47.397  50.095  1.00  0.00    -0.394 OA
HETATM   29  H   UNL     1      18.489  47.886  50.381  1.00  0.00     0.210 HD
ENDBRANCH  26  28
ENDBRANCH  25  26
ENDBRANCH  22  25
ENDBRANCH   1  21
TORSDOF 8
ENDMDL
MODEL 7
REMARK VINA RESULT:      -7.7     16.103     18.647
REMARK  8 active torsions:
REMARK  status: ('A' for Active; 'I' for Inactive)
REMARK    1  A    between atoms: C_2  and  O_3 
REMARK    2  A    between atoms: C_2  and  C_4 
REMARK    3  A    between atoms: C_4  and  N_5 
REMARK       I    between atoms: N_5  and  C_6 
REMARK    4  A    between atoms: C_6  and  C_7 
REMARK    5  A    between atoms: C_10  and  O_11 
REMARK    6  A    between atoms: O_11  and  C_12 
REMARK    7  A    between atoms: C_15  and  O_16 
REMARK    8  A    between atoms: O_16  and  C_17 
ROOT
HETATM    1  C   UNL     1      37.989  44.609  63.631  1.00  0.00     0.049 A 
HETATM    2  C   UNL     1      37.059  43.576  63.651  1.00  0.00     0.136 A 
HETATM    3  N   UNL     1      37.340  42.298  63.297  1.00  0.00    -0.236 NA
HETATM    4  C   UNL     1      38.603  42.041  62.893  1.00  0.00     0.169 A 
HETATM    5  C   UNL     1      39.587  43.014  62.788  1.00  0.00     0.059 A 
HETATM    6  C   UNL     1      39.276  44.320  63.170  1.00  0.00     0.023 A 
ENDROOT
BRANCH   4   7
HETATM    7  O   UNL     1      38.954  40.754  62.509  1.00  0.00    -0.292 OA
BRANCH   7   8
HETATM    8  C   UNL     1      39.449  39.920  63.486  1.00  0.00     0.078 A 
HETATM    9  C   UNL     1      40.286  38.883  63.071  1.00  0.00     0.040 A 
HETATM   10  C   UNL     1      40.857  38.024  64.016  1.00  0.00     0.040 A 
HETATM   11  C   UNL     1      40.613  38.231  65.376  1.00  0.00     0.076 A 
HETATM   12  C   UNL     1      39.781  39.271  65.791  1.00  0.00     0.040 A 
HETATM   13  C   UNL     1      39.211  40.127  64.848  1.00  0.00     0.040 A 
BRANCH  11  14
HETATM   14  O   UNL     1      41.088  37.393  66.358  1.00  0.00    -0.311 OA
BRANCH  14  15
HETATM   15  C   UNL     1      40.632  36.095  66.391  1.00  0.00     0.076 A 
HETATM   16  C   UNL     1      39.308  35.746  66.668  1.00  0.00     0.037 A 
HETATM   17  C   UNL     1      38.921  34.404  66.628  1.00  0.00     0.003 A 
HETATM   18  C   UNL     1      39.849  33.418  66.292  1.00  0.00     0.000 A 
HETATM   19  C   UNL     1      41.165  33.770  65.994  1.00  0.00     0.003 A 
HETATM   20  C   UNL     1      41.554  35.109  66.038  1.00  0.00     0.037 A 
ENDBRANCH  14  15
ENDBRANCH  11  14
ENDBRANCH   7   8
ENDBRANCH   4   7
BRANCH   1  21
HETATM   21  C   UNL     1      37.564  45.951  64.091  1.00  0.00     0.253 C 
HETATM   22  N   UNL     1      38.529  46.750  64.664  1.00  0.00    -0.354 N 
HETATM   23  H   UNL     1      39.449  46.385  64.870  1.00  0.00     0.162 HD
HETATM   24  O   UNL     1      36.389  46.290  63.994  1.00  0.00    -0.268 OA
BRANCH  22  25
HETATM   25  C   UNL     1      38.200  48.060  65.211  1.00  0.00     0.154 C 
BRANCH  25  26
HETATM   26  C   UNL     1      39.394  49.026  65.161  1.00  0.00     0.132 C 
HETATM   27  C   UNL     1      39.028  50.386  65.734  1.00  0.00     0.041 C 
BRANCH  26  28
HETATM   28  O   UNL     1      39.798  49.212  63.801  1.00  0.00    -0.394 OA
HETATM   29  H   UNL     1      40.750  49.410  63.832  1.00  0.00     0.210 HD
ENDBRANCH  26  28
ENDBRANCH  25  26
ENDBRANCH  22  25
ENDBRANCH   1  21
TORSDOF 8
ENDMDL
MODEL 8
REMARK VINA RESULT:      -7.7      4.334      7.457
REMARK  8 active torsions:
REMARK  status: ('A' for Active; 'I' for Inactive)
REMARK    1  A    between atoms: C_2  and  O_3 
REMARK    2  A    between atoms: C_2  and  C_4 
REMARK    3  A    between atoms: C_4  and  N_5 
REMARK       I    between atoms: N_5  and  C_6 
REMARK    4  A    between atoms: C_6  and  C_7 
REMARK    5  A    between atoms: C_10  and  O_11 
REMARK    6  A    between atoms: O_11  and  C_12 
REMARK    7  A    between atoms: C_15  and  O_16 
REMARK    8  A    between atoms: O_16  and  C_17 
ROOT
HETATM    1  C   UNL     1      19.284  50.826  48.699  1.00  0.00     0.049 A 
HETATM    2  C   UNL     1      19.520  49.854  47.734  1.00  0.00     0.136 A 
HETATM    3  N   UNL     1      20.750  49.546  47.254  1.00  0.00    -0.236 NA
HETATM    4  C   UNL     1      21.791  50.249  47.752  1.00  0.00     0.169 A 
HETATM    5  C   UNL     1      21.652  51.274  48.677  1.00  0.00     0.059 A 
HETATM    6  C   UNL     1      20.377  51.563  49.164  1.00  0.00     0.023 A 
ENDROOT
BRANCH   4   7
HETATM    7  O   UNL     1      23.077  49.990  47.296  1.00  0.00    -0.292 OA
BRANCH   7   8
HETATM    8  C   UNL     1      23.935  49.356  48.166  1.00  0.00     0.078 A 
HETATM    9  C   UNL     1      23.432  48.262  48.872  1.00  0.00     0.040 A 
HETATM   10  C   UNL     1      24.263  47.547  49.741  1.00  0.00     0.040 A 
HETATM   11  C   UNL     1      25.605  47.911  49.871  1.00  0.00     0.076 A 
HETATM   12  C   UNL     1      26.110  49.001  49.161  1.00  0.00     0.040 A 
HETATM   13  C   UNL     1      25.281  49.715  48.295  1.00  0.00     0.040 A 
BRANCH  11  14
HETATM   14  O   UNL     1      26.466  47.296  50.749  1.00  0.00    -0.311 OA
BRANCH  14  15
HETATM   15  C   UNL     1      26.427  45.924  50.854  1.00  0.00     0.076 A 
HETATM   16  C   UNL     1      26.922  45.057  49.876  1.00  0.00     0.037 A 
HETATM   17  C   UNL     1      26.889  43.677  50.091  1.00  0.00     0.003 A 
HETATM   18  C   UNL     1      26.381  43.167  51.286  1.00  0.00     0.000 A 
HETATM   19  C   UNL     1      25.909  44.034  52.271  1.00  0.00     0.003 A 
HETATM   20  C   UNL     1      25.937  45.412  52.056  1.00  0.00     0.037 A 
ENDBRANCH  14  15
ENDBRANCH  11  14
ENDBRANCH   7   8
ENDBRANCH   4   7
BRANCH   1  21
HETATM   21  C   UNL     1      17.895  51.028  49.172  1.00  0.00     0.253 C 
HETATM   22  N   UNL     1      17.009  51.592  48.281  1.00  0.00    -0.354 N 
HETATM   23  H   UNL     1      17.327  51.960  47.395  1.00  0.00     0.162 HD
HETATM   24  O   UNL     1      17.591  50.740  50.324  1.00  0.00    -0.268 OA
BRANCH  22  25
HETATM   25  C   UNL     1      15.637  51.896  48.669  1.00  0.00     0.154 C 
BRANCH  25  26
HETATM   26  C   UNL     1      15.510  53.284  49.315  1.00  0.00     0.132 C 
HETATM   27  C   UNL     1      14.679  53.227  50.587  1.00  0.00     0.041 C 
BRANCH  26  28
HETATM   28  O   UNL     1      14.863  54.176  48.402  1.00  0.00    -0.394 OA
HETATM   29  H   UNL     1      14.135  53.667  48.005  1.00  0.00     0.210 HD
ENDBRANCH  26  28
ENDBRANCH  25  26
ENDBRANCH  22  25
ENDBRANCH   1  21
TORSDOF 8
ENDMDL
MODEL 9
REMARK VINA RESULT:      -7.7      7.363     14.344
REMARK  8 active torsions:
REMARK  status: ('A' for Active; 'I' for Inactive)
REMARK    1  A    between atoms: C_2  and  O_3 
REMARK    2  A    between atoms: C_2  and  C_4 
REMARK    3  A    between atoms: C_4  and  N_5 
REMARK       I    between atoms: N_5  and  C_6 
REMARK    4  A    between atoms: C_6  and  C_7 
REMARK    5  A    between atoms: C_10  and  O_11 
REMARK    6  A    between atoms: O_11  and  C_12 
REMARK    7  A    between atoms: C_15  and  O_16 
REMARK    8  A    between atoms: O_16  and  C_17 
ROOT
HETATM    1  C   UNL     1      20.100  51.164  49.505  1.00  0.00     0.049 A 
HETATM    2  C   UNL     1      19.228  50.515  50.372  1.00  0.00     0.136 A 
HETATM    3  N   UNL     1      17.879  50.639  50.324  1.00  0.00    -0.236 NA
HETATM    4  C   UNL     1      17.377  51.458  49.374  1.00  0.00     0.169 A 
HETATM    5  C   UNL     1      18.165  52.190  48.498  1.00  0.00     0.059 A 
HETATM    6  C   UNL     1      19.551  52.035  48.560  1.00  0.00     0.023 A 
ENDROOT
BRANCH   4   7
HETATM    7  O   UNL     1      16.004  51.636  49.276  1.00  0.00    -0.292 OA
BRANCH   7   8
HETATM    8  C   UNL     1      15.476  52.774  49.842  1.00  0.00     0.078 A 
HETATM    9  C   UNL     1      16.097  53.985  49.532  1.00  0.00     0.040 A 
HETATM   10  C   UNL     1      15.586  55.184  50.041  1.00  0.00     0.040 A 
HETATM   11  C   UNL     1      14.433  55.166  50.829  1.00  0.00     0.076 A 
HETATM   12  C   UNL     1      13.808  53.956  51.134  1.00  0.00     0.040 A 
HETATM   13  C   UNL     1      14.318  52.760  50.627  1.00  0.00     0.040 A 
BRANCH  11  14
HETATM   14  O   UNL     1      13.907  56.295  51.413  1.00  0.00    -0.311 OA
BRANCH  14  15
HETATM   15  C   UNL     1      14.587  56.867  52.464  1.00  0.00     0.076 A 
HETATM   16  C   UNL     1      15.313  56.135  53.408  1.00  0.00     0.037 A 
HETATM   17  C   UNL     1      16.017  56.804  54.412  1.00  0.00     0.003 A 
HETATM   18  C   UNL     1      16.012  58.198  54.461  1.00  0.00     0.000 A 
HETATM   19  C   UNL     1      15.306  58.928  53.505  1.00  0.00     0.003 A 
HETATM   20  C   UNL     1      14.599  58.262  52.504  1.00  0.00     0.037 A 
ENDBRANCH  14  15
ENDBRANCH  11  14
ENDBRANCH   7   8
ENDBRANCH   4   7
BRANCH   1  21
HETATM   21  C   UNL     1      21.551  50.902  49.635  1.00  0.00     0.253 C 
HETATM   22  N   UNL     1      22.206  50.446  48.512  1.00  0.00    -0.354 N 
HETATM   23  H   UNL     1      21.692  50.187  47.681  1.00  0.00     0.162 HD
HETATM   24  O   UNL     1      22.107  51.049  50.718  1.00  0.00    -0.268 OA
BRANCH  22  25
HETATM   25  C   UNL     1      23.620  50.093  48.552  1.00  0.00     0.154 C 
BRANCH  25  26
HETATM   26  C   UNL     1      23.839  48.613  48.902  1.00  0.00     0.132 C 
HETATM   27  C   UNL     1      22.703  47.748  48.379  1.00  0.00     0.041 C 
BRANCH  26  28
HETATM   28  O   UNL     1      23.893  48.464  50.324  1.00  0.00    -0.394 OA
HETATM   29  H   UNL     1      23.145  48.979  50.673  1.00  0.00     0.210 HD
ENDBRANCH  26  28
ENDBRANCH  25  26
ENDBRANCH  22  25
ENDBRANCH   1  21
TORSDOF 8
ENDMDL
MODEL 10
REMARK VINA RESULT:      -7.6      5.507      7.601
REMARK  8 active torsions:
REMARK  status: ('A' for Active; 'I' for Inactive)
REMARK    1  A    between atoms: C_2  and  O_3 
REMARK    2  A    between atoms: C_2  and  C_4 
REMARK    3  A    between atoms: C_4  and  N_5 
REMARK       I    between atoms: N_5  and  C_6 
REMARK    4  A    between atoms: C_6  and  C_7 
REMARK    5  A    between atoms: C_10  and  O_11 
REMARK    6  A    between atoms: O_11  and  C_12 
REMARK    7  A    between atoms: C_15  and  O_16 
REMARK    8  A    between atoms: O_16  and  C_17 
ROOT
HETATM    1  C   UNL     1      27.908  40.621  48.125  1.00  0.00     0.049 A 
HETATM    2  C   UNL     1      28.593  39.767  48.982  1.00  0.00     0.136 A 
HETATM    3  N   UNL     1      28.445  39.767  50.329  1.00  0.00    -0.236 NA
HETATM    4  C   UNL     1      27.583  40.668  50.847  1.00  0.00     0.169 A 
HETATM    5  C   UNL     1      26.893  41.597  50.081  1.00  0.00     0.059 A 
HETATM    6  C   UNL     1      27.054  41.569  48.694  1.00  0.00     0.023 A 
ENDROOT
BRANCH   4   7
HETATM    7  O   UNL     1      27.391  40.727  52.220  1.00  0.00    -0.292 OA
BRANCH   7   8
HETATM    8  C   UNL     1      27.900  41.823  52.879  1.00  0.00     0.078 A 
HETATM    9  C   UNL     1      29.232  42.156  52.624  1.00  0.00     0.040 A 
HETATM   10  C   UNL     1      29.800  43.283  53.228  1.00  0.00     0.040 A 
HETATM   11  C   UNL     1      29.019  44.090  54.058  1.00  0.00     0.076 A 
HETATM   12  C   UNL     1      27.687  43.761  54.309  1.00  0.00     0.040 A 
HETATM   13  C   UNL     1      27.120  42.637  53.707  1.00  0.00     0.040 A 
BRANCH  11  14
HETATM   14  O   UNL     1      29.523  45.177  54.734  1.00  0.00    -0.311 OA
BRANCH  14  15
HETATM   15  C   UNL     1      30.100  44.974  55.966  1.00  0.00     0.076 A 
HETATM   16  C   UNL     1      30.966  43.914  56.252  1.00  0.00     0.037 A 
HETATM   17  C   UNL     1      31.548  43.816  57.518  1.00  0.00     0.003 A 
HETATM   18  C   UNL     1      31.283  44.782  58.488  1.00  0.00     0.000 A 
HETATM   19  C   UNL     1      30.437  45.852  58.194  1.00  0.00     0.003 A 
HETATM   20  C   UNL     1      29.851  45.950  56.932  1.00  0.00     0.037 A 
ENDBRANCH  14  15
ENDBRANCH  11  14
ENDBRANCH   7   8
ENDBRANCH   4   7
BRANCH   1  21
HETATM   21  C   UNL     1      28.126  40.482  46.667  1.00  0.00     0.253 C 
HETATM   22  N   UNL     1      27.984  39.220  46.132  1.00  0.00    -0.354 N 
HETATM   23  H   UNL     1      27.859  38.414  46.729  1.00  0.00     0.162 HD
HETATM   24  O   UNL     1      28.463  41.455  46.001  1.00  0.00    -0.268 OA
BRANCH  22  25
HETATM   25  C   UNL     1      28.243  38.963  44.721  1.00  0.00     0.154 C 
BRANCH  25  26
HETATM   26  C   UNL     1      29.022  37.658  44.502  1.00  0.00     0.132 C 
HETATM   27  C   UNL     1      28.388  36.813  43.408  1.00  0.00     0.041 C 
BRANCH  26  28
HETATM   28  O   UNL     1      29.017  36.893  45.712  1.00  0.00    -0.394 OA
HETATM   29  H   UNL     1      29.951  36.710  45.913  1.00  0.00     0.210 HD
ENDBRANCH  26  28
ENDBRANCH  25  26
ENDBRANCH  22  25
ENDBRANCH   1  21
TORSDOF 8
ENDMDL
