MODEL 1
REMARK VINA RESULT:      -9.8      0.000      0.000
REMARK  5 active torsions:
REMARK  status: ('A' for Active; 'I' for Inactive)
REMARK    1  A    between atoms: C_4  and  O_5 
REMARK    2  A    between atoms: O_5  and  C_6 
REMARK    3  A    between atoms: C_6  and  C_7 
REMARK       I    between atoms: C_7  and  N_8 
REMARK    4  A    between atoms: N_8  and  C_9 
REMARK    5  A    between atoms: C_15  and  C_16 
ROOT
HETATM    1  C   UNL     1      26.085  45.512  52.994  1.00  0.00     0.137 A 
HETATM    2  N   UNL     1      26.479  44.258  53.388  1.00  0.00    -0.262 N 
HETATM    3  H   UNL     1      26.537  43.890  54.333  1.00  0.00     0.191 HD
HETATM    4  N   UNL     1      26.766  43.431  52.370  1.00  0.00    -0.177 NA
HETATM    5  C   UNL     1      26.506  44.159  51.277  1.00  0.00     0.065 A 
HETATM    6  C   UNL     1      26.729  43.577  49.930  1.00  0.00     0.073 C 
HETATM    7  C   UNL     1      26.047  45.464  51.611  1.00  0.00     0.046 A 
ENDROOT
BRANCH   1   8
HETATM    8  N   UNL     1      25.724  46.547  53.836  1.00  0.00    -0.309 N 
HETATM    9  C   UNL     1      26.493  47.238  54.732  1.00  0.00     0.247 C 
HETATM   10  O   UNL     1      25.944  48.070  55.462  1.00  0.00    -0.271 OA
HETATM   11  H   UNL     1      24.770  46.890  53.767  1.00  0.00     0.170 HD
BRANCH   9  12
HETATM   12  C   UNL     1      28.007  47.062  54.756  1.00  0.00     0.278 C 
BRANCH  12  13
HETATM   13  O   UNL     1      28.458  46.553  56.008  1.00  0.00    -0.342 OA
BRANCH  13  14
HETATM   14  C   UNL     1      29.287  45.465  55.887  1.00  0.00     0.075 A 
HETATM   15  C   UNL     1      29.281  44.654  54.747  1.00  0.00     0.044 A 
HETATM   16  C   UNL     1      30.127  43.540  54.662  1.00  0.00    -0.059 A 
HETATM   17  C   UNL     1      30.119  42.668  53.441  1.00  0.00     0.048 C 
HETATM   18  C   UNL     1      31.021  43.287  55.706  1.00  0.00     0.007 A 
HETATM   19  C   UNL     1      31.059  44.123  56.825  1.00  0.00     0.010 A 
HETATM   20  C   UNL     1      30.192  45.220  56.929  1.00  0.00    -0.029 A 
HETATM   21  C   UNL     1      30.261  46.120  58.129  1.00  0.00     0.051 C 
ENDBRANCH  13  14
ENDBRANCH  12  13
ENDBRANCH   9  12
ENDBRANCH   1   8
BRANCH   7  22
HETATM   22  C   UNL     1      25.688  46.577  50.748  1.00  0.00    -0.020 A 
HETATM   23  C   UNL     1      26.668  47.476  50.311  1.00  0.00     0.014 A 
HETATM   24  C   UNL     1      26.321  48.552  49.488  1.00  0.00     0.020 A 
HETATM   25  C   UNL     1      24.993  48.729  49.100  1.00  0.00     0.011 A 
HETATM   26 BR   UNL     1      24.525  50.181  47.986  1.00  0.00    -0.051 Br
HETATM   27  C   UNL     1      24.007  47.844  49.532  1.00  0.00     0.020 A 
HETATM   28  C   UNL     1      24.355  46.772  50.358  1.00  0.00     0.014 A 
ENDBRANCH   7  22
TORSDOF 5
ENDMDL
MODEL 2
REMARK VINA RESULT:      -9.3      0.838      2.051
REMARK  5 active torsions:
REMARK  status: ('A' for Active; 'I' for Inactive)
REMARK    1  A    between atoms: C_4  and  O_5 
REMARK    2  A    between atoms: O_5  and  C_6 
REMARK    3  A    between atoms: C_6  and  C_7 
REMARK       I    between atoms: C_7  and  N_8 
REMARK    4  A    between atoms: N_8  and  C_9 
REMARK    5  A    between atoms: C_15  and  C_16 
ROOT
HETATM    1  C   UNL     1      25.626  44.832  52.521  1.00  0.00     0.137 A 
HETATM    2  N   UNL     1      25.911  43.512  52.758  1.00  0.00    -0.262 N 
HETATM    3  H   UNL     1      25.956  43.034  53.653  1.00  0.00     0.191 HD
HETATM    4  N   UNL     1      26.098  42.784  51.645  1.00  0.00    -0.177 NA
HETATM    5  C   UNL     1      25.882  43.653  50.650  1.00  0.00     0.065 A 
HETATM    6  C   UNL     1      26.020  43.213  49.239  1.00  0.00     0.073 C 
HETATM    7  C   UNL     1      25.554  44.948  51.143  1.00  0.00     0.046 A 
ENDROOT
BRANCH   1   8
HETATM    8  N   UNL     1      25.381  45.792  53.485  1.00  0.00    -0.309 N 
HETATM    9  C   UNL     1      26.268  46.440  54.302  1.00  0.00     0.247 C 
HETATM   10  O   UNL     1      25.824  47.199  55.169  1.00  0.00    -0.271 OA
HETATM   11  H   UNL     1      24.422  46.110  53.591  1.00  0.00     0.170 HD
BRANCH   9  12
HETATM   12  C   UNL     1      27.770  46.308  54.078  1.00  0.00     0.278 C 
BRANCH  12  13
HETATM   13  O   UNL     1      28.189  44.946  54.105  1.00  0.00    -0.342 OA
BRANCH  13  14
HETATM   14  C   UNL     1      29.172  44.697  55.031  1.00  0.00     0.075 A 
HETATM   15  C   UNL     1      29.367  45.523  56.144  1.00  0.00     0.044 A 
HETATM   16  C   UNL     1      30.390  45.251  57.061  1.00  0.00    -0.059 A 
HETATM   17  C   UNL     1      30.601  46.138  58.253  1.00  0.00     0.048 C 
HETATM   18  C   UNL     1      31.175  44.108  56.882  1.00  0.00     0.007 A 
HETATM   19  C   UNL     1      30.952  43.259  55.795  1.00  0.00     0.010 A 
HETATM   20  C   UNL     1      29.950  43.544  54.858  1.00  0.00    -0.029 A 
HETATM   21  C   UNL     1      29.710  42.608  53.707  1.00  0.00     0.051 C 
ENDBRANCH  13  14
ENDBRANCH  12  13
ENDBRANCH   9  12
ENDBRANCH   1   8
BRANCH   7  22
HETATM   22  C   UNL     1      25.281  46.180  50.423  1.00  0.00    -0.020 A 
HETATM   23  C   UNL     1      26.298  47.120  50.222  1.00  0.00     0.014 A 
HETATM   24  C   UNL     1      26.033  48.310  49.537  1.00  0.00     0.020 A 
HETATM   25  C   UNL     1      24.750  48.560  49.051  1.00  0.00     0.011 A 
HETATM   26 BR   UNL     1      24.393  50.167  48.122  1.00  0.00    -0.051 Br
HETATM   27  C   UNL     1      23.728  47.634  49.247  1.00  0.00     0.020 A 
HETATM   28  C   UNL     1      23.993  46.448  49.937  1.00  0.00     0.014 A 
ENDBRANCH   7  22
TORSDOF 5
ENDMDL
MODEL 3
REMARK VINA RESULT:      -8.9      2.803      4.346
REMARK  5 active torsions:
REMARK  status: ('A' for Active; 'I' for Inactive)
REMARK    1  A    between atoms: C_4  and  O_5 
REMARK    2  A    between atoms: O_5  and  C_6 
REMARK    3  A    between atoms: C_6  and  C_7 
REMARK       I    between atoms: C_7  and  N_8 
REMARK    4  A    between atoms: N_8  and  C_9 
REMARK    5  A    between atoms: C_15  and  C_16 
ROOT
HETATM    1  C   UNL     1      27.776  40.829  51.474  1.00  0.00     0.137 A 
HETATM    2  N   UNL     1      28.725  39.850  51.325  1.00  0.00    -0.262 N 
HETATM    3  H   UNL     1      29.164  39.290  52.050  1.00  0.00     0.191 HD
HETATM    4  N   UNL     1      29.049  39.594  50.047  1.00  0.00    -0.177 NA
HETATM    5  C   UNL     1      28.252  40.404  49.341  1.00  0.00     0.065 A 
HETATM    6  C   UNL     1      28.337  40.421  47.859  1.00  0.00     0.073 C 
HETATM    7  C   UNL     1      27.411  41.182  50.186  1.00  0.00     0.046 A 
ENDROOT
BRANCH   1   8
HETATM    8  N   UNL     1      27.259  41.276  52.675  1.00  0.00    -0.309 N 
HETATM    9  C   UNL     1      27.759  42.219  53.533  1.00  0.00     0.247 C 
HETATM   10  O   UNL     1      27.183  42.401  54.610  1.00  0.00    -0.271 OA
HETATM   11  H   UNL     1      26.360  40.899  52.963  1.00  0.00     0.170 HD
BRANCH   9  12
HETATM   12  C   UNL     1      28.936  43.097  53.122  1.00  0.00     0.278 C 
BRANCH  12  13
HETATM   13  O   UNL     1      28.792  44.430  53.605  1.00  0.00    -0.342 OA
BRANCH  13  14
HETATM   14  C   UNL     1      29.375  44.631  54.832  1.00  0.00     0.075 A 
HETATM   15  C   UNL     1      30.384  43.791  55.318  1.00  0.00     0.044 A 
HETATM   16  C   UNL     1      30.947  44.012  56.581  1.00  0.00    -0.059 A 
HETATM   17  C   UNL     1      32.026  43.111  57.104  1.00  0.00     0.048 C 
HETATM   18  C   UNL     1      30.530  45.120  57.324  1.00  0.00     0.007 A 
HETATM   19  C   UNL     1      29.554  45.984  56.821  1.00  0.00     0.010 A 
HETATM   20  C   UNL     1      28.966  45.749  55.571  1.00  0.00    -0.029 A 
HETATM   21  C   UNL     1      27.934  46.700  55.036  1.00  0.00     0.051 C 
ENDBRANCH  13  14
ENDBRANCH  12  13
ENDBRANCH   9  12
ENDBRANCH   1   8
BRANCH   7  22
HETATM   22  C   UNL     1      26.430  42.199  49.848  1.00  0.00    -0.020 A 
HETATM   23  C   UNL     1      25.108  41.838  49.563  1.00  0.00     0.014 A 
HETATM   24  C   UNL     1      24.166  42.815  49.229  1.00  0.00     0.020 A 
HETATM   25  C   UNL     1      24.544  44.156  49.180  1.00  0.00     0.011 A 
HETATM   26 BR   UNL     1      23.271  45.478  48.731  1.00  0.00    -0.051 Br
HETATM   27  C   UNL     1      25.858  44.529  49.457  1.00  0.00     0.020 A 
HETATM   28  C   UNL     1      26.799  43.550  49.786  1.00  0.00     0.014 A 
ENDBRANCH   7  22
TORSDOF 5
ENDMDL
MODEL 4
REMARK VINA RESULT:      -8.8      3.310      7.954
REMARK  5 active torsions:
REMARK  status: ('A' for Active; 'I' for Inactive)
REMARK    1  A    between atoms: C_4  and  O_5 
REMARK    2  A    between atoms: O_5  and  C_6 
REMARK    3  A    between atoms: C_6  and  C_7 
REMARK       I    between atoms: C_7  and  N_8 
REMARK    4  A    between atoms: N_8  and  C_9 
REMARK    5  A    between atoms: C_15  and  C_16 
ROOT
HETATM    1  C   UNL     1      26.545  46.071  53.118  1.00  0.00     0.137 A 
HETATM    2  N   UNL     1      25.529  46.972  52.927  1.00  0.00    -0.262 N 
HETATM    3  H   UNL     1      24.844  46.990  52.177  1.00  0.00     0.191 HD
HETATM    4  N   UNL     1      25.428  47.896  53.895  1.00  0.00    -0.177 NA
HETATM    5  C   UNL     1      26.384  47.557  54.768  1.00  0.00     0.065 A 
HETATM    6  C   UNL     1      26.598  48.376  55.987  1.00  0.00     0.073 C 
HETATM    7  C   UNL     1      27.098  46.401  54.344  1.00  0.00     0.046 A 
ENDROOT
BRANCH   1   8
HETATM    8  N   UNL     1      26.860  45.017  52.281  1.00  0.00    -0.309 N 
HETATM    9  C   UNL     1      26.426  44.768  51.007  1.00  0.00     0.247 C 
HETATM   10  O   UNL     1      26.757  43.707  50.468  1.00  0.00    -0.271 OA
HETATM   11  H   UNL     1      27.540  44.342  52.620  1.00  0.00     0.170 HD
BRANCH   9  12
HETATM   12  C   UNL     1      25.641  45.821  50.233  1.00  0.00     0.278 C 
BRANCH  12  13
HETATM   13  O   UNL     1      26.347  47.057  50.162  1.00  0.00    -0.342 OA
BRANCH  13  14
HETATM   14  C   UNL     1      25.678  48.026  49.455  1.00  0.00     0.075 A 
HETATM   15  C   UNL     1      24.284  48.020  49.327  1.00  0.00     0.044 A 
HETATM   16  C   UNL     1      23.633  49.013  48.585  1.00  0.00    -0.059 A 
HETATM   17  C   UNL     1      22.140  49.005  48.444  1.00  0.00     0.048 C 
HETATM   18  C   UNL     1      24.391  50.046  48.024  1.00  0.00     0.007 A 
HETATM   19  C   UNL     1      25.778  50.077  48.189  1.00  0.00     0.010 A 
HETATM   20  C   UNL     1      26.437  49.068  48.905  1.00  0.00    -0.029 A 
HETATM   21  C   UNL     1      27.926  49.130  49.090  1.00  0.00     0.051 C 
ENDBRANCH  13  14
ENDBRANCH  12  13
ENDBRANCH   9  12
ENDBRANCH   1   8
BRANCH   7  22
HETATM   22  C   UNL     1      28.222  45.718  54.962  1.00  0.00    -0.020 A 
HETATM   23  C   UNL     1      28.667  44.492  54.455  1.00  0.00     0.014 A 
HETATM   24  C   UNL     1      29.743  43.829  55.055  1.00  0.00     0.020 A 
HETATM   25  C   UNL     1      30.375  44.393  56.163  1.00  0.00     0.011 A 
HETATM   26 BR   UNL     1      31.830  43.500  56.971  1.00  0.00    -0.051 Br
HETATM   27  C   UNL     1      29.939  45.612  56.680  1.00  0.00     0.020 A 
HETATM   28  C   UNL     1      28.860  46.269  56.082  1.00  0.00     0.014 A 
ENDBRANCH   7  22
TORSDOF 5
ENDMDL
MODEL 5
REMARK VINA RESULT:      -8.7     12.578     14.331
REMARK  5 active torsions:
REMARK  status: ('A' for Active; 'I' for Inactive)
REMARK    1  A    between atoms: C_4  and  O_5 
REMARK    2  A    between atoms: O_5  and  C_6 
REMARK    3  A    between atoms: C_6  and  C_7 
REMARK       I    between atoms: C_7  and  N_8 
REMARK    4  A    between atoms: N_8  and  C_9 
REMARK    5  A    between atoms: C_15  and  C_16 
ROOT
HETATM    1  C   UNL     1      30.774  48.884  39.182  1.00  0.00     0.137 A 
HETATM    2  N   UNL     1      30.967  50.080  38.537  1.00  0.00    -0.262 N 
HETATM    3  H   UNL     1      31.847  50.541  38.328  1.00  0.00     0.191 HD
HETATM    4  N   UNL     1      29.834  50.655  38.102  1.00  0.00    -0.177 NA
HETATM    5  C   UNL     1      28.877  49.781  38.436  1.00  0.00     0.065 A 
HETATM    6  C   UNL     1      27.457  50.085  38.129  1.00  0.00     0.073 C 
HETATM    7  C   UNL     1      29.414  48.637  39.091  1.00  0.00     0.046 A 
ENDROOT
BRANCH   1   8
HETATM    8  N   UNL     1      31.766  48.084  39.716  1.00  0.00    -0.309 N 
HETATM    9  C   UNL     1      32.128  47.918  41.026  1.00  0.00     0.247 C 
HETATM   10  O   UNL     1      33.116  47.222  41.280  1.00  0.00    -0.271 OA
HETATM   11  H   UNL     1      32.285  47.496  39.071  1.00  0.00     0.170 HD
BRANCH   9  12
HETATM   12  C   UNL     1      31.270  48.491  42.148  1.00  0.00     0.278 C 
BRANCH  12  13
HETATM   13  O   UNL     1      31.782  49.734  42.621  1.00  0.00    -0.342 OA
BRANCH  13  14
HETATM   14  C   UNL     1      31.223  50.824  42.001  1.00  0.00     0.075 A 
HETATM   15  C   UNL     1      29.839  51.033  41.978  1.00  0.00     0.044 A 
HETATM   16  C   UNL     1      29.298  52.146  41.322  1.00  0.00    -0.059 A 
HETATM   17  C   UNL     1      27.815  52.369  41.295  1.00  0.00     0.048 C 
HETATM   18  C   UNL     1      30.164  53.078  40.744  1.00  0.00     0.007 A 
HETATM   19  C   UNL     1      31.547  52.893  40.805  1.00  0.00     0.010 A 
HETATM   20  C   UNL     1      32.092  51.765  41.433  1.00  0.00    -0.029 A 
HETATM   21  C   UNL     1      33.582  51.593  41.508  1.00  0.00     0.051 C 
ENDBRANCH  13  14
ENDBRANCH  12  13
ENDBRANCH   9  12
ENDBRANCH   1   8
BRANCH   7  22
HETATM   22  C   UNL     1      28.740  47.475  39.645  1.00  0.00    -0.020 A 
HETATM   23  C   UNL     1      28.955  46.206  39.096  1.00  0.00     0.014 A 
HETATM   24  C   UNL     1      28.299  45.089  39.623  1.00  0.00     0.020 A 
HETATM   25  C   UNL     1      27.429  45.240  40.702  1.00  0.00     0.011 A 
HETATM   26 BR   UNL     1      26.546  43.731  41.417  1.00  0.00    -0.051 Br
HETATM   27  C   UNL     1      27.203  46.499  41.256  1.00  0.00     0.020 A 
HETATM   28  C   UNL     1      27.855  47.614  40.724  1.00  0.00     0.014 A 
ENDBRANCH   7  22
TORSDOF 5
ENDMDL
MODEL 6
REMARK VINA RESULT:      -8.6      2.899      4.553
REMARK  5 active torsions:
REMARK  status: ('A' for Active; 'I' for Inactive)
REMARK    1  A    between atoms: C_4  and  O_5 
REMARK    2  A    between atoms: O_5  and  C_6 
REMARK    3  A    between atoms: C_6  and  C_7 
REMARK       I    between atoms: C_7  and  N_8 
REMARK    4  A    between atoms: N_8  and  C_9 
REMARK    5  A    between atoms: C_15  and  C_16 
ROOT
HETATM    1  C   UNL     1      26.024  43.758  52.397  1.00  0.00     0.137 A 
HETATM    2  N   UNL     1      25.776  44.968  52.992  1.00  0.00    -0.262 N 
HETATM    3  H   UNL     1      26.020  45.264  53.933  1.00  0.00     0.191 HD
HETATM    4  N   UNL     1      25.181  45.862  52.185  1.00  0.00    -0.177 NA
HETATM    5  C   UNL     1      25.081  45.224  51.013  1.00  0.00     0.065 A 
HETATM    6  C   UNL     1      24.443  45.899  49.855  1.00  0.00     0.073 C 
HETATM    7  C   UNL     1      25.621  43.909  51.081  1.00  0.00     0.046 A 
ENDROOT
BRANCH   1   8
HETATM    8  N   UNL     1      26.633  42.672  52.998  1.00  0.00    -0.309 N 
HETATM    9  C   UNL     1      27.956  42.477  53.290  1.00  0.00     0.247 C 
HETATM   10  O   UNL     1      28.305  41.383  53.744  1.00  0.00    -0.271 OA
HETATM   11  H   UNL     1      26.030  41.918  53.314  1.00  0.00     0.170 HD
BRANCH   9  12
HETATM   12  C   UNL     1      28.958  43.619  53.159  1.00  0.00     0.278 C 
BRANCH  12  13
HETATM   13  O   UNL     1      28.572  44.750  53.936  1.00  0.00    -0.342 OA
BRANCH  13  14
HETATM   14  C   UNL     1      29.246  44.846  55.128  1.00  0.00     0.075 A 
HETATM   15  C   UNL     1      30.274  43.960  55.471  1.00  0.00     0.044 A 
HETATM   16  C   UNL     1      30.931  44.074  56.703  1.00  0.00    -0.059 A 
HETATM   17  C   UNL     1      32.030  43.122  57.072  1.00  0.00     0.048 C 
HETATM   18  C   UNL     1      30.586  45.123  57.560  1.00  0.00     0.007 A 
HETATM   19  C   UNL     1      29.591  46.035  57.199  1.00  0.00     0.010 A 
HETATM   20  C   UNL     1      28.909  45.906  55.981  1.00  0.00    -0.029 A 
HETATM   21  C   UNL     1      27.857  46.908  55.600  1.00  0.00     0.051 C 
ENDBRANCH  13  14
ENDBRANCH  12  13
ENDBRANCH   9  12
ENDBRANCH   1   8
BRANCH   7  22
HETATM   22  C   UNL     1      25.689  42.873  50.065  1.00  0.00    -0.020 A 
HETATM   23  C   UNL     1      26.899  42.595  49.420  1.00  0.00     0.014 A 
HETATM   24  C   UNL     1      26.963  41.603  48.436  1.00  0.00     0.020 A 
HETATM   25  C   UNL     1      25.816  40.888  48.096  1.00  0.00     0.011 A 
HETATM   26 BR   UNL     1      25.902  39.546  46.769  1.00  0.00    -0.051 Br
HETATM   27  C   UNL     1      24.603  41.157  48.728  1.00  0.00     0.020 A 
HETATM   28  C   UNL     1      24.540  42.151  49.708  1.00  0.00     0.014 A 
ENDBRANCH   7  22
TORSDOF 5
ENDMDL
MODEL 7
REMARK VINA RESULT:      -8.4      2.692      4.082
REMARK  5 active torsions:
REMARK  status: ('A' for Active; 'I' for Inactive)
REMARK    1  A    between atoms: C_4  and  O_5 
REMARK    2  A    between atoms: O_5  and  C_6 
REMARK    3  A    between atoms: C_6  and  C_7 
REMARK       I    between atoms: C_7  and  N_8 
REMARK    4  A    between atoms: N_8  and  C_9 
REMARK    5  A    between atoms: C_15  and  C_16 
ROOT
HETATM    1  C   UNL     1      25.419  47.267  49.822  1.00  0.00     0.137 A 
HETATM    2  N   UNL     1      26.768  47.298  49.578  1.00  0.00    -0.262 N 
HETATM    3  H   UNL     1      27.462  46.593  49.811  1.00  0.00     0.191 HD
HETATM    4  N   UNL     1      27.176  48.384  48.902  1.00  0.00    -0.177 NA
HETATM    5  C   UNL     1      26.046  49.059  48.660  1.00  0.00     0.065 A 
HETATM    6  C   UNL     1      26.097  50.354  47.936  1.00  0.00     0.073 C 
HETATM    7  C   UNL     1      24.908  48.388  49.191  1.00  0.00     0.046 A 
ENDROOT
BRANCH   1   8
HETATM    8  N   UNL     1      24.741  46.262  50.486  1.00  0.00    -0.309 N 
HETATM    9  C   UNL     1      24.955  45.761  51.742  1.00  0.00     0.247 C 
HETATM   10  O   UNL     1      24.290  44.787  52.110  1.00  0.00    -0.271 OA
HETATM   11  H   UNL     1      23.941  45.851  50.014  1.00  0.00     0.170 HD
BRANCH   9  12
HETATM   12  C   UNL     1      25.915  46.454  52.702  1.00  0.00     0.278 C 
BRANCH  12  13
HETATM   13  O   UNL     1      25.870  45.872  54.003  1.00  0.00    -0.342 OA
BRANCH  13  14
HETATM   14  C   UNL     1      27.112  45.604  54.523  1.00  0.00     0.075 A 
HETATM   15  C   UNL     1      27.813  44.436  54.202  1.00  0.00     0.044 A 
HETATM   16  C   UNL     1      29.072  44.183  54.762  1.00  0.00    -0.059 A 
HETATM   17  C   UNL     1      29.821  42.930  54.421  1.00  0.00     0.048 C 
HETATM   18  C   UNL     1      29.645  45.145  55.600  1.00  0.00     0.007 A 
HETATM   19  C   UNL     1      28.965  46.331  55.886  1.00  0.00     0.010 A 
HETATM   20  C   UNL     1      27.692  46.574  55.352  1.00  0.00    -0.029 A 
HETATM   21  C   UNL     1      26.986  47.864  55.653  1.00  0.00     0.051 C 
ENDBRANCH  13  14
ENDBRANCH  12  13
ENDBRANCH   9  12
ENDBRANCH   1   8
BRANCH   7  22
HETATM   22  C   UNL     1      23.508  48.777  49.187  1.00  0.00    -0.020 A 
HETATM   23  C   UNL     1      22.523  47.862  48.797  1.00  0.00     0.014 A 
HETATM   24  C   UNL     1      21.177  48.239  48.785  1.00  0.00     0.020 A 
HETATM   25  C   UNL     1      20.813  49.530  49.164  1.00  0.00     0.011 A 
HETATM   26 BR   UNL     1      18.993  50.038  49.150  1.00  0.00    -0.051 Br
HETATM   27  C   UNL     1      21.784  50.452  49.550  1.00  0.00     0.020 A 
HETATM   28  C   UNL     1      23.130  50.076  49.557  1.00  0.00     0.014 A 
ENDBRANCH   7  22
TORSDOF 5
ENDMDL
MODEL 8
REMARK VINA RESULT:      -8.3      3.944      5.948
REMARK  5 active torsions:
REMARK  status: ('A' for Active; 'I' for Inactive)
REMARK    1  A    between atoms: C_4  and  O_5 
REMARK    2  A    between atoms: O_5  and  C_6 
REMARK    3  A    between atoms: C_6  and  C_7 
REMARK       I    between atoms: C_7  and  N_8 
REMARK    4  A    between atoms: N_8  and  C_9 
REMARK    5  A    between atoms: C_15  and  C_16 
ROOT
HETATM    1  C   UNL     1      26.038  41.698  51.069  1.00  0.00     0.137 A 
HETATM    2  N   UNL     1      25.237  42.631  51.676  1.00  0.00    -0.262 N 
HETATM    3  H   UNL     1      25.248  42.924  52.649  1.00  0.00     0.191 HD
HETATM    4  N   UNL     1      24.384  43.245  50.842  1.00  0.00    -0.177 NA
HETATM    5  C   UNL     1      24.671  42.724  49.643  1.00  0.00     0.065 A 
HETATM    6  C   UNL     1      23.903  43.152  48.446  1.00  0.00     0.073 C 
HETATM    7  C   UNL     1      25.723  41.768  49.722  1.00  0.00     0.046 A 
ENDROOT
BRANCH   1   8
HETATM    8  N   UNL     1      27.006  40.933  51.693  1.00  0.00    -0.309 N 
HETATM    9  C   UNL     1      28.205  41.326  52.225  1.00  0.00     0.247 C 
HETATM   10  O   UNL     1      28.972  40.458  52.654  1.00  0.00    -0.271 OA
HETATM   11  H   UNL     1      26.804  39.947  51.826  1.00  0.00     0.170 HD
BRANCH   9  12
HETATM   12  C   UNL     1      28.539  42.805  52.381  1.00  0.00     0.278 C 
BRANCH  12  13
HETATM   13  O   UNL     1      27.799  43.403  53.442  1.00  0.00    -0.342 OA
BRANCH  13  14
HETATM   14  C   UNL     1      28.590  44.044  54.363  1.00  0.00     0.075 A 
HETATM   15  C   UNL     1      29.698  43.421  54.948  1.00  0.00     0.044 A 
HETATM   16  C   UNL     1      30.475  44.096  55.898  1.00  0.00    -0.059 A 
HETATM   17  C   UNL     1      31.661  43.428  56.528  1.00  0.00     0.048 C 
HETATM   18  C   UNL     1      30.163  45.423  56.209  1.00  0.00     0.007 A 
HETATM   19  C   UNL     1      29.084  46.060  55.592  1.00  0.00     0.010 A 
HETATM   20  C   UNL     1      28.285  45.379  54.664  1.00  0.00    -0.029 A 
HETATM   21  C   UNL     1      27.141  46.086  53.995  1.00  0.00     0.051 C 
ENDBRANCH  13  14
ENDBRANCH  12  13
ENDBRANCH   9  12
ENDBRANCH   1   8
BRANCH   7  22
HETATM   22  C   UNL     1      26.320  40.948  48.683  1.00  0.00    -0.020 A 
HETATM   23  C   UNL     1      25.624  39.852  48.161  1.00  0.00     0.014 A 
HETATM   24  C   UNL     1      26.203  39.058  47.166  1.00  0.00     0.020 A 
HETATM   25  C   UNL     1      27.478  39.359  46.691  1.00  0.00     0.011 A 
HETATM   26 BR   UNL     1      28.258  38.288  45.345  1.00  0.00    -0.051 Br
HETATM   27  C   UNL     1      28.184  40.446  47.205  1.00  0.00     0.020 A 
HETATM   28  C   UNL     1      27.606  41.235  48.202  1.00  0.00     0.014 A 
ENDBRANCH   7  22
TORSDOF 5
ENDMDL
MODEL 9
REMARK VINA RESULT:      -8.3      3.255      7.942
REMARK  5 active torsions:
REMARK  status: ('A' for Active; 'I' for Inactive)
REMARK    1  A    between atoms: C_4  and  O_5 
REMARK    2  A    between atoms: O_5  and  C_6 
REMARK    3  A    between atoms: C_6  and  C_7 
REMARK       I    between atoms: C_7  and  N_8 
REMARK    4  A    between atoms: N_8  and  C_9 
REMARK    5  A    between atoms: C_15  and  C_16 
ROOT
HETATM    1  C   UNL     1      26.109  44.206  51.575  1.00  0.00     0.137 A 
HETATM    2  N   UNL     1      25.460  43.741  50.460  1.00  0.00    -0.262 N 
HETATM    3  H   UNL     1      24.680  44.167  49.969  1.00  0.00     0.191 HD
HETATM    4  N   UNL     1      25.980  42.610  49.957  1.00  0.00    -0.177 NA
HETATM    5  C   UNL     1      27.031  42.357  50.747  1.00  0.00     0.065 A 
HETATM    6  C   UNL     1      27.860  41.149  50.510  1.00  0.00     0.073 C 
HETATM    7  C   UNL     1      27.176  43.343  51.763  1.00  0.00     0.046 A 
ENDROOT
BRANCH   1   8
HETATM    8  N   UNL     1      25.786  45.350  52.281  1.00  0.00    -0.309 N 
HETATM    9  C   UNL     1      25.452  46.590  51.807  1.00  0.00     0.247 C 
HETATM   10  O   UNL     1      25.293  47.508  52.618  1.00  0.00    -0.271 OA
HETATM   11  H   UNL     1      25.743  45.275  53.293  1.00  0.00     0.170 HD
BRANCH   9  12
HETATM   12  C   UNL     1      25.177  46.807  50.323  1.00  0.00     0.278 C 
BRANCH  12  13
HETATM   13  O   UNL     1      25.556  48.116  49.903  1.00  0.00    -0.342 OA
BRANCH  13  14
HETATM   14  C   UNL     1      24.563  48.778  49.224  1.00  0.00     0.075 A 
HETATM   15  C   UNL     1      23.209  48.486  49.423  1.00  0.00     0.044 A 
HETATM   16  C   UNL     1      22.220  49.169  48.702  1.00  0.00    -0.059 A 
HETATM   17  C   UNL     1      20.769  48.854  48.913  1.00  0.00     0.048 C 
HETATM   18  C   UNL     1      22.604  50.187  47.825  1.00  0.00     0.007 A 
HETATM   19  C   UNL     1      23.953  50.509  47.659  1.00  0.00     0.010 A 
HETATM   20  C   UNL     1      24.947  49.808  48.355  1.00  0.00    -0.029 A 
HETATM   21  C   UNL     1      26.391  50.182  48.180  1.00  0.00     0.051 C 
ENDBRANCH  13  14
ENDBRANCH  12  13
ENDBRANCH   9  12
ENDBRANCH   1   8
BRANCH   7  22
HETATM   22  C   UNL     1      28.146  43.439  52.840  1.00  0.00    -0.020 A 
HETATM   23  C   UNL     1      29.415  42.867  52.699  1.00  0.00     0.014 A 
HETATM   24  C   UNL     1      30.346  42.952  53.739  1.00  0.00     0.020 A 
HETATM   25  C   UNL     1      30.009  43.610  54.921  1.00  0.00     0.011 A 
HETATM   26 BR   UNL     1      31.269  43.727  56.324  1.00  0.00    -0.051 Br
HETATM   27  C   UNL     1      28.748  44.181  55.075  1.00  0.00     0.020 A 
HETATM   28  C   UNL     1      27.817  44.091  54.037  1.00  0.00     0.014 A 
ENDBRANCH   7  22
TORSDOF 5
ENDMDL
MODEL 10
REMARK VINA RESULT:      -8.2      2.809      4.439
REMARK  5 active torsions:
REMARK  status: ('A' for Active; 'I' for Inactive)
REMARK    1  A    between atoms: C_4  and  O_5 
REMARK    2  A    between atoms: O_5  and  C_6 
REMARK    3  A    between atoms: C_6  and  C_7 
REMARK       I    between atoms: C_7  and  N_8 
REMARK    4  A    between atoms: N_8  and  C_9 
REMARK    5  A    between atoms: C_15  and  C_16 
ROOT
HETATM    1  C   UNL     1      25.159  47.215  50.169  1.00  0.00     0.137 A 
HETATM    2  N   UNL     1      26.526  47.299  50.225  1.00  0.00    -0.262 N 
HETATM    3  H   UNL     1      27.173  46.657  50.675  1.00  0.00     0.191 HD
HETATM    4  N   UNL     1      27.039  48.340  49.550  1.00  0.00    -0.177 NA
HETATM    5  C   UNL     1      25.970  48.927  49.000  1.00  0.00     0.065 A 
HETATM    6  C   UNL     1      26.138  50.152  48.178  1.00  0.00     0.073 C 
HETATM    7  C   UNL     1      24.765  48.246  49.332  1.00  0.00     0.046 A 
ENDROOT
BRANCH   1   8
HETATM    8  N   UNL     1      24.383  46.239  50.766  1.00  0.00    -0.309 N 
HETATM    9  C   UNL     1      24.776  45.162  51.514  1.00  0.00     0.247 C 
HETATM   10  O   UNL     1      23.918  44.350  51.875  1.00  0.00    -0.271 OA
HETATM   11  H   UNL     1      23.375  46.335  50.688  1.00  0.00     0.170 HD
BRANCH   9  12
HETATM   12  C   UNL     1      26.221  45.026  51.981  1.00  0.00     0.278 C 
BRANCH  12  13
HETATM   13  O   UNL     1      26.427  43.819  52.709  1.00  0.00    -0.342 OA
BRANCH  13  14
HETATM   14  C   UNL     1      27.579  43.824  53.456  1.00  0.00     0.075 A 
HETATM   15  C   UNL     1      27.900  44.882  54.315  1.00  0.00     0.044 A 
HETATM   16  C   UNL     1      29.092  44.866  55.051  1.00  0.00    -0.059 A 
HETATM   17  C   UNL     1      29.438  46.001  55.968  1.00  0.00     0.048 C 
HETATM   18  C   UNL     1      29.927  43.748  54.961  1.00  0.00     0.007 A 
HETATM   19  C   UNL     1      29.586  42.672  54.139  1.00  0.00     0.010 A 
HETATM   20  C   UNL     1      28.410  42.698  53.377  1.00  0.00    -0.029 A 
HETATM   21  C   UNL     1      28.048  41.523  52.514  1.00  0.00     0.051 C 
ENDBRANCH  13  14
ENDBRANCH  12  13
ENDBRANCH   9  12
ENDBRANCH   1   8
BRANCH   7  22
HETATM   22  C   UNL     1      23.389  48.555  48.982  1.00  0.00    -0.020 A 
HETATM   23  C   UNL     1      22.661  47.691  48.155  1.00  0.00     0.014 A 
HETATM   24  C   UNL     1      21.339  47.993  47.810  1.00  0.00     0.020 A 
HETATM   25  C   UNL     1      20.745  49.158  48.293  1.00  0.00     0.011 A 
HETATM   26 BR   UNL     1      18.958  49.564  47.830  1.00  0.00    -0.051 Br
HETATM   27  C   UNL     1      21.460  50.028  49.114  1.00  0.00     0.020 A 
HETATM   28  C   UNL     1      22.782  49.728  49.453  1.00  0.00     0.014 A 
ENDBRANCH   7  22
TORSDOF 5
ENDMDL
