MODEL 1
REMARK VINA RESULT:      -9.7      0.000      0.000
REMARK  3 active torsions:
REMARK  status: ('A' for Active; 'I' for Inactive)
REMARK    1  A    between atoms: C_3  and  C_4 
REMARK    2  A    between atoms: C_8  and  C_9 
REMARK       I    between atoms: C_9  and  N_10 
REMARK    3  A    between atoms: N_10  and  N_11 
ROOT
HETATM    1  C   UNL     1      23.821  47.050  49.411  1.00  0.00     0.291 C 
HETATM    2  N   UNL     1      24.839  47.031  50.339  1.00  0.00    -0.251 N 
HETATM    3  O   UNL     1      23.553  46.119  48.655  1.00  0.00    -0.264 OA
HETATM    4  H   UNL     1      25.009  47.846  50.919  1.00  0.00     0.191 HD
ENDROOT
BRANCH   1   5
HETATM    5  C   UNL     1      23.074  48.314  49.422  1.00  0.00     0.148 A 
HETATM    6  N   UNL     1      23.672  49.496  49.672  1.00  0.00    -0.169 NA
HETATM    7  N   UNL     1      22.672  50.391  49.578  1.00  0.00    -0.277 N 
HETATM    8  C   UNL     1      21.441  49.841  49.325  1.00  0.00     0.064 A 
HETATM    9  H   UNL     1      22.888  51.375  49.702  1.00  0.00     0.189 HD
HETATM   10  C   UNL     1      21.685  48.487  49.206  1.00  0.00     0.071 A 
BRANCH   8  11
HETATM   11  C   UNL     1      20.194  50.608  49.268  1.00  0.00     0.014 A 
HETATM   12  C   UNL     1      20.161  51.755  48.455  1.00  0.00     0.015 A 
HETATM   13  C   UNL     1      19.003  52.527  48.336  1.00  0.00     0.001 A 
HETATM   14  C   UNL     1      17.855  52.170  49.036  1.00  0.00     0.002 A 
HETATM   15  C   UNL     1      17.865  51.042  49.854  1.00  0.00     0.025 A 
HETATM   16  C   UNL     1      19.024  50.262  49.971  1.00  0.00     0.046 A 
HETATM   17 CL   UNL     1      18.940  48.892  51.026  1.00  0.00    -0.083 Cl
ENDBRANCH   8  11
ENDBRANCH   1   5
BRANCH   2  18
HETATM   18  N   UNL     1      25.598  45.895  50.501  1.00  0.00    -0.167 N 
HETATM   19  C   UNL     1      26.817  45.702  49.906  1.00  0.00     0.345 A 
HETATM   20  O   UNL     1      27.380  46.395  49.074  1.00  0.00    -0.245 OA
HETATM   21  N   UNL     1      27.337  44.520  50.403  1.00  0.00    -0.323 N 
HETATM   22  C   UNL     1      26.463  43.896  51.381  1.00  0.00     0.117 A 
HETATM   23  H   UNL     1      28.252  44.196  50.117  1.00  0.00     0.165 HD
HETATM   24  C   UNL     1      27.116  43.829  52.765  1.00  0.00     0.041 C 
HETATM   25  C   UNL     1      25.981  42.525  50.896  1.00  0.00     0.041 C 
HETATM   26  C   UNL     1      25.294  44.903  51.397  1.00  0.00     0.275 A 
HETATM   27  C   UNL     1      28.204  42.758  52.840  1.00  0.00     0.003 C 
HETATM   28  C   UNL     1      27.691  41.398  52.375  1.00  0.00     0.000 C 
HETATM   29  C   UNL     1      27.083  41.469  50.978  1.00  0.00     0.003 C 
HETATM   30  O   UNL     1      24.284  44.808  52.083  1.00  0.00    -0.268 OA
ENDBRANCH   2  18
TORSDOF 3
ENDMDL
MODEL 2
REMARK VINA RESULT:      -9.5      5.456      9.190
REMARK  3 active torsions:
REMARK  status: ('A' for Active; 'I' for Inactive)
REMARK    1  A    between atoms: C_3  and  C_4 
REMARK    2  A    between atoms: C_8  and  C_9 
REMARK       I    between atoms: C_9  and  N_10 
REMARK    3  A    between atoms: N_10  and  N_11 
ROOT
HETATM    1  C   UNL     1      26.241  46.045  52.680  1.00  0.00     0.291 C 
HETATM    2  N   UNL     1      26.518  44.936  51.914  1.00  0.00    -0.251 N 
HETATM    3  O   UNL     1      25.369  46.870  52.418  1.00  0.00    -0.264 OA
HETATM    4  H   UNL     1      27.266  44.307  52.188  1.00  0.00     0.191 HD
ENDROOT
BRANCH   1   5
HETATM    5  C   UNL     1      27.102  46.141  53.865  1.00  0.00     0.148 A 
HETATM    6  N   UNL     1      27.096  47.223  54.669  1.00  0.00    -0.169 NA
HETATM    7  N   UNL     1      27.993  46.920  55.626  1.00  0.00    -0.277 N 
HETATM    8  C   UNL     1      28.618  45.711  55.454  1.00  0.00     0.064 A 
HETATM    9  H   UNL     1      28.144  47.586  56.376  1.00  0.00     0.189 HD
HETATM   10  C   UNL     1      28.040  45.180  54.318  1.00  0.00     0.071 A 
BRANCH   8  11
HETATM   11  C   UNL     1      29.691  45.212  56.318  1.00  0.00     0.014 A 
HETATM   12  C   UNL     1      29.875  45.830  57.567  1.00  0.00     0.015 A 
HETATM   13  C   UNL     1      30.865  45.397  58.452  1.00  0.00     0.001 A 
HETATM   14  C   UNL     1      31.699  44.341  58.100  1.00  0.00     0.002 A 
HETATM   15  C   UNL     1      31.540  43.716  56.864  1.00  0.00     0.025 A 
HETATM   16  C   UNL     1      30.543  44.144  55.977  1.00  0.00     0.046 A 
HETATM   17 CL   UNL     1      30.440  43.316  54.460  1.00  0.00    -0.083 Cl
ENDBRANCH   8  11
ENDBRANCH   1   5
BRANCH   2  18
HETATM   18  N   UNL     1      25.759  44.665  50.798  1.00  0.00    -0.167 N 
HETATM   19  C   UNL     1      26.106  45.049  49.529  1.00  0.00     0.345 A 
HETATM   20  O   UNL     1      27.029  45.762  49.172  1.00  0.00    -0.245 OA
HETATM   21  N   UNL     1      25.185  44.489  48.662  1.00  0.00    -0.323 N 
HETATM   22  C   UNL     1      24.192  43.682  49.350  1.00  0.00     0.117 A 
HETATM   23  H   UNL     1      25.268  44.621  47.662  1.00  0.00     0.165 HD
HETATM   24  C   UNL     1      24.274  42.209  48.939  1.00  0.00     0.041 C 
HETATM   25  C   UNL     1      22.786  44.262  49.169  1.00  0.00     0.041 C 
HETATM   26  C   UNL     1      24.659  43.848  50.812  1.00  0.00     0.275 A 
HETATM   27  C   UNL     1      23.709  41.968  47.539  1.00  0.00     0.003 C 
HETATM   28  C   UNL     1      22.299  42.532  47.392  1.00  0.00     0.000 C 
HETATM   29  C   UNL     1      22.240  44.011  47.763  1.00  0.00     0.003 C 
HETATM   30  O   UNL     1      24.121  43.345  51.791  1.00  0.00    -0.268 OA
ENDBRANCH   2  18
TORSDOF 3
ENDMDL
MODEL 3
REMARK VINA RESULT:      -9.4      2.575      9.187
REMARK  3 active torsions:
REMARK  status: ('A' for Active; 'I' for Inactive)
REMARK    1  A    between atoms: C_3  and  C_4 
REMARK    2  A    between atoms: C_8  and  C_9 
REMARK       I    between atoms: C_9  and  N_10 
REMARK    3  A    between atoms: N_10  and  N_11 
ROOT
HETATM    1  C   UNL     1      23.953  48.596  49.135  1.00  0.00     0.291 C 
HETATM    2  N   UNL     1      22.710  48.320  49.660  1.00  0.00    -0.251 N 
HETATM    3  O   UNL     1      24.170  49.449  48.277  1.00  0.00    -0.264 OA
HETATM    4  H   UNL     1      22.608  47.589  50.356  1.00  0.00     0.191 HD
ENDROOT
BRANCH   1   5
HETATM    5  C   UNL     1      25.009  47.760  49.718  1.00  0.00     0.148 A 
HETATM    6  N   UNL     1      26.242  47.684  49.177  1.00  0.00    -0.169 NA
HETATM    7  N   UNL     1      26.903  46.845  49.996  1.00  0.00    -0.277 N 
HETATM    8  C   UNL     1      26.142  46.333  51.017  1.00  0.00     0.064 A 
HETATM    9  H   UNL     1      27.880  46.650  49.803  1.00  0.00     0.189 HD
HETATM   10  C   UNL     1      24.907  46.930  50.861  1.00  0.00     0.071 A 
BRANCH   8  11
HETATM   11  C   UNL     1      26.621  45.335  51.976  1.00  0.00     0.014 A 
HETATM   12  C   UNL     1      26.869  44.033  51.506  1.00  0.00     0.015 A 
HETATM   13  C   UNL     1      27.344  43.032  52.358  1.00  0.00     0.001 A 
HETATM   14  C   UNL     1      27.573  43.314  53.701  1.00  0.00     0.002 A 
HETATM   15  C   UNL     1      27.328  44.595  54.192  1.00  0.00     0.025 A 
HETATM   16  C   UNL     1      26.857  45.602  53.338  1.00  0.00     0.046 A 
HETATM   17 CL   UNL     1      26.567  47.154  54.049  1.00  0.00    -0.083 Cl
ENDBRANCH   8  11
ENDBRANCH   1   5
BRANCH   2  18
HETATM   18  N   UNL     1      21.619  49.058  49.264  1.00  0.00    -0.167 N 
HETATM   19  C   UNL     1      20.682  48.613  48.368  1.00  0.00     0.345 A 
HETATM   20  O   UNL     1      20.692  47.596  47.695  1.00  0.00    -0.245 OA
HETATM   21  N   UNL     1      19.672  49.558  48.322  1.00  0.00    -0.323 N 
HETATM   22  C   UNL     1      19.910  50.670  49.225  1.00  0.00     0.117 A 
HETATM   23  H   UNL     1      18.857  49.416  47.739  1.00  0.00     0.165 HD
HETATM   24  C   UNL     1      18.841  50.752  50.319  1.00  0.00     0.041 C 
HETATM   25  C   UNL     1      20.060  51.986  48.455  1.00  0.00     0.041 C 
HETATM   26  C   UNL     1      21.262  50.249  49.840  1.00  0.00     0.275 A 
HETATM   27  C   UNL     1      17.510  51.281  49.786  1.00  0.00     0.003 C 
HETATM   28  C   UNL     1      17.682  52.604  49.046  1.00  0.00     0.000 C 
HETATM   29  C   UNL     1      18.718  52.498  47.931  1.00  0.00     0.003 C 
HETATM   30  O   UNL     1      21.890  50.886  50.677  1.00  0.00    -0.268 OA
ENDBRANCH   2  18
TORSDOF 3
ENDMDL
MODEL 4
REMARK VINA RESULT:      -9.3      1.843      2.693
REMARK  3 active torsions:
REMARK  status: ('A' for Active; 'I' for Inactive)
REMARK    1  A    between atoms: C_3  and  C_4 
REMARK    2  A    between atoms: C_8  and  C_9 
REMARK       I    between atoms: C_9  and  N_10 
REMARK    3  A    between atoms: N_10  and  N_11 
ROOT
HETATM    1  C   UNL     1      25.425  47.311  50.637  1.00  0.00     0.291 C 
HETATM    2  N   UNL     1      25.071  45.990  50.481  1.00  0.00    -0.251 N 
HETATM    3  O   UNL     1      26.314  47.709  51.387  1.00  0.00    -0.264 OA
HETATM    4  H   UNL     1      24.315  45.740  49.853  1.00  0.00     0.191 HD
ENDROOT
BRANCH   1   5
HETATM    5  C   UNL     1      24.623  48.211  49.797  1.00  0.00     0.148 A 
HETATM    6  N   UNL     1      25.189  49.145  49.007  1.00  0.00    -0.169 NA
HETATM    7  N   UNL     1      24.141  49.737  48.406  1.00  0.00    -0.277 N 
HETATM    8  C   UNL     1      22.917  49.264  48.805  1.00  0.00     0.064 A 
HETATM    9  H   UNL     1      24.322  50.471  47.729  1.00  0.00     0.189 HD
HETATM   10  C   UNL     1      23.211  48.257  49.703  1.00  0.00     0.071 A 
BRANCH   8  11
HETATM   11  C   UNL     1      21.636  49.816  48.355  1.00  0.00     0.014 A 
HETATM   12  C   UNL     1      21.304  51.122  48.754  1.00  0.00     0.015 A 
HETATM   13  C   UNL     1      20.109  51.722  48.349  1.00  0.00     0.001 A 
HETATM   14  C   UNL     1      19.218  51.022  47.542  1.00  0.00     0.002 A 
HETATM   15  C   UNL     1      19.522  49.723  47.140  1.00  0.00     0.025 A 
HETATM   16  C   UNL     1      20.723  49.120  47.540  1.00  0.00     0.046 A 
HETATM   17 CL   UNL     1      20.999  47.497  47.003  1.00  0.00    -0.083 Cl
ENDBRANCH   8  11
ENDBRANCH   1   5
BRANCH   2  18
HETATM   18  N   UNL     1      25.767  45.010  51.151  1.00  0.00    -0.167 N 
HETATM   19  C   UNL     1      25.304  44.381  52.278  1.00  0.00     0.345 A 
HETATM   20  O   UNL     1      24.308  44.631  52.937  1.00  0.00    -0.245 OA
HETATM   21  N   UNL     1      26.200  43.373  52.587  1.00  0.00    -0.323 N 
HETATM   22  C   UNL     1      27.295  43.292  51.636  1.00  0.00     0.117 A 
HETATM   23  H   UNL     1      26.036  42.758  53.374  1.00  0.00     0.165 HD
HETATM   24  C   UNL     1      27.292  41.961  50.879  1.00  0.00     0.041 C 
HETATM   25  C   UNL     1      28.638  43.576  52.315  1.00  0.00     0.041 C 
HETATM   26  C   UNL     1      26.922  44.444  50.679  1.00  0.00     0.275 A 
HETATM   27  C   UNL     1      27.772  40.800  51.750  1.00  0.00     0.003 C 
HETATM   28  C   UNL     1      29.123  41.097  52.394  1.00  0.00     0.000 C 
HETATM   29  C   UNL     1      29.100  42.403  53.181  1.00  0.00     0.003 C 
HETATM   30  O   UNL     1      27.563  44.782  49.691  1.00  0.00    -0.268 OA
ENDBRANCH   2  18
TORSDOF 3
ENDMDL
MODEL 5
REMARK VINA RESULT:      -9.2      8.282     10.128
REMARK  3 active torsions:
REMARK  status: ('A' for Active; 'I' for Inactive)
REMARK    1  A    between atoms: C_3  and  C_4 
REMARK    2  A    between atoms: C_8  and  C_9 
REMARK       I    between atoms: C_9  and  N_10 
REMARK    3  A    between atoms: N_10  and  N_11 
ROOT
HETATM    1  C   UNL     1      27.765  40.813  51.075  1.00  0.00     0.291 C 
HETATM    2  N   UNL     1      28.819  40.371  50.307  1.00  0.00    -0.251 N 
HETATM    3  O   UNL     1      26.650  40.296  51.087  1.00  0.00    -0.264 OA
HETATM    4  H   UNL     1      29.707  40.860  50.339  1.00  0.00     0.191 HD
ENDROOT
BRANCH   1   5
HETATM    5  C   UNL     1      28.116  41.980  51.894  1.00  0.00     0.148 A 
HETATM    6  N   UNL     1      27.928  43.242  51.458  1.00  0.00    -0.169 NA
HETATM    7  N   UNL     1      28.352  44.004  52.483  1.00  0.00    -0.277 N 
HETATM    8  C   UNL     1      28.852  43.296  53.547  1.00  0.00     0.064 A 
HETATM    9  H   UNL     1      28.281  45.012  52.398  1.00  0.00     0.189 HD
HETATM   10  C   UNL     1      28.694  41.972  53.187  1.00  0.00     0.071 A 
BRANCH   8  11
HETATM   11  C   UNL     1      29.451  43.911  54.734  1.00  0.00     0.014 A 
HETATM   12  C   UNL     1      30.562  43.277  55.317  1.00  0.00     0.015 A 
HETATM   13  C   UNL     1      31.198  43.814  56.440  1.00  0.00     0.001 A 
HETATM   14  C   UNL     1      30.727  44.993  57.006  1.00  0.00     0.002 A 
HETATM   15  C   UNL     1      29.623  45.637  56.451  1.00  0.00     0.025 A 
HETATM   16  C   UNL     1      28.988  45.104  55.321  1.00  0.00     0.046 A 
HETATM   17 CL   UNL     1      27.613  45.968  54.718  1.00  0.00    -0.083 Cl
ENDBRANCH   8  11
ENDBRANCH   1   5
BRANCH   2  18
HETATM   18  N   UNL     1      28.675  39.247  49.527  1.00  0.00    -0.167 N 
HETATM   19  C   UNL     1      29.058  37.991  49.921  1.00  0.00     0.345 A 
HETATM   20  O   UNL     1      29.672  37.658  50.921  1.00  0.00    -0.245 OA
HETATM   21  N   UNL     1      28.638  37.105  48.944  1.00  0.00    -0.323 N 
HETATM   22  C   UNL     1      27.929  37.766  47.862  1.00  0.00     0.117 A 
HETATM   23  H   UNL     1      28.793  36.110  49.047  1.00  0.00     0.165 HD
HETATM   24  C   UNL     1      26.471  37.306  47.774  1.00  0.00     0.041 C 
HETATM   25  C   UNL     1      28.674  37.604  46.534  1.00  0.00     0.041 C 
HETATM   26  C   UNL     1      27.992  39.233  48.339  1.00  0.00     0.275 A 
HETATM   27  C   UNL     1      26.344  35.899  47.191  1.00  0.00     0.003 C 
HETATM   28  C   UNL     1      27.072  35.770  45.857  1.00  0.00     0.000 C 
HETATM   29  C   UNL     1      28.535  36.190  45.968  1.00  0.00     0.003 C 
HETATM   30  O   UNL     1      27.521  40.194  47.743  1.00  0.00    -0.268 OA
ENDBRANCH   2  18
TORSDOF 3
ENDMDL
MODEL 6
REMARK VINA RESULT:      -9.2      1.937      2.431
REMARK  3 active torsions:
REMARK  status: ('A' for Active; 'I' for Inactive)
REMARK    1  A    between atoms: C_3  and  C_4 
REMARK    2  A    between atoms: C_8  and  C_9 
REMARK       I    between atoms: C_9  and  N_10 
REMARK    3  A    between atoms: N_10  and  N_11 
ROOT
HETATM    1  C   UNL     1      24.571  47.522  49.561  1.00  0.00     0.291 C 
HETATM    2  N   UNL     1      24.016  47.044  50.727  1.00  0.00    -0.251 N 
HETATM    3  O   UNL     1      25.657  47.164  49.111  1.00  0.00    -0.264 OA
HETATM    4  H   UNL     1      23.120  47.400  51.043  1.00  0.00     0.191 HD
ENDROOT
BRANCH   1   5
HETATM    5  C   UNL     1      23.716  48.513  48.896  1.00  0.00     0.148 A 
HETATM    6  N   UNL     1      24.214  49.429  48.041  1.00  0.00    -0.169 NA
HETATM    7  N   UNL     1      23.132  50.125  47.646  1.00  0.00    -0.277 N 
HETATM    8  C   UNL     1      21.959  49.735  48.242  1.00  0.00     0.064 A 
HETATM    9  H   UNL     1      23.256  50.867  46.966  1.00  0.00     0.189 HD
HETATM   10  C   UNL     1      22.317  48.675  49.050  1.00  0.00     0.071 A 
BRANCH   8  11
HETATM   11  C   UNL     1      20.672  50.404  48.035  1.00  0.00     0.014 A 
HETATM   12  C   UNL     1      20.492  51.679  48.599  1.00  0.00     0.015 A 
HETATM   13  C   UNL     1      19.299  52.386  48.429  1.00  0.00     0.001 A 
HETATM   14  C   UNL     1      18.257  51.825  47.698  1.00  0.00     0.002 A 
HETATM   15  C   UNL     1      18.409  50.558  47.136  1.00  0.00     0.025 A 
HETATM   16  C   UNL     1      19.607  49.850  47.299  1.00  0.00     0.046 A 
HETATM   17 CL   UNL     1      19.689  48.278  46.578  1.00  0.00    -0.083 Cl
ENDBRANCH   8  11
ENDBRANCH   1   5
BRANCH   2  18
HETATM   18  N   UNL     1      24.662  46.062  51.442  1.00  0.00    -0.167 N 
HETATM   19  C   UNL     1      24.377  44.726  51.331  1.00  0.00     0.345 A 
HETATM   20  O   UNL     1      23.474  44.187  50.712  1.00  0.00    -0.245 OA
HETATM   21  N   UNL     1      25.309  44.040  52.089  1.00  0.00    -0.323 N 
HETATM   22  C   UNL     1      26.273  44.925  52.719  1.00  0.00     0.117 A 
HETATM   23  H   UNL     1      25.302  43.028  52.127  1.00  0.00     0.165 HD
HETATM   24  C   UNL     1      27.694  44.675  52.205  1.00  0.00     0.041 C 
HETATM   25  C   UNL     1      26.182  44.843  54.246  1.00  0.00     0.041 C 
HETATM   26  C   UNL     1      25.765  46.295  52.222  1.00  0.00     0.275 A 
HETATM   27  C   UNL     1      28.293  43.386  52.766  1.00  0.00     0.003 C 
HETATM   28  C   UNL     1      28.213  43.341  54.289  1.00  0.00     0.000 C 
HETATM   29  C   UNL     1      26.786  43.547  54.787  1.00  0.00     0.003 C 
HETATM   30  O   UNL     1      26.264  47.379  52.496  1.00  0.00    -0.268 OA
ENDBRANCH   2  18
TORSDOF 3
ENDMDL
MODEL 7
REMARK VINA RESULT:      -9.1      1.383      1.465
REMARK  3 active torsions:
REMARK  status: ('A' for Active; 'I' for Inactive)
REMARK    1  A    between atoms: C_3  and  C_4 
REMARK    2  A    between atoms: C_8  and  C_9 
REMARK       I    between atoms: C_9  and  N_10 
REMARK    3  A    between atoms: N_10  and  N_11 
ROOT
HETATM    1  C   UNL     1      23.703  45.701  48.768  1.00  0.00     0.291 C 
HETATM    2  N   UNL     1      24.453  46.065  49.864  1.00  0.00    -0.251 N 
HETATM    3  O   UNL     1      23.862  44.662  48.131  1.00  0.00    -0.264 OA
HETATM    4  H   UNL     1      24.271  46.948  50.329  1.00  0.00     0.191 HD
ENDROOT
BRANCH   1   5
HETATM    5  C   UNL     1      22.674  46.694  48.436  1.00  0.00     0.148 A 
HETATM    6  N   UNL     1      22.066  46.719  47.232  1.00  0.00    -0.169 NA
HETATM    7  N   UNL     1      21.199  47.744  47.330  1.00  0.00    -0.277 N 
HETATM    8  C   UNL     1      21.249  48.417  48.524  1.00  0.00     0.064 A 
HETATM    9  H   UNL     1      20.595  47.944  46.539  1.00  0.00     0.189 HD
HETATM   10  C   UNL     1      22.195  47.739  49.265  1.00  0.00     0.071 A 
BRANCH   8  11
HETATM   11  C   UNL     1      20.463  49.617  48.823  1.00  0.00     0.014 A 
HETATM   12  C   UNL     1      20.854  50.828  48.225  1.00  0.00     0.015 A 
HETATM   13  C   UNL     1      20.143  52.010  48.449  1.00  0.00     0.001 A 
HETATM   14  C   UNL     1      19.030  52.005  49.284  1.00  0.00     0.002 A 
HETATM   15  C   UNL     1      18.628  50.818  49.894  1.00  0.00     0.025 A 
HETATM   16  C   UNL     1      19.335  49.629  49.666  1.00  0.00     0.046 A 
HETATM   17 CL   UNL     1      18.766  48.213  50.485  1.00  0.00    -0.083 Cl
ENDBRANCH   8  11
ENDBRANCH   1   5
BRANCH   2  18
HETATM   18  N   UNL     1      25.421  45.215  50.346  1.00  0.00    -0.167 N 
HETATM   19  C   UNL     1      26.749  45.309  50.019  1.00  0.00     0.345 A 
HETATM   20  O   UNL     1      27.284  46.037  49.199  1.00  0.00    -0.245 OA
HETATM   21  N   UNL     1      27.431  44.385  50.790  1.00  0.00    -0.323 N 
HETATM   22  C   UNL     1      26.553  43.651  51.685  1.00  0.00     0.117 A 
HETATM   23  H   UNL     1      28.438  44.303  50.730  1.00  0.00     0.165 HD
HETATM   24  C   UNL     1      26.884  43.925  53.155  1.00  0.00     0.041 C 
HETATM   25  C   UNL     1      26.552  42.155  51.355  1.00  0.00     0.041 C 
HETATM   26  C   UNL     1      25.192  44.283  51.324  1.00  0.00     0.275 A 
HETATM   27  C   UNL     1      28.165  43.220  53.600  1.00  0.00     0.003 C 
HETATM   28  C   UNL     1      28.128  41.727  53.284  1.00  0.00     0.000 C 
HETATM   29  C   UNL     1      27.841  41.469  51.808  1.00  0.00     0.003 C 
HETATM   30  O   UNL     1      24.115  43.982  51.824  1.00  0.00    -0.268 OA
ENDBRANCH   2  18
TORSDOF 3
ENDMDL
MODEL 8
REMARK VINA RESULT:      -8.9      4.396      9.174
REMARK  3 active torsions:
REMARK  status: ('A' for Active; 'I' for Inactive)
REMARK    1  A    between atoms: C_3  and  C_4 
REMARK    2  A    between atoms: C_8  and  C_9 
REMARK       I    between atoms: C_9  and  N_10 
REMARK    3  A    between atoms: N_10  and  N_11 
ROOT
HETATM    1  C   UNL     1      25.064  44.679  50.295  1.00  0.00     0.291 C 
HETATM    2  N   UNL     1      23.740  45.029  50.443  1.00  0.00    -0.251 N 
HETATM    3  O   UNL     1      25.647  44.610  49.216  1.00  0.00    -0.264 OA
HETATM    4  H   UNL     1      23.324  45.049  51.368  1.00  0.00     0.191 HD
ENDROOT
BRANCH   1   5
HETATM    5  C   UNL     1      25.718  44.398  51.579  1.00  0.00     0.148 A 
HETATM    6  N   UNL     1      25.027  43.975  52.657  1.00  0.00    -0.169 NA
HETATM    7  N   UNL     1      25.970  43.822  53.605  1.00  0.00    -0.277 N 
HETATM    8  C   UNL     1      27.236  44.172  53.208  1.00  0.00     0.064 A 
HETATM    9  H   UNL     1      25.688  43.477  54.517  1.00  0.00     0.189 HD
HETATM   10  C   UNL     1      27.095  44.537  51.884  1.00  0.00     0.071 A 
BRANCH   8  11
HETATM   11  C   UNL     1      28.403  44.173  54.093  1.00  0.00     0.014 A 
HETATM   12  C   UNL     1      28.512  45.205  55.041  1.00  0.00     0.015 A 
HETATM   13  C   UNL     1      29.587  45.262  55.932  1.00  0.00     0.001 A 
HETATM   14  C   UNL     1      30.581  44.290  55.884  1.00  0.00     0.002 A 
HETATM   15  C   UNL     1      30.499  43.261  54.948  1.00  0.00     0.025 A 
HETATM   16  C   UNL     1      29.418  43.197  54.058  1.00  0.00     0.046 A 
HETATM   17 CL   UNL     1      29.418  41.890  52.922  1.00  0.00    -0.083 Cl
ENDBRANCH   8  11
ENDBRANCH   1   5
BRANCH   2  18
HETATM   18  N   UNL     1      22.997  45.383  49.341  1.00  0.00    -0.167 N 
HETATM   19  C   UNL     1      22.986  46.644  48.803  1.00  0.00     0.345 A 
HETATM   20  O   UNL     1      23.499  47.663  49.234  1.00  0.00    -0.245 OA
HETATM   21  N   UNL     1      22.242  46.590  47.638  1.00  0.00    -0.323 N 
HETATM   22  C   UNL     1      21.747  45.254  47.356  1.00  0.00     0.117 A 
HETATM   23  H   UNL     1      22.126  47.412  47.059  1.00  0.00     0.165 HD
HETATM   24  C   UNL     1      22.334  44.693  46.058  1.00  0.00     0.041 C 
HETATM   25  C   UNL     1      20.215  45.217  47.368  1.00  0.00     0.041 C 
HETATM   26  C   UNL     1      22.313  44.482  48.568  1.00  0.00     0.275 A 
HETATM   27  C   UNL     1      21.717  45.339  44.818  1.00  0.00     0.003 C 
HETATM   28  C   UNL     1      20.193  45.267  44.841  1.00  0.00     0.000 C 
HETATM   29  C   UNL     1      19.618  45.868  46.120  1.00  0.00     0.003 C 
HETATM   30  O   UNL     1      22.156  43.287  48.785  1.00  0.00    -0.268 OA
ENDBRANCH   2  18
TORSDOF 3
ENDMDL
MODEL 9
REMARK VINA RESULT:      -8.6     20.526     22.060
REMARK  3 active torsions:
REMARK  status: ('A' for Active; 'I' for Inactive)
REMARK    1  A    between atoms: C_3  and  C_4 
REMARK    2  A    between atoms: C_8  and  C_9 
REMARK       I    between atoms: C_9  and  N_10 
REMARK    3  A    between atoms: N_10  and  N_11 
ROOT
HETATM    1  C   UNL     1      38.326  42.424  64.408  1.00  0.00     0.291 C 
HETATM    2  N   UNL     1      39.570  42.041  63.960  1.00  0.00    -0.251 N 
HETATM    3  O   UNL     1      37.493  41.656  64.884  1.00  0.00    -0.264 OA
HETATM    4  H   UNL     1      40.199  42.733  63.564  1.00  0.00     0.191 HD
ENDROOT
BRANCH   1   5
HETATM    5  C   UNL     1      38.094  43.867  64.262  1.00  0.00     0.148 A 
HETATM    6  N   UNL     1      37.469  44.385  63.186  1.00  0.00    -0.169 NA
HETATM    7  N   UNL     1      37.442  45.708  63.435  1.00  0.00    -0.277 N 
HETATM    8  C   UNL     1      38.065  46.078  64.600  1.00  0.00     0.064 A 
HETATM    9  H   UNL     1      36.986  46.317  62.764  1.00  0.00     0.189 HD
HETATM   10  C   UNL     1      38.485  44.889  65.161  1.00  0.00     0.071 A 
BRANCH   8  11
HETATM   11  C   UNL     1      38.239  47.467  65.032  1.00  0.00     0.014 A 
HETATM   12  C   UNL     1      39.464  48.098  64.751  1.00  0.00     0.015 A 
HETATM   13  C   UNL     1      39.697  49.426  65.116  1.00  0.00     0.001 A 
HETATM   14  C   UNL     1      38.709  50.148  65.778  1.00  0.00     0.002 A 
HETATM   15  C   UNL     1      37.489  49.543  66.073  1.00  0.00     0.025 A 
HETATM   16  C   UNL     1      37.251  48.212  65.703  1.00  0.00     0.046 A 
HETATM   17 CL   UNL     1      35.711  47.546  66.132  1.00  0.00    -0.083 Cl
ENDBRANCH   8  11
ENDBRANCH   1   5
BRANCH   2  18
HETATM   18  N   UNL     1      39.970  40.731  64.081  1.00  0.00    -0.167 N 
HETATM   19  C   UNL     1      39.855  39.803  63.079  1.00  0.00     0.345 A 
HETATM   20  O   UNL     1      39.303  39.911  61.997  1.00  0.00    -0.245 OA
HETATM   21  N   UNL     1      40.479  38.646  63.513  1.00  0.00    -0.323 N 
HETATM   22  C   UNL     1      41.057  38.790  64.837  1.00  0.00     0.117 A 
HETATM   23  H   UNL     1      40.538  37.834  62.913  1.00  0.00     0.165 HD
HETATM   24  C   UNL     1      42.582  38.646  64.811  1.00  0.00     0.041 C 
HETATM   25  C   UNL     1      40.397  37.832  65.835  1.00  0.00     0.041 C 
HETATM   26  C   UNL     1      40.671  40.250  65.157  1.00  0.00     0.275 A 
HETATM   27  C   UNL     1      43.022  37.195  64.619  1.00  0.00     0.003 C 
HETATM   28  C   UNL     1      42.371  36.266  65.639  1.00  0.00     0.000 C 
HETATM   29  C   UNL     1      40.850  36.387  65.626  1.00  0.00     0.003 C 
HETATM   30  O   UNL     1      40.939  40.845  66.193  1.00  0.00    -0.268 OA
ENDBRANCH   2  18
TORSDOF 3
ENDMDL
MODEL 10
REMARK VINA RESULT:      -8.5     13.243     16.122
REMARK  3 active torsions:
REMARK  status: ('A' for Active; 'I' for Inactive)
REMARK    1  A    between atoms: C_3  and  C_4 
REMARK    2  A    between atoms: C_8  and  C_9 
REMARK       I    between atoms: C_9  and  N_10 
REMARK    3  A    between atoms: N_10  and  N_11 
ROOT
HETATM    1  C   UNL     1      34.774  51.011  42.157  1.00  0.00     0.291 C 
HETATM    2  N   UNL     1      33.614  51.641  42.548  1.00  0.00    -0.251 N 
HETATM    3  O   UNL     1      34.834  50.143  41.289  1.00  0.00    -0.264 OA
HETATM    4  H   UNL     1      33.642  52.339  43.284  1.00  0.00     0.191 HD
ENDROOT
BRANCH   1   5
HETATM    5  C   UNL     1      35.951  51.493  42.890  1.00  0.00     0.148 A 
HETATM    6  N   UNL     1      37.173  50.951  42.716  1.00  0.00    -0.169 NA
HETATM    7  N   UNL     1      37.963  51.665  43.540  1.00  0.00    -0.277 N 
HETATM    8  C   UNL     1      37.302  52.614  44.277  1.00  0.00     0.064 A 
HETATM    9  H   UNL     1      38.955  51.454  43.562  1.00  0.00     0.189 HD
HETATM   10  C   UNL     1      35.990  52.527  43.858  1.00  0.00     0.071 A 
BRANCH   8  11
HETATM   11  C   UNL     1      37.937  53.448  45.301  1.00  0.00     0.014 A 
HETATM   12  C   UNL     1      38.144  52.888  46.574  1.00  0.00     0.015 A 
HETATM   13  C   UNL     1      38.760  53.616  47.595  1.00  0.00     0.001 A 
HETATM   14  C   UNL     1      39.175  54.923  47.364  1.00  0.00     0.002 A 
HETATM   15  C   UNL     1      38.975  55.502  46.113  1.00  0.00     0.025 A 
HETATM   16  C   UNL     1      38.362  54.773  45.084  1.00  0.00     0.046 A 
HETATM   17 CL   UNL     1      38.143  55.588  43.572  1.00  0.00    -0.083 Cl
ENDBRANCH   8  11
ENDBRANCH   1   5
BRANCH   2  18
HETATM   18  N   UNL     1      32.427  51.349  41.916  1.00  0.00    -0.167 N 
HETATM   19  C   UNL     1      31.567  50.364  42.327  1.00  0.00     0.345 A 
HETATM   20  O   UNL     1      31.726  49.526  43.199  1.00  0.00    -0.245 OA
HETATM   21  N   UNL     1      30.431  50.453  41.542  1.00  0.00    -0.323 N 
HETATM   22  C   UNL     1      30.503  51.540  40.582  1.00  0.00     0.117 A 
HETATM   23  H   UNL     1      29.647  49.832  41.694  1.00  0.00     0.165 HD
HETATM   24  C   UNL     1      29.431  52.602  40.845  1.00  0.00     0.041 C 
HETATM   25  C   UNL     1      30.462  51.012  39.144  1.00  0.00     0.041 C 
HETATM   26  C   UNL     1      31.900  52.111  40.906  1.00  0.00     0.275 A 
HETATM   27  C   UNL     1      28.038  52.132  40.426  1.00  0.00     0.003 C 
HETATM   28  C   UNL     1      28.018  51.635  38.984  1.00  0.00     0.000 C 
HETATM   29  C   UNL     1      29.061  50.548  38.745  1.00  0.00     0.003 C 
HETATM   30  O   UNL     1      32.427  53.062  40.342  1.00  0.00    -0.268 OA
ENDBRANCH   2  18
TORSDOF 3
ENDMDL
