MODEL 1
REMARK VINA RESULT:      -8.6      0.000      0.000
REMARK  3 active torsions:
REMARK  status: ('A' for Active; 'I' for Inactive)
REMARK    1  A    between atoms: C_3  and  N_4 
REMARK       I    between atoms: N_4  and  C_5 
REMARK    2  A    between atoms: C_5  and  C_6 
REMARK    3  A    between atoms: C_6  and  C_7 
ROOT
HETATM    1  C   UNL     1      26.391  45.785  52.249  1.00  0.00     0.286 C 
HETATM    2  N   UNL     1      26.720  44.370  51.775  1.00  0.00    -0.056 N 
HETATM    3  H   UNL     1      27.237  44.443  50.892  1.00  0.00     0.278 HD
HETATM    4  H   UNL     1      27.403  43.976  52.457  1.00  0.00     0.278 HD
HETATM    5  C   UNL     1      25.521  43.470  51.622  1.00  0.00     0.209 C 
HETATM    6  C   UNL     1      24.491  44.150  50.682  1.00  0.00     0.115 C 
HETATM    7  N   UNL     1      24.229  45.540  51.055  1.00  0.00    -0.353 N 
HETATM    8  C   UNL     1      25.193  46.402  51.515  1.00  0.00     0.249 C 
HETATM    9  O   UNL     1      25.024  47.614  51.450  1.00  0.00    -0.271 OA
HETATM   10  C   UNL     1      25.975  42.099  51.116  1.00  0.00     0.035 C 
HETATM   11  C   UNL     1      26.366  42.088  49.639  1.00  0.00     0.002 C 
HETATM   12  C   UNL     1      25.268  42.684  48.766  1.00  0.00     0.002 C 
HETATM   13  C   UNL     1      24.918  44.099  49.208  1.00  0.00     0.027 C 
HETATM   14  H   UNL     1      23.448  46.016  50.603  1.00  0.00     0.163 HD
ENDROOT
BRANCH   1  15
HETATM   15  C   UNL     1      26.085  45.835  53.751  1.00  0.00     0.146 C 
BRANCH  15  16
HETATM   16  C   UNL     1      26.967  44.891  54.531  1.00  0.00     0.224 C 
HETATM   17  N   UNL     1      28.189  45.448  54.829  1.00  0.00    -0.327 N 
HETATM   18  H   UNL     1      28.261  46.454  54.716  1.00  0.00     0.169 HD
HETATM   19  O   UNL     1      26.503  43.816  54.900  1.00  0.00    -0.273 OA
BRANCH  17  20
HETATM   20  C   UNL     1      29.281  44.874  55.521  1.00  0.00     0.040 A 
HETATM   21  C   UNL     1      30.049  43.771  55.111  1.00  0.00    -0.035 A 
HETATM   22  C   UNL     1      29.904  43.060  53.796  1.00  0.00     0.050 C 
HETATM   23  C   UNL     1      31.081  43.312  55.960  1.00  0.00     0.009 A 
HETATM   24  C   UNL     1      31.387  43.959  57.154  1.00  0.00     0.001 A 
HETATM   25  C   UNL     1      30.671  45.088  57.525  1.00  0.00     0.002 A 
HETATM   26  C   UNL     1      29.633  45.542  56.711  1.00  0.00     0.030 A 
ENDBRANCH  17  20
ENDBRANCH  15  16
ENDBRANCH   1  15
TORSDOF 3
ENDMDL
MODEL 2
REMARK VINA RESULT:      -8.5      2.659      7.180
REMARK  3 active torsions:
REMARK  status: ('A' for Active; 'I' for Inactive)
REMARK    1  A    between atoms: C_3  and  N_4 
REMARK       I    between atoms: N_4  and  C_5 
REMARK    2  A    between atoms: C_5  and  C_6 
REMARK    3  A    between atoms: C_6  and  C_7 
ROOT
HETATM    1  C   UNL     1      26.774  44.670  52.032  1.00  0.00     0.286 C 
HETATM    2  N   UNL     1      27.692  45.196  53.134  1.00  0.00    -0.056 N 
HETATM    3  H   UNL     1      28.663  45.103  52.811  1.00  0.00     0.278 HD
HETATM    4  H   UNL     1      27.526  46.224  53.197  1.00  0.00     0.278 HD
HETATM    5  C   UNL     1      27.506  44.530  54.473  1.00  0.00     0.209 C 
HETATM    6  C   UNL     1      27.660  42.995  54.302  1.00  0.00     0.115 C 
HETATM    7  N   UNL     1      26.864  42.475  53.190  1.00  0.00    -0.353 N 
HETATM    8  C   UNL     1      26.692  43.137  52.001  1.00  0.00     0.249 C 
HETATM    9  O   UNL     1      26.358  42.526  50.993  1.00  0.00    -0.271 OA
HETATM   10  C   UNL     1      28.498  45.120  55.478  1.00  0.00     0.035 C 
HETATM   11  C   UNL     1      29.936  44.650  55.270  1.00  0.00     0.002 C 
HETATM   12  C   UNL     1      30.024  43.129  55.208  1.00  0.00     0.002 C 
HETATM   13  C   UNL     1      29.123  42.569  54.114  1.00  0.00     0.027 C 
HETATM   14  H   UNL     1      26.769  41.464  53.104  1.00  0.00     0.163 HD
ENDROOT
BRANCH   1  15
HETATM   15  C   UNL     1      25.343  45.204  52.168  1.00  0.00     0.146 C 
BRANCH  15  16
HETATM   16  C   UNL     1      25.242  46.644  51.730  1.00  0.00     0.224 C 
HETATM   17  N   UNL     1      24.905  46.761  50.402  1.00  0.00    -0.327 N 
HETATM   18  H   UNL     1      24.540  45.924  49.958  1.00  0.00     0.169 HD
HETATM   19  O   UNL     1      25.357  47.529  52.574  1.00  0.00    -0.273 OA
BRANCH  17  20
HETATM   20  C   UNL     1      24.737  47.934  49.628  1.00  0.00     0.040 A 
HETATM   21  C   UNL     1      25.756  48.758  49.122  1.00  0.00    -0.035 A 
HETATM   22  C   UNL     1      27.228  48.478  49.233  1.00  0.00     0.050 C 
HETATM   23  C   UNL     1      25.393  49.917  48.401  1.00  0.00     0.009 A 
HETATM   24  C   UNL     1      24.061  50.225  48.135  1.00  0.00     0.001 A 
HETATM   25  C   UNL     1      23.060  49.374  48.578  1.00  0.00     0.002 A 
HETATM   26  C   UNL     1      23.398  48.237  49.312  1.00  0.00     0.030 A 
ENDBRANCH  17  20
ENDBRANCH  15  16
ENDBRANCH   1  15
TORSDOF 3
ENDMDL
MODEL 3
REMARK VINA RESULT:      -8.5      2.272      3.622
REMARK  3 active torsions:
REMARK  status: ('A' for Active; 'I' for Inactive)
REMARK    1  A    between atoms: C_3  and  N_4 
REMARK       I    between atoms: N_4  and  C_5 
REMARK    2  A    between atoms: C_5  and  C_6 
REMARK    3  A    between atoms: C_6  and  C_7 
ROOT
HETATM    1  C   UNL     1      27.648  41.418  51.983  1.00  0.00     0.286 C 
HETATM    2  N   UNL     1      26.356  42.228  51.879  1.00  0.00    -0.056 N 
HETATM    3  H   UNL     1      25.566  41.580  51.979  1.00  0.00     0.278 HD
HETATM    4  H   UNL     1      26.315  42.837  52.724  1.00  0.00     0.278 HD
HETATM    5  C   UNL     1      26.228  43.038  50.616  1.00  0.00     0.209 C 
HETATM    6  C   UNL     1      26.401  42.101  49.391  1.00  0.00     0.115 C 
HETATM    7  N   UNL     1      27.580  41.243  49.507  1.00  0.00    -0.353 N 
HETATM    8  C   UNL     1      27.997  40.676  50.686  1.00  0.00     0.249 C 
HETATM    9  O   UNL     1      28.729  39.693  50.677  1.00  0.00    -0.271 OA
HETATM   10  C   UNL     1      24.887  43.775  50.616  1.00  0.00     0.035 C 
HETATM   11  C   UNL     1      23.688  42.869  50.341  1.00  0.00     0.002 C 
HETATM   12  C   UNL     1      23.887  42.049  49.071  1.00  0.00     0.002 C 
HETATM   13  C   UNL     1      25.166  41.224  49.143  1.00  0.00     0.027 C 
HETATM   14  H   UNL     1      27.870  40.716  48.684  1.00  0.00     0.163 HD
ENDROOT
BRANCH   1  15
HETATM   15  C   UNL     1      28.851  42.294  52.350  1.00  0.00     0.146 C 
BRANCH  15  16
HETATM   16  C   UNL     1      28.774  42.777  53.778  1.00  0.00     0.224 C 
HETATM   17  N   UNL     1      29.917  43.436  54.166  1.00  0.00    -0.327 N 
HETATM   18  H   UNL     1      30.542  43.724  53.420  1.00  0.00     0.169 HD
HETATM   19  O   UNL     1      27.719  42.642  54.392  1.00  0.00    -0.273 OA
BRANCH  17  20
HETATM   20  C   UNL     1      30.228  44.010  55.422  1.00  0.00     0.040 A 
HETATM   21  C   UNL     1      29.739  45.222  55.935  1.00  0.00    -0.035 A 
HETATM   22  C   UNL     1      28.705  46.086  55.271  1.00  0.00     0.050 C 
HETATM   23  C   UNL     1      30.198  45.656  57.199  1.00  0.00     0.009 A 
HETATM   24  C   UNL     1      31.072  44.886  57.963  1.00  0.00     0.001 A 
HETATM   25  C   UNL     1      31.502  43.659  57.482  1.00  0.00     0.002 A 
HETATM   26  C   UNL     1      31.077  43.224  56.227  1.00  0.00     0.030 A 
ENDBRANCH  17  20
ENDBRANCH  15  16
ENDBRANCH   1  15
TORSDOF 3
ENDMDL
MODEL 4
REMARK VINA RESULT:      -8.5      1.946      3.236
REMARK  3 active torsions:
REMARK  status: ('A' for Active; 'I' for Inactive)
REMARK    1  A    between atoms: C_3  and  N_4 
REMARK       I    between atoms: N_4  and  C_5 
REMARK    2  A    between atoms: C_5  and  C_6 
REMARK    3  A    between atoms: C_6  and  C_7 
ROOT
HETATM    1  C   UNL     1      26.704  42.939  51.786  1.00  0.00     0.286 C 
HETATM    2  N   UNL     1      26.212  44.360  52.056  1.00  0.00    -0.056 N 
HETATM    3  H   UNL     1      25.185  44.348  52.051  1.00  0.00     0.278 HD
HETATM    4  H   UNL     1      26.474  44.587  53.040  1.00  0.00     0.278 HD
HETATM    5  C   UNL     1      26.741  45.397  51.099  1.00  0.00     0.209 C 
HETATM    6  C   UNL     1      26.416  44.959  49.646  1.00  0.00     0.115 C 
HETATM    7  N   UNL     1      26.789  43.569  49.385  1.00  0.00    -0.353 N 
HETATM    8  C   UNL     1      26.645  42.556  50.301  1.00  0.00     0.249 C 
HETATM    9  O   UNL     1      26.606  41.388  49.933  1.00  0.00    -0.271 OA
HETATM   10  C   UNL     1      26.154  46.765  51.454  1.00  0.00     0.035 C 
HETATM   11  C   UNL     1      24.687  46.925  51.060  1.00  0.00     0.002 C 
HETATM   12  C   UNL     1      24.460  46.570  49.595  1.00  0.00     0.002 C 
HETATM   13  C   UNL     1      24.935  45.155  49.291  1.00  0.00     0.027 C 
HETATM   14  H   UNL     1      26.770  43.243  48.420  1.00  0.00     0.163 HD
ENDROOT
BRANCH   1  15
HETATM   15  C   UNL     1      28.147  42.728  52.258  1.00  0.00     0.146 C 
BRANCH  15  16
HETATM   16  C   UNL     1      28.301  43.023  53.730  1.00  0.00     0.224 C 
HETATM   17  N   UNL     1      29.499  43.635  54.016  1.00  0.00    -0.327 N 
HETATM   18  H   UNL     1      30.005  44.020  53.224  1.00  0.00     0.169 HD
HETATM   19  O   UNL     1      27.354  42.803  54.480  1.00  0.00    -0.273 OA
BRANCH  17  20
HETATM   20  C   UNL     1      30.012  44.044  55.270  1.00  0.00     0.040 A 
HETATM   21  C   UNL     1      29.712  45.237  55.949  1.00  0.00    -0.035 A 
HETATM   22  C   UNL     1      28.703  46.255  55.501  1.00  0.00     0.050 C 
HETATM   23  C   UNL     1      30.357  45.494  57.180  1.00  0.00     0.009 A 
HETATM   24  C   UNL     1      31.229  44.572  57.755  1.00  0.00     0.001 A 
HETATM   25  C   UNL     1      31.470  43.366  57.114  1.00  0.00     0.002 A 
HETATM   26  C   UNL     1      30.861  43.105  55.887  1.00  0.00     0.030 A 
ENDBRANCH  17  20
ENDBRANCH  15  16
ENDBRANCH   1  15
TORSDOF 3
ENDMDL
MODEL 5
REMARK VINA RESULT:      -8.3      1.905      2.756
REMARK  3 active torsions:
REMARK  status: ('A' for Active; 'I' for Inactive)
REMARK    1  A    between atoms: C_3  and  N_4 
REMARK       I    between atoms: N_4  and  C_5 
REMARK    2  A    between atoms: C_5  and  C_6 
REMARK    3  A    between atoms: C_6  and  C_7 
ROOT
HETATM    1  C   UNL     1      27.298  43.409  51.198  1.00  0.00     0.286 C 
HETATM    2  N   UNL     1      27.310  41.883  51.128  1.00  0.00    -0.056 N 
HETATM    3  H   UNL     1      28.204  41.590  50.714  1.00  0.00     0.278 HD
HETATM    4  H   UNL     1      27.342  41.537  52.111  1.00  0.00     0.278 HD
HETATM    5  C   UNL     1      26.150  41.283  50.376  1.00  0.00     0.209 C 
HETATM    6  C   UNL     1      26.087  41.908  48.957  1.00  0.00     0.115 C 
HETATM    7  N   UNL     1      26.170  43.368  48.986  1.00  0.00    -0.353 N 
HETATM    8  C   UNL     1      26.973  44.069  49.851  1.00  0.00     0.249 C 
HETATM    9  O   UNL     1      27.298  45.223  49.598  1.00  0.00    -0.271 OA
HETATM   10  C   UNL     1      26.292  39.760  50.350  1.00  0.00     0.035 C 
HETATM   11  C   UNL     1      27.372  39.260  49.392  1.00  0.00     0.002 C 
HETATM   12  C   UNL     1      27.190  39.839  47.994  1.00  0.00     0.002 C 
HETATM   13  C   UNL     1      27.179  41.362  48.026  1.00  0.00     0.027 C 
HETATM   14  H   UNL     1      25.970  43.874  48.124  1.00  0.00     0.163 HD
ENDROOT
BRANCH   1  15
HETATM   15  C   UNL     1      26.284  43.932  52.222  1.00  0.00     0.146 C 
BRANCH  15  16
HETATM   16  C   UNL     1      26.879  44.006  53.607  1.00  0.00     0.224 C 
HETATM   17  N   UNL     1      28.226  44.280  53.580  1.00  0.00    -0.327 N 
HETATM   18  H   UNL     1      28.595  44.626  52.699  1.00  0.00     0.169 HD
HETATM   19  O   UNL     1      26.131  43.928  54.577  1.00  0.00    -0.273 OA
BRANCH  17  20
HETATM   20  C   UNL     1      29.129  44.405  54.662  1.00  0.00     0.040 A 
HETATM   21  C   UNL     1      29.236  45.494  55.544  1.00  0.00    -0.035 A 
HETATM   22  C   UNL     1      28.327  46.690  55.552  1.00  0.00     0.050 C 
HETATM   23  C   UNL     1      30.232  45.459  56.545  1.00  0.00     0.009 A 
HETATM   24  C   UNL     1      31.063  44.353  56.710  1.00  0.00     0.001 A 
HETATM   25  C   UNL     1      30.911  43.253  55.881  1.00  0.00     0.002 A 
HETATM   26  C   UNL     1      29.949  43.278  54.872  1.00  0.00     0.030 A 
ENDBRANCH  17  20
ENDBRANCH  15  16
ENDBRANCH   1  15
TORSDOF 3
ENDMDL
MODEL 6
REMARK VINA RESULT:      -8.3      3.385      4.688
REMARK  3 active torsions:
REMARK  status: ('A' for Active; 'I' for Inactive)
REMARK    1  A    between atoms: C_3  and  N_4 
REMARK       I    between atoms: N_4  and  C_5 
REMARK    2  A    between atoms: C_5  and  C_6 
REMARK    3  A    between atoms: C_6  and  C_7 
ROOT
HETATM    1  C   UNL     1      28.018  41.056  50.634  1.00  0.00     0.286 C 
HETATM    2  N   UNL     1      28.849  40.123  49.755  1.00  0.00    -0.056 N 
HETATM    3  H   UNL     1      28.747  40.430  48.780  1.00  0.00     0.278 HD
HETATM    4  H   UNL     1      29.849  40.301  49.990  1.00  0.00     0.278 HD
HETATM    5  C   UNL     1      28.507  38.663  49.896  1.00  0.00     0.209 C 
HETATM    6  C   UNL     1      26.988  38.470  49.638  1.00  0.00     0.115 C 
HETATM    7  N   UNL     1      26.169  39.416  50.396  1.00  0.00    -0.353 N 
HETATM    8  C   UNL     1      26.519  40.725  50.612  1.00  0.00     0.249 C 
HETATM    9  O   UNL     1      25.666  41.555  50.903  1.00  0.00    -0.271 OA
HETATM   10  C   UNL     1      29.381  37.840  48.948  1.00  0.00     0.035 C 
HETATM   11  C   UNL     1      28.971  37.953  47.480  1.00  0.00     0.002 C 
HETATM   12  C   UNL     1      27.488  37.657  47.290  1.00  0.00     0.002 C 
HETATM   13  C   UNL     1      26.628  38.574  48.149  1.00  0.00     0.027 C 
HETATM   14  H   UNL     1      25.162  39.260  50.422  1.00  0.00     0.163 HD
ENDROOT
BRANCH   1  15
HETATM   15  C   UNL     1      28.473  41.028  52.098  1.00  0.00     0.146 C 
BRANCH  15  16
HETATM   16  C   UNL     1      28.847  42.403  52.592  1.00  0.00     0.224 C 
HETATM   17  N   UNL     1      29.074  42.425  53.949  1.00  0.00    -0.327 N 
HETATM   18  H   UNL     1      29.201  41.522  54.395  1.00  0.00     0.169 HD
HETATM   19  O   UNL     1      29.011  43.303  51.772  1.00  0.00    -0.273 OA
BRANCH  17  20
HETATM   20  C   UNL     1      29.421  43.520  54.774  1.00  0.00     0.040 A 
HETATM   21  C   UNL     1      28.661  44.682  54.991  1.00  0.00    -0.035 A 
HETATM   22  C   UNL     1      27.279  44.922  54.453  1.00  0.00     0.050 C 
HETATM   23  C   UNL     1      29.193  45.693  55.821  1.00  0.00     0.009 A 
HETATM   24  C   UNL     1      30.417  45.538  56.469  1.00  0.00     0.001 A 
HETATM   25  C   UNL     1      31.133  44.363  56.306  1.00  0.00     0.002 A 
HETATM   26  C   UNL     1      30.635  43.363  55.472  1.00  0.00     0.030 A 
ENDBRANCH  17  20
ENDBRANCH  15  16
ENDBRANCH   1  15
TORSDOF 3
ENDMDL
MODEL 7
REMARK VINA RESULT:      -7.9      2.438      7.247
REMARK  3 active torsions:
REMARK  status: ('A' for Active; 'I' for Inactive)
REMARK    1  A    between atoms: C_3  and  N_4 
REMARK       I    between atoms: N_4  and  C_5 
REMARK    2  A    between atoms: C_5  and  C_6 
REMARK    3  A    between atoms: C_6  and  C_7 
ROOT
HETATM    1  C   UNL     1      27.190  43.113  51.281  1.00  0.00     0.286 C 
HETATM    2  N   UNL     1      27.432  44.105  52.417  1.00  0.00    -0.056 N 
HETATM    3  H   UNL     1      28.351  44.538  52.272  1.00  0.00     0.278 HD
HETATM    4  H   UNL     1      26.745  44.879  52.291  1.00  0.00     0.278 HD
HETATM    5  C   UNL     1      27.332  43.509  53.797  1.00  0.00     0.209 C 
HETATM    6  C   UNL     1      28.297  42.297  53.898  1.00  0.00     0.115 C 
HETATM    7  N   UNL     1      28.156  41.376  52.770  1.00  0.00    -0.353 N 
HETATM    8  C   UNL     1      27.929  41.782  51.479  1.00  0.00     0.249 C 
HETATM    9  O   UNL     1      28.192  41.040  50.540  1.00  0.00    -0.271 OA
HETATM   10  C   UNL     1      27.623  44.589  54.842  1.00  0.00     0.035 C 
HETATM   11  C   UNL     1      29.100  44.965  54.942  1.00  0.00     0.002 C 
HETATM   12  C   UNL     1      29.978  43.735  55.135  1.00  0.00     0.002 C 
HETATM   13  C   UNL     1      29.767  42.725  54.015  1.00  0.00     0.027 C 
HETATM   14  H   UNL     1      28.623  40.473  52.831  1.00  0.00     0.163 HD
ENDROOT
BRANCH   1  15
HETATM   15  C   UNL     1      25.702  42.790  51.102  1.00  0.00     0.146 C 
BRANCH  15  16
HETATM   16  C   UNL     1      24.853  44.037  51.143  1.00  0.00     0.224 C 
HETATM   17  N   UNL     1      24.809  44.677  49.927  1.00  0.00    -0.327 N 
HETATM   18  H   UNL     1      25.127  44.139  49.127  1.00  0.00     0.169 HD
HETATM   19  O   UNL     1      24.228  44.294  52.169  1.00  0.00    -0.273 OA
BRANCH  17  20
HETATM   20  C   UNL     1      24.142  45.875  49.577  1.00  0.00     0.040 A 
HETATM   21  C   UNL     1      24.564  47.185  49.862  1.00  0.00    -0.035 A 
HETATM   22  C   UNL     1      25.868  47.549  50.512  1.00  0.00     0.050 C 
HETATM   23  C   UNL     1      23.740  48.262  49.467  1.00  0.00     0.009 A 
HETATM   24  C   UNL     1      22.560  48.056  48.756  1.00  0.00     0.001 A 
HETATM   25  C   UNL     1      22.180  46.767  48.417  1.00  0.00     0.002 A 
HETATM   26  C   UNL     1      22.968  45.689  48.819  1.00  0.00     0.030 A 
ENDBRANCH  17  20
ENDBRANCH  15  16
ENDBRANCH   1  15
TORSDOF 3
ENDMDL
MODEL 8
REMARK VINA RESULT:      -7.8      6.724      9.636
REMARK  3 active torsions:
REMARK  status: ('A' for Active; 'I' for Inactive)
REMARK    1  A    between atoms: C_3  and  N_4 
REMARK       I    between atoms: N_4  and  C_5 
REMARK    2  A    between atoms: C_5  and  C_6 
REMARK    3  A    between atoms: C_6  and  C_7 
ROOT
HETATM    1  C   UNL     1      20.231  49.787  48.450  1.00  0.00     0.286 C 
HETATM    2  N   UNL     1      18.825  49.784  47.851  1.00  0.00    -0.056 N 
HETATM    3  H   UNL     1      18.687  50.673  47.356  1.00  0.00     0.278 HD
HETATM    4  H   UNL     1      18.818  49.056  47.105  1.00  0.00     0.278 HD
HETATM    5  C   UNL     1      17.722  49.550  48.851  1.00  0.00     0.209 C 
HETATM    6  C   UNL     1      17.842  50.595  49.993  1.00  0.00     0.115 C 
HETATM    7  N   UNL     1      19.202  50.690  50.522  1.00  0.00    -0.353 N 
HETATM    8  C   UNL     1      20.330  50.606  49.744  1.00  0.00     0.249 C 
HETATM    9  O   UNL     1      21.396  51.059  50.145  1.00  0.00    -0.271 OA
HETATM   10  C   UNL     1      16.369  49.600  48.139  1.00  0.00     0.035 C 
HETATM   11  C   UNL     1      15.930  51.011  47.751  1.00  0.00     0.002 C 
HETATM   12  C   UNL     1      15.982  51.959  48.943  1.00  0.00     0.002 C 
HETATM   13  C   UNL     1      17.373  51.992  49.562  1.00  0.00     0.027 C 
HETATM   14  H   UNL     1      19.345  51.222  51.379  1.00  0.00     0.163 HD
ENDROOT
BRANCH   1  15
HETATM   15  C   UNL     1      20.729  48.372  48.762  1.00  0.00     0.146 C 
BRANCH  15  16
HETATM   16  C   UNL     1      22.163  48.178  48.332  1.00  0.00     0.224 C 
HETATM   17  N   UNL     1      23.053  48.698  49.242  1.00  0.00    -0.327 N 
HETATM   18  H   UNL     1      22.678  48.916  50.161  1.00  0.00     0.169 HD
HETATM   19  O   UNL     1      22.395  47.518  47.323  1.00  0.00    -0.273 OA
BRANCH  17  20
HETATM   20  C   UNL     1      24.467  48.730  49.185  1.00  0.00     0.040 A 
HETATM   21  C   UNL     1      25.352  47.845  49.823  1.00  0.00    -0.035 A 
HETATM   22  C   UNL     1      24.944  46.633  50.611  1.00  0.00     0.050 C 
HETATM   23  C   UNL     1      26.741  48.061  49.683  1.00  0.00     0.009 A 
HETATM   24  C   UNL     1      27.245  49.085  48.884  1.00  0.00     0.001 A 
HETATM   25  C   UNL     1      26.369  49.915  48.202  1.00  0.00     0.002 A 
HETATM   26  C   UNL     1      24.994  49.732  48.347  1.00  0.00     0.030 A 
ENDBRANCH  17  20
ENDBRANCH  15  16
ENDBRANCH   1  15
TORSDOF 3
ENDMDL
MODEL 9
REMARK VINA RESULT:      -7.6      1.908      3.040
REMARK  3 active torsions:
REMARK  status: ('A' for Active; 'I' for Inactive)
REMARK    1  A    between atoms: C_3  and  N_4 
REMARK       I    between atoms: N_4  and  C_5 
REMARK    2  A    between atoms: C_5  and  C_6 
REMARK    3  A    between atoms: C_6  and  C_7 
ROOT
HETATM    1  C   UNL     1      25.198  45.280  52.038  1.00  0.00     0.286 C 
HETATM    2  N   UNL     1      25.071  46.684  51.449  1.00  0.00    -0.056 N 
HETATM    3  H   UNL     1      24.132  47.038  51.669  1.00  0.00     0.278 HD
HETATM    4  H   UNL     1      25.722  47.295  51.985  1.00  0.00     0.278 HD
HETATM    5  C   UNL     1      25.340  46.766  49.969  1.00  0.00     0.209 C 
HETATM    6  C   UNL     1      24.417  45.762  49.227  1.00  0.00     0.115 C 
HETATM    7  N   UNL     1      24.446  44.430  49.830  1.00  0.00    -0.353 N 
HETATM    8  C   UNL     1      24.514  44.205  51.182  1.00  0.00     0.249 C 
HETATM    9  O   UNL     1      24.158  43.131  51.652  1.00  0.00    -0.271 OA
HETATM   10  C   UNL     1      25.151  48.209  49.495  1.00  0.00     0.035 C 
HETATM   11  C   UNL     1      23.689  48.641  49.410  1.00  0.00     0.002 C 
HETATM   12  C   UNL     1      22.863  47.659  48.588  1.00  0.00     0.002 C 
HETATM   13  C   UNL     1      22.963  46.247  49.151  1.00  0.00     0.027 C 
HETATM   14  H   UNL     1      24.006  43.666  49.318  1.00  0.00     0.163 HD
ENDROOT
BRANCH   1  15
HETATM   15  C   UNL     1      26.662  44.860  52.219  1.00  0.00     0.146 C 
BRANCH  15  16
HETATM   16  C   UNL     1      27.045  44.788  53.676  1.00  0.00     0.224 C 
HETATM   17  N   UNL     1      28.396  44.964  53.868  1.00  0.00    -0.327 N 
HETATM   18  H   UNL     1      28.913  45.347  53.083  1.00  0.00     0.169 HD
HETATM   19  O   UNL     1      26.156  44.693  54.518  1.00  0.00    -0.273 OA
BRANCH  17  20
HETATM   20  C   UNL     1      29.131  44.943  55.077  1.00  0.00     0.040 A 
HETATM   21  C   UNL     1      30.139  44.029  55.429  1.00  0.00    -0.035 A 
HETATM   22  C   UNL     1      30.688  42.959  54.529  1.00  0.00     0.050 C 
HETATM   23  C   UNL     1      30.736  44.141  56.705  1.00  0.00     0.009 A 
HETATM   24  C   UNL     1      30.392  45.163  57.586  1.00  0.00     0.001 A 
HETATM   25  C   UNL     1      29.445  46.102  57.209  1.00  0.00     0.002 A 
HETATM   26  C   UNL     1      28.827  45.995  55.963  1.00  0.00     0.030 A 
ENDBRANCH  17  20
ENDBRANCH  15  16
ENDBRANCH   1  15
TORSDOF 3
ENDMDL
MODEL 10
REMARK VINA RESULT:      -7.5      2.416      4.572
REMARK  3 active torsions:
REMARK  status: ('A' for Active; 'I' for Inactive)
REMARK    1  A    between atoms: C_3  and  N_4 
REMARK       I    between atoms: N_4  and  C_5 
REMARK    2  A    between atoms: C_5  and  C_6 
REMARK    3  A    between atoms: C_6  and  C_7 
ROOT
HETATM    1  C   UNL     1      27.734  41.041  52.192  1.00  0.00     0.286 C 
HETATM    2  N   UNL     1      26.487  41.681  51.584  1.00  0.00    -0.056 N 
HETATM    3  H   UNL     1      25.769  40.953  51.490  1.00  0.00     0.278 HD
HETATM    4  H   UNL     1      26.110  42.342  52.296  1.00  0.00     0.278 HD
HETATM    5  C   UNL     1      26.722  42.375  50.267  1.00  0.00     0.209 C 
HETATM    6  C   UNL     1      27.378  41.377  49.276  1.00  0.00     0.115 C 
HETATM    7  N   UNL     1      28.519  40.676  49.865  1.00  0.00    -0.353 N 
HETATM    8  C   UNL     1      28.563  40.252  51.170  1.00  0.00     0.249 C 
HETATM    9  O   UNL     1      29.338  39.365  51.508  1.00  0.00    -0.271 OA
HETATM   10  C   UNL     1      25.400  42.945  49.748  1.00  0.00     0.035 C 
HETATM   11  C   UNL     1      24.448  41.886  49.197  1.00  0.00     0.002 C 
HETATM   12  C   UNL     1      25.133  41.004  48.160  1.00  0.00     0.002 C 
HETATM   13  C   UNL     1      26.380  40.344  48.736  1.00  0.00     0.027 C 
HETATM   14  H   UNL     1      29.114  40.128  49.245  1.00  0.00     0.163 HD
ENDROOT
BRANCH   1  15
HETATM   15  C   UNL     1      28.661  42.079  52.834  1.00  0.00     0.146 C 
BRANCH  15  16
HETATM   16  C   UNL     1      27.895  43.056  53.691  1.00  0.00     0.224 C 
HETATM   17  N   UNL     1      28.139  44.362  53.335  1.00  0.00    -0.327 N 
HETATM   18  H   UNL     1      28.583  44.504  52.433  1.00  0.00     0.169 HD
HETATM   19  O   UNL     1      27.088  42.621  54.509  1.00  0.00    -0.273 OA
BRANCH  17  20
HETATM   20  C   UNL     1      27.629  45.550  53.910  1.00  0.00     0.040 A 
HETATM   21  C   UNL     1      28.154  46.240  55.016  1.00  0.00    -0.035 A 
HETATM   22  C   UNL     1      29.427  45.885  55.729  1.00  0.00     0.050 C 
HETATM   23  C   UNL     1      27.480  47.393  55.476  1.00  0.00     0.009 A 
HETATM   24  C   UNL     1      26.350  47.887  54.827  1.00  0.00     0.001 A 
HETATM   25  C   UNL     1      25.873  47.242  53.697  1.00  0.00     0.002 A 
HETATM   26  C   UNL     1      26.512  46.089  53.241  1.00  0.00     0.030 A 
ENDBRANCH  17  20
ENDBRANCH  15  16
ENDBRANCH   1  15
TORSDOF 3
ENDMDL
