MODEL 1
REMARK VINA RESULT:      -9.4      0.000      0.000
REMARK  4 active torsions:
REMARK  status: ('A' for Active; 'I' for Inactive)
REMARK       I    between atoms: C_2  and  N_3 
REMARK    1  A    between atoms: N_3  and  C_4 
REMARK    2  A    between atoms: C_10  and  C_11 
REMARK    3  A    between atoms: C_14  and  C_15 
REMARK    4  A    between atoms: C_22  and  N_23 
REMARK       I    between atoms: N_23  and  C_24 
ROOT
HETATM    1  C   UNL     1      25.508  45.681  50.915  1.00  0.00     0.010 A 
HETATM    2  C   UNL     1      25.492  47.083  50.906  1.00  0.00     0.016 A 
HETATM    3  C   UNL     1      24.482  47.791  50.246  1.00  0.00     0.017 A 
HETATM    4  C   UNL     1      23.461  47.115  49.567  1.00  0.00     0.017 A 
HETATM    5  C   UNL     1      23.484  45.713  49.563  1.00  0.00     0.017 A 
HETATM    6  C   UNL     1      24.494  45.002  50.228  1.00  0.00     0.016 A 
ENDROOT
BRANCH   1   7
HETATM    7  C   UNL     1      26.582  44.991  51.637  1.00  0.00     0.139 A 
HETATM    8  N   UNL     1      27.268  43.895  51.163  1.00  0.00    -0.338 N 
HETATM    9  C   UNL     1      28.170  43.490  52.113  1.00  0.00     0.063 A 
HETATM   10  H   UNL     1      27.108  43.444  50.276  1.00  0.00     0.167 HD
HETATM   11  C   UNL     1      27.994  44.390  53.154  1.00  0.00     0.088 A 
HETATM   12  C   UNL     1      29.092  42.446  52.155  1.00  0.00     0.034 A 
HETATM   13  C   UNL     1      28.775  44.268  54.316  1.00  0.00     0.063 A 
HETATM   14  N   UNL     1      27.015  45.300  52.846  1.00  0.00    -0.228 NA
HETATM   15  C   UNL     1      29.713  43.233  54.399  1.00  0.00     0.037 A 
HETATM   16  C   UNL     1      29.859  42.340  53.324  1.00  0.00     0.032 A 
BRANCH  15  17
HETATM   17  N   UNL     1      30.547  43.021  55.520  1.00  0.00    -0.327 N 
HETATM   18  C   UNL     1      31.105  43.979  56.348  1.00  0.00     0.218 C 
HETATM   19  C   UNL     1      31.946  43.380  57.449  1.00  0.00     0.117 C 
HETATM   20  O   UNL     1      30.959  45.193  56.274  1.00  0.00    -0.274 OA
HETATM   21  H   UNL     1      30.751  42.055  55.740  1.00  0.00     0.169 HD
ENDBRANCH  15  17
ENDBRANCH   1   7
BRANCH   4  22
HETATM   22  C   UNL     1      22.392  47.830  48.874  1.00  0.00     0.180 A 
HETATM   23  O   UNL     1      22.371  49.195  49.026  1.00  0.00    -0.289 OA
HETATM   24  C   UNL     1      21.290  49.593  48.300  1.00  0.00     0.107 A 
HETATM   25  C   UNL     1      20.712  48.466  47.746  1.00  0.00     0.095 A 
HETATM   26  C   UNL     1      20.821  50.885  48.126  1.00  0.00     0.042 A 
HETATM   27  N   UNL     1      21.417  47.348  48.119  1.00  0.00    -0.221 NA
HETATM   28  C   UNL     1      19.571  48.613  46.945  1.00  0.00     0.064 A 
HETATM   29  C   UNL     1      19.051  49.906  46.734  1.00  0.00     0.037 A 
HETATM   30  C   UNL     1      19.677  51.015  47.323  1.00  0.00     0.032 A 
BRANCH  29  31
HETATM   31  N   UNL     1      17.902  49.999  45.917  1.00  0.00    -0.327 N 
HETATM   32  C   UNL     1      16.579  49.923  46.311  1.00  0.00     0.218 C 
HETATM   33  C   UNL     1      15.612  50.068  45.160  1.00  0.00     0.117 C 
HETATM   34  O   UNL     1      16.159  49.744  47.448  1.00  0.00    -0.274 OA
HETATM   35  H   UNL     1      18.077  50.131  44.929  1.00  0.00     0.169 HD
ENDBRANCH  29  31
ENDBRANCH   4  22
TORSDOF 4
ENDMDL
MODEL 2
REMARK VINA RESULT:      -9.4      2.716      3.456
REMARK  4 active torsions:
REMARK  status: ('A' for Active; 'I' for Inactive)
REMARK       I    between atoms: C_2  and  N_3 
REMARK    1  A    between atoms: N_3  and  C_4 
REMARK    2  A    between atoms: C_10  and  C_11 
REMARK    3  A    between atoms: C_14  and  C_15 
REMARK    4  A    between atoms: C_22  and  N_23 
REMARK       I    between atoms: N_23  and  C_24 
ROOT
HETATM    1  C   UNL     1      24.600  45.600  49.997  1.00  0.00     0.010 A 
HETATM    2  C   UNL     1      24.798  46.948  50.328  1.00  0.00     0.016 A 
HETATM    3  C   UNL     1      23.892  47.933  49.922  1.00  0.00     0.017 A 
HETATM    4  C   UNL     1      22.763  47.599  49.165  1.00  0.00     0.017 A 
HETATM    5  C   UNL     1      22.570  46.253  48.821  1.00  0.00     0.017 A 
HETATM    6  C   UNL     1      23.477  45.263  49.231  1.00  0.00     0.016 A 
ENDROOT
BRANCH   1   7
HETATM    7  C   UNL     1      25.573  44.607  50.463  1.00  0.00     0.139 A 
HETATM    8  N   UNL     1      26.612  44.872  51.327  1.00  0.00    -0.338 N 
HETATM    9  C   UNL     1      27.340  43.725  51.511  1.00  0.00     0.063 A 
HETATM   10  H   UNL     1      26.822  45.770  51.732  1.00  0.00     0.167 HD
HETATM   11  C   UNL     1      26.689  42.780  50.732  1.00  0.00     0.088 A 
HETATM   12  C   UNL     1      28.479  43.440  52.263  1.00  0.00     0.034 A 
HETATM   13  C   UNL     1      27.177  41.463  50.685  1.00  0.00     0.063 A 
HETATM   14  N   UNL     1      25.611  43.339  50.094  1.00  0.00    -0.228 NA
HETATM   15  C   UNL     1      28.318  41.134  51.426  1.00  0.00     0.037 A 
HETATM   16  C   UNL     1      28.952  42.121  52.201  1.00  0.00     0.032 A 
BRANCH  15  17
HETATM   17  N   UNL     1      28.891  39.842  51.450  1.00  0.00    -0.327 N 
HETATM   18  C   UNL     1      29.145  39.014  50.371  1.00  0.00     0.218 C 
HETATM   19  C   UNL     1      29.767  37.700  50.778  1.00  0.00     0.117 C 
HETATM   20  O   UNL     1      28.941  39.260  49.188  1.00  0.00    -0.274 OA
HETATM   21  H   UNL     1      29.147  39.491  52.363  1.00  0.00     0.169 HD
ENDBRANCH  15  17
ENDBRANCH   1   7
BRANCH   4  22
HETATM   22  C   UNL     1      21.798  48.607  48.733  1.00  0.00     0.180 A 
HETATM   23  O   UNL     1      21.614  49.678  49.575  1.00  0.00    -0.289 OA
HETATM   24  C   UNL     1      20.676  50.437  48.946  1.00  0.00     0.107 A 
HETATM   25  C   UNL     1      20.337  49.802  47.766  1.00  0.00     0.095 A 
HETATM   26  C   UNL     1      20.132  51.635  49.381  1.00  0.00     0.042 A 
HETATM   27  N   UNL     1      21.053  48.637  47.639  1.00  0.00    -0.221 NA
HETATM   28  C   UNL     1      19.379  50.393  46.929  1.00  0.00     0.064 A 
HETATM   29  C   UNL     1      18.794  51.613  47.322  1.00  0.00     0.037 A 
HETATM   30  C   UNL     1      19.174  52.213  48.533  1.00  0.00     0.032 A 
BRANCH  29  31
HETATM   31  N   UNL     1      17.837  52.166  46.442  1.00  0.00    -0.327 N 
HETATM   32  C   UNL     1      16.464  51.997  46.473  1.00  0.00     0.218 C 
HETATM   33  C   UNL     1      15.754  52.746  45.371  1.00  0.00     0.117 C 
HETATM   34  O   UNL     1      15.825  51.317  47.267  1.00  0.00    -0.274 OA
HETATM   35  H   UNL     1      18.207  52.749  45.702  1.00  0.00     0.169 HD
ENDBRANCH  29  31
ENDBRANCH   4  22
TORSDOF 4
ENDMDL
MODEL 3
REMARK VINA RESULT:      -9.4      0.947      1.579
REMARK  4 active torsions:
REMARK  status: ('A' for Active; 'I' for Inactive)
REMARK       I    between atoms: C_2  and  N_3 
REMARK    1  A    between atoms: N_3  and  C_4 
REMARK    2  A    between atoms: C_10  and  C_11 
REMARK    3  A    between atoms: C_14  and  C_15 
REMARK    4  A    between atoms: C_22  and  N_23 
REMARK       I    between atoms: N_23  and  C_24 
ROOT
HETATM    1  C   UNL     1      25.424  45.768  50.800  1.00  0.00     0.010 A 
HETATM    2  C   UNL     1      24.434  45.006  50.163  1.00  0.00     0.016 A 
HETATM    3  C   UNL     1      23.400  45.618  49.447  1.00  0.00     0.017 A 
HETATM    4  C   UNL     1      23.321  47.013  49.353  1.00  0.00     0.017 A 
HETATM    5  C   UNL     1      24.302  47.777  50.002  1.00  0.00     0.017 A 
HETATM    6  C   UNL     1      25.342  47.164  50.717  1.00  0.00     0.016 A 
ENDROOT
BRANCH   1   7
HETATM    7  C   UNL     1      26.494  45.074  51.523  1.00  0.00     0.139 A 
HETATM    8  N   UNL     1      27.237  44.032  51.016  1.00  0.00    -0.338 N 
HETATM    9  C   UNL     1      28.117  43.604  51.976  1.00  0.00     0.063 A 
HETATM   10  H   UNL     1      27.129  43.629  50.098  1.00  0.00     0.167 HD
HETATM   11  C   UNL     1      27.867  44.434  53.060  1.00  0.00     0.088 A 
HETATM   12  C   UNL     1      29.074  42.592  51.996  1.00  0.00     0.034 A 
HETATM   13  C   UNL     1      28.607  44.271  54.243  1.00  0.00     0.063 A 
HETATM   14  N   UNL     1      26.868  45.326  52.765  1.00  0.00    -0.228 NA
HETATM   15  C   UNL     1      29.579  43.266  54.305  1.00  0.00     0.037 A 
HETATM   16  C   UNL     1      29.799  42.443  53.187  1.00  0.00     0.032 A 
BRANCH  15  17
HETATM   17  N   UNL     1      30.377  43.017  55.445  1.00  0.00    -0.327 N 
HETATM   18  C   UNL     1      31.003  43.948  56.253  1.00  0.00     0.218 C 
HETATM   19  C   UNL     1      31.775  43.313  57.385  1.00  0.00     0.117 C 
HETATM   20  O   UNL     1      30.963  45.168  56.143  1.00  0.00    -0.274 OA
HETATM   21  H   UNL     1      30.494  42.044  55.695  1.00  0.00     0.169 HD
ENDBRANCH  15  17
ENDBRANCH   1   7
BRANCH   4  22
HETATM   22  C   UNL     1      22.255  47.676  48.607  1.00  0.00     0.180 A 
HETATM   23  O   UNL     1      21.488  46.876  47.795  1.00  0.00    -0.289 OA
HETATM   24  C   UNL     1      20.600  47.736  47.225  1.00  0.00     0.107 A 
HETATM   25  C   UNL     1      20.864  49.003  47.711  1.00  0.00     0.095 A 
HETATM   26  C   UNL     1      19.599  47.434  46.316  1.00  0.00     0.042 A 
HETATM   27  N   UNL     1      21.920  48.957  48.587  1.00  0.00    -0.221 NA
HETATM   28  C   UNL     1      20.076  50.076  47.270  1.00  0.00     0.064 A 
HETATM   29  C   UNL     1      19.043  49.826  46.346  1.00  0.00     0.037 A 
HETATM   30  C   UNL     1      18.820  48.519  45.883  1.00  0.00     0.032 A 
BRANCH  29  31
HETATM   31  N   UNL     1      18.278  50.940  45.936  1.00  0.00    -0.327 N 
HETATM   32  C   UNL     1      17.006  51.290  46.353  1.00  0.00     0.218 C 
HETATM   33  C   UNL     1      16.500  52.554  45.700  1.00  0.00     0.117 C 
HETATM   34  O   UNL     1      16.301  50.683  47.149  1.00  0.00    -0.274 OA
HETATM   35  H   UNL     1      18.716  51.545  45.252  1.00  0.00     0.169 HD
ENDBRANCH  29  31
ENDBRANCH   4  22
TORSDOF 4
ENDMDL
MODEL 4
REMARK VINA RESULT:      -9.4      2.810     12.442
REMARK  4 active torsions:
REMARK  status: ('A' for Active; 'I' for Inactive)
REMARK       I    between atoms: C_2  and  N_3 
REMARK    1  A    between atoms: N_3  and  C_4 
REMARK    2  A    between atoms: C_10  and  C_11 
REMARK    3  A    between atoms: C_14  and  C_15 
REMARK    4  A    between atoms: C_22  and  N_23 
REMARK       I    between atoms: N_23  and  C_24 
ROOT
HETATM    1  C   UNL     1      22.821  47.521  49.206  1.00  0.00     0.010 A 
HETATM    2  C   UNL     1      22.576  46.195  48.822  1.00  0.00     0.016 A 
HETATM    3  C   UNL     1      23.449  45.164  49.184  1.00  0.00     0.017 A 
HETATM    4  C   UNL     1      24.600  45.432  49.937  1.00  0.00     0.017 A 
HETATM    5  C   UNL     1      24.853  46.760  50.310  1.00  0.00     0.017 A 
HETATM    6  C   UNL     1      23.976  47.794  49.950  1.00  0.00     0.016 A 
ENDROOT
BRANCH   1   7
HETATM    7  C   UNL     1      21.863  48.559  48.812  1.00  0.00     0.139 A 
HETATM    8  N   UNL     1      21.611  49.707  49.530  1.00  0.00    -0.338 N 
HETATM    9  C   UNL     1      20.635  50.426  48.889  1.00  0.00     0.063 A 
HETATM   10  H   UNL     1      22.049  49.961  50.401  1.00  0.00     0.167 HD
HETATM   11  C   UNL     1      20.330  49.664  47.770  1.00  0.00     0.088 A 
HETATM   12  C   UNL     1      20.007  51.635  49.182  1.00  0.00     0.034 A 
HETATM   13  C   UNL     1      19.349  50.114  46.871  1.00  0.00     0.063 A 
HETATM   14  N   UNL     1      21.090  48.523  47.742  1.00  0.00    -0.228 NA
HETATM   15  C   UNL     1      18.694  51.324  47.127  1.00  0.00     0.037 A 
HETATM   16  C   UNL     1      19.029  52.065  48.274  1.00  0.00     0.032 A 
BRANCH  15  17
HETATM   17  N   UNL     1      17.694  51.866  46.289  1.00  0.00    -0.327 N 
HETATM   18  C   UNL     1      16.323  51.765  46.440  1.00  0.00     0.218 C 
HETATM   19  C   UNL     1      15.561  52.473  45.346  1.00  0.00     0.117 C 
HETATM   20  O   UNL     1      15.720  51.202  47.346  1.00  0.00    -0.274 OA
HETATM   21  H   UNL     1      18.027  52.393  45.492  1.00  0.00     0.169 HD
ENDBRANCH  15  17
ENDBRANCH   1   7
BRANCH   4  22
HETATM   22  C   UNL     1      25.526  44.373  50.333  1.00  0.00     0.180 A 
HETATM   23  O   UNL     1      26.525  44.731  51.205  1.00  0.00    -0.289 OA
HETATM   24  C   UNL     1      27.231  43.582  51.390  1.00  0.00     0.107 A 
HETATM   25  C   UNL     1      26.634  42.590  50.633  1.00  0.00     0.095 A 
HETATM   26  C   UNL     1      28.351  43.399  52.185  1.00  0.00     0.042 A 
HETATM   27  N   UNL     1      25.552  43.103  49.962  1.00  0.00    -0.221 NA
HETATM   28  C   UNL     1      27.180  41.299  50.656  1.00  0.00     0.064 A 
HETATM   29  C   UNL     1      28.320  41.057  51.448  1.00  0.00     0.037 A 
HETATM   30  C   UNL     1      28.886  42.101  52.195  1.00  0.00     0.032 A 
BRANCH  29  31
HETATM   31  N   UNL     1      28.829  39.739  51.437  1.00  0.00    -0.327 N 
HETATM   32  C   UNL     1      29.176  38.978  50.336  1.00  0.00     0.218 C 
HETATM   33  C   UNL     1      29.690  37.607  50.706  1.00  0.00     0.117 C 
HETATM   34  O   UNL     1      29.090  39.306  49.158  1.00  0.00    -0.274 OA
HETATM   35  H   UNL     1      28.944  39.306  52.345  1.00  0.00     0.169 HD
ENDBRANCH  29  31
ENDBRANCH   4  22
TORSDOF 4
ENDMDL
MODEL 5
REMARK VINA RESULT:      -9.2      1.344     12.607
REMARK  4 active torsions:
REMARK  status: ('A' for Active; 'I' for Inactive)
REMARK       I    between atoms: C_2  and  N_3 
REMARK    1  A    between atoms: N_3  and  C_4 
REMARK    2  A    between atoms: C_10  and  C_11 
REMARK    3  A    between atoms: C_14  and  C_15 
REMARK    4  A    between atoms: C_22  and  N_23 
REMARK       I    between atoms: N_23  and  C_24 
ROOT
HETATM    1  C   UNL     1      23.413  46.962  49.468  1.00  0.00     0.010 A 
HETATM    2  C   UNL     1      24.306  47.739  50.220  1.00  0.00     0.016 A 
HETATM    3  C   UNL     1      25.322  47.144  50.976  1.00  0.00     0.017 A 
HETATM    4  C   UNL     1      25.468  45.752  51.009  1.00  0.00     0.017 A 
HETATM    5  C   UNL     1      24.566  44.973  50.268  1.00  0.00     0.017 A 
HETATM    6  C   UNL     1      23.550  45.569  49.506  1.00  0.00     0.016 A 
ENDROOT
BRANCH   1   7
HETATM    7  C   UNL     1      22.378  47.640  48.681  1.00  0.00     0.139 A 
HETATM    8  N   UNL     1      22.234  49.006  48.582  1.00  0.00    -0.338 N 
HETATM    9  C   UNL     1      21.143  49.283  47.799  1.00  0.00     0.063 A 
HETATM   10  H   UNL     1      22.817  49.690  49.039  1.00  0.00     0.167 HD
HETATM   11  C   UNL     1      20.658  48.035  47.438  1.00  0.00     0.088 A 
HETATM   12  C   UNL     1      20.552  50.478  47.392  1.00  0.00     0.034 A 
HETATM   13  C   UNL     1      19.521  47.943  46.617  1.00  0.00     0.063 A 
HETATM   14  N   UNL     1      21.424  47.040  47.989  1.00  0.00    -0.228 NA
HETATM   15  C   UNL     1      18.897  49.119  46.185  1.00  0.00     0.037 A 
HETATM   16  C   UNL     1      19.418  50.365  46.577  1.00  0.00     0.032 A 
BRANCH  15  17
HETATM   17  N   UNL     1      17.751  49.140  45.360  1.00  0.00    -0.327 N 
HETATM   18  C   UNL     1      16.443  49.378  45.741  1.00  0.00     0.218 C 
HETATM   19  C   UNL     1      15.477  49.319  44.583  1.00  0.00     0.117 C 
HETATM   20  O   UNL     1      16.039  49.639  46.868  1.00  0.00    -0.274 OA
HETATM   21  H   UNL     1      17.914  48.965  44.377  1.00  0.00     0.169 HD
ENDBRANCH  15  17
ENDBRANCH   1   7
BRANCH   4  22
HETATM   22  C   UNL     1      26.523  45.105  51.786  1.00  0.00     0.180 A 
HETATM   23  O   UNL     1      27.213  44.096  51.158  1.00  0.00    -0.289 OA
HETATM   24  C   UNL     1      28.107  43.674  52.094  1.00  0.00     0.107 A 
HETATM   25  C   UNL     1      27.922  44.437  53.233  1.00  0.00     0.095 A 
HETATM   26  C   UNL     1      29.046  42.665  51.966  1.00  0.00     0.042 A 
HETATM   27  N   UNL     1      26.910  45.343  53.029  1.00  0.00    -0.221 NA
HETATM   28  C   UNL     1      28.732  44.192  54.351  1.00  0.00     0.064 A 
HETATM   29  C   UNL     1      29.705  43.177  54.276  1.00  0.00     0.037 A 
HETATM   30  C   UNL     1      29.848  42.431  53.095  1.00  0.00     0.032 A 
BRANCH  29  31
HETATM   31  N   UNL     1      30.496  42.973  55.429  1.00  0.00    -0.327 N 
HETATM   32  C   UNL     1      31.056  43.935  56.249  1.00  0.00     0.218 C 
HETATM   33  C   UNL     1      31.840  43.347  57.397  1.00  0.00     0.117 C 
HETATM   34  O   UNL     1      30.979  45.151  56.115  1.00  0.00    -0.274 OA
HETATM   35  H   UNL     1      30.674  42.007  55.673  1.00  0.00     0.169 HD
ENDBRANCH  29  31
ENDBRANCH   4  22
TORSDOF 4
ENDMDL
MODEL 6
REMARK VINA RESULT:      -9.1     13.228     17.403
REMARK  4 active torsions:
REMARK  status: ('A' for Active; 'I' for Inactive)
REMARK       I    between atoms: C_2  and  N_3 
REMARK    1  A    between atoms: N_3  and  C_4 
REMARK    2  A    between atoms: C_10  and  C_11 
REMARK    3  A    between atoms: C_14  and  C_15 
REMARK    4  A    between atoms: C_22  and  N_23 
REMARK       I    between atoms: N_23  and  C_24 
ROOT
HETATM    1  C   UNL     1      32.415  51.000  42.875  1.00  0.00     0.010 A 
HETATM    2  C   UNL     1      33.583  50.845  42.115  1.00  0.00     0.016 A 
HETATM    3  C   UNL     1      34.813  51.328  42.572  1.00  0.00     0.017 A 
HETATM    4  C   UNL     1      34.910  51.988  43.803  1.00  0.00     0.017 A 
HETATM    5  C   UNL     1      33.740  52.157  44.559  1.00  0.00     0.017 A 
HETATM    6  C   UNL     1      32.507  51.669  44.103  1.00  0.00     0.016 A 
ENDROOT
BRANCH   1   7
HETATM    7  C   UNL     1      31.156  50.460  42.354  1.00  0.00     0.139 A 
HETATM    8  N   UNL     1      30.833  49.121  42.311  1.00  0.00    -0.338 N 
HETATM    9  C   UNL     1      29.601  48.980  41.728  1.00  0.00     0.063 A 
HETATM   10  H   UNL     1      31.423  48.367  42.626  1.00  0.00     0.167 HD
HETATM   11  C   UNL     1      29.210  50.279  41.439  1.00  0.00     0.088 A 
HETATM   12  C   UNL     1      28.819  47.864  41.433  1.00  0.00     0.034 A 
HETATM   13  C   UNL     1      27.968  50.509  40.824  1.00  0.00     0.063 A 
HETATM   14  N   UNL     1      30.176  51.172  41.826  1.00  0.00    -0.228 NA
HETATM   15  C   UNL     1      27.151  49.416  40.510  1.00  0.00     0.037 A 
HETATM   16  C   UNL     1      27.585  48.115  40.816  1.00  0.00     0.032 A 
BRANCH  15  17
HETATM   17  N   UNL     1      25.886  49.537  39.892  1.00  0.00    -0.327 N 
HETATM   18  C   UNL     1      25.622  49.814  38.563  1.00  0.00     0.218 C 
HETATM   19  C   UNL     1      24.144  49.867  38.260  1.00  0.00     0.117 C 
HETATM   20  O   UNL     1      26.441  49.985  37.668  1.00  0.00    -0.274 OA
HETATM   21  H   UNL     1      25.086  49.396  40.495  1.00  0.00     0.169 HD
ENDBRANCH  15  17
ENDBRANCH   1   7
BRANCH   4  22
HETATM   22  C   UNL     1      36.184  52.498  44.307  1.00  0.00     0.180 A 
HETATM   23  O   UNL     1      36.481  53.805  44.005  1.00  0.00    -0.289 OA
HETATM   24  C   UNL     1      37.701  54.007  44.575  1.00  0.00     0.107 A 
HETATM   25  C   UNL     1      38.083  52.829  45.190  1.00  0.00     0.095 A 
HETATM   26  C   UNL     1      38.455  55.169  44.560  1.00  0.00     0.042 A 
HETATM   27  N   UNL     1      37.113  51.874  45.012  1.00  0.00    -0.221 NA
HETATM   28  C   UNL     1      39.316  52.782  45.855  1.00  0.00     0.064 A 
HETATM   29  C   UNL     1      40.124  53.936  45.873  1.00  0.00     0.037 A 
HETATM   30  C   UNL     1      39.687  55.105  45.230  1.00  0.00     0.032 A 
BRANCH  29  31
HETATM   31  N   UNL     1      41.355  53.835  46.559  1.00  0.00    -0.327 N 
HETATM   32  C   UNL     1      41.575  53.952  47.919  1.00  0.00     0.218 C 
HETATM   33  C   UNL     1      43.027  53.784  48.297  1.00  0.00     0.117 C 
HETATM   34  O   UNL     1      40.737  54.181  48.783  1.00  0.00    -0.274 OA
HETATM   35  H   UNL     1      42.167  53.663  45.979  1.00  0.00     0.169 HD
ENDBRANCH  29  31
ENDBRANCH   4  22
TORSDOF 4
ENDMDL
MODEL 7
REMARK VINA RESULT:      -9.1     14.008     17.944
REMARK  4 active torsions:
REMARK  status: ('A' for Active; 'I' for Inactive)
REMARK       I    between atoms: C_2  and  N_3 
REMARK    1  A    between atoms: N_3  and  C_4 
REMARK    2  A    between atoms: C_10  and  C_11 
REMARK    3  A    between atoms: C_14  and  C_15 
REMARK    4  A    between atoms: C_22  and  N_23 
REMARK       I    between atoms: N_23  and  C_24 
ROOT
HETATM    1  C   UNL     1      33.496  50.759  42.201  1.00  0.00     0.010 A 
HETATM    2  C   UNL     1      33.205  51.462  43.378  1.00  0.00     0.016 A 
HETATM    3  C   UNL     1      34.218  52.065  44.130  1.00  0.00     0.017 A 
HETATM    4  C   UNL     1      35.557  51.975  43.729  1.00  0.00     0.017 A 
HETATM    5  C   UNL     1      35.851  51.260  42.559  1.00  0.00     0.017 A 
HETATM    6  C   UNL     1      34.835  50.658  41.802  1.00  0.00     0.016 A 
ENDROOT
BRANCH   1   7
HETATM    7  C   UNL     1      32.392  50.160  41.444  1.00  0.00     0.139 A 
HETATM    8  N   UNL     1      32.534  49.159  40.508  1.00  0.00    -0.338 N 
HETATM    9  C   UNL     1      31.305  48.873  39.973  1.00  0.00     0.063 A 
HETATM   10  H   UNL     1      33.405  48.732  40.236  1.00  0.00     0.167 HD
HETATM   11  C   UNL     1      30.438  49.733  40.632  1.00  0.00     0.088 A 
HETATM   12  C   UNL     1      30.886  47.969  38.998  1.00  0.00     0.034 A 
HETATM   13  C   UNL     1      29.068  49.708  40.325  1.00  0.00     0.063 A 
HETATM   14  N   UNL     1      31.123  50.516  41.527  1.00  0.00    -0.228 NA
HETATM   15  C   UNL     1      28.605  48.814  39.351  1.00  0.00     0.037 A 
HETATM   16  C   UNL     1      29.515  47.962  38.704  1.00  0.00     0.032 A 
BRANCH  15  17
HETATM   17  N   UNL     1      27.250  48.708  38.967  1.00  0.00    -0.327 N 
HETATM   18  C   UNL     1      26.524  49.591  38.187  1.00  0.00     0.218 C 
HETATM   19  C   UNL     1      25.095  49.150  37.984  1.00  0.00     0.117 C 
HETATM   20  O   UNL     1      26.933  50.621  37.664  1.00  0.00    -0.274 OA
HETATM   21  H   UNL     1      26.761  47.887  39.299  1.00  0.00     0.169 HD
ENDBRANCH  15  17
ENDBRANCH   1   7
BRANCH   4  22
HETATM   22  C   UNL     1      36.634  52.600  44.493  1.00  0.00     0.180 A 
HETATM   23  O   UNL     1      36.738  53.967  44.396  1.00  0.00    -0.289 OA
HETATM   24  C   UNL     1      37.807  54.274  45.180  1.00  0.00     0.107 A 
HETATM   25  C   UNL     1      38.298  53.096  45.711  1.00  0.00     0.095 A 
HETATM   26  C   UNL     1      38.340  55.530  45.424  1.00  0.00     0.042 A 
HETATM   27  N   UNL     1      37.547  52.035  45.267  1.00  0.00    -0.221 NA
HETATM   28  C   UNL     1      39.410  53.147  46.563  1.00  0.00     0.064 A 
HETATM   29  C   UNL     1      39.991  54.399  46.847  1.00  0.00     0.037 A 
HETATM   30  C   UNL     1      39.454  55.564  46.278  1.00  0.00     0.032 A 
BRANCH  29  31
HETATM   31  N   UNL     1      41.108  54.395  47.712  1.00  0.00    -0.327 N 
HETATM   32  C   UNL     1      42.445  54.332  47.364  1.00  0.00     0.218 C 
HETATM   33  C   UNL     1      43.366  54.353  48.560  1.00  0.00     0.117 C 
HETATM   34  O   UNL     1      42.907  54.252  46.232  1.00  0.00    -0.274 OA
HETATM   35  H   UNL     1      40.896  54.438  48.701  1.00  0.00     0.169 HD
ENDBRANCH  29  31
ENDBRANCH   4  22
TORSDOF 4
ENDMDL
MODEL 8
REMARK VINA RESULT:      -8.8      3.700      4.138
REMARK  4 active torsions:
REMARK  status: ('A' for Active; 'I' for Inactive)
REMARK       I    between atoms: C_2  and  N_3 
REMARK    1  A    between atoms: N_3  and  C_4 
REMARK    2  A    between atoms: C_10  and  C_11 
REMARK    3  A    between atoms: C_14  and  C_15 
REMARK    4  A    between atoms: C_22  and  N_23 
REMARK       I    between atoms: N_23  and  C_24 
ROOT
HETATM    1  C   UNL     1      24.671  44.618  49.284  1.00  0.00     0.010 A 
HETATM    2  C   UNL     1      23.476  44.417  48.580  1.00  0.00     0.016 A 
HETATM    3  C   UNL     1      22.553  45.454  48.410  1.00  0.00     0.017 A 
HETATM    4  C   UNL     1      22.795  46.723  48.949  1.00  0.00     0.017 A 
HETATM    5  C   UNL     1      23.984  46.922  49.667  1.00  0.00     0.017 A 
HETATM    6  C   UNL     1      24.912  45.884  49.834  1.00  0.00     0.016 A 
ENDROOT
BRANCH   1   7
HETATM    7  C   UNL     1      25.610  43.500  49.418  1.00  0.00     0.139 A 
HETATM    8  N   UNL     1      26.249  42.882  48.366  1.00  0.00    -0.338 N 
HETATM    9  C   UNL     1      27.019  41.857  48.854  1.00  0.00     0.063 A 
HETATM   10  H   UNL     1      26.142  43.122  47.394  1.00  0.00     0.167 HD
HETATM   11  C   UNL     1      26.814  41.901  50.226  1.00  0.00     0.088 A 
HETATM   12  C   UNL     1      27.846  40.921  48.237  1.00  0.00     0.034 A 
HETATM   13  C   UNL     1      27.465  40.972  51.055  1.00  0.00     0.063 A 
HETATM   14  N   UNL     1      25.946  42.911  50.552  1.00  0.00    -0.228 NA
HETATM   15  C   UNL     1      28.305  40.014  50.475  1.00  0.00     0.037 A 
HETATM   16  C   UNL     1      28.483  40.001  49.081  1.00  0.00     0.032 A 
BRANCH  15  17
HETATM   17  N   UNL     1      29.005  39.036  51.216  1.00  0.00    -0.327 N 
HETATM   18  C   UNL     1      29.498  37.827  50.759  1.00  0.00     0.218 C 
HETATM   19  C   UNL     1      30.195  37.035  51.839  1.00  0.00     0.117 C 
HETATM   20  O   UNL     1      29.438  37.390  49.616  1.00  0.00    -0.274 OA
HETATM   21  H   UNL     1      29.166  39.254  52.190  1.00  0.00     0.169 HD
ENDBRANCH  15  17
ENDBRANCH   1   7
BRANCH   4  22
HETATM   22  C   UNL     1      21.850  47.825  48.782  1.00  0.00     0.180 A 
HETATM   23  O   UNL     1      22.368  49.094  48.880  1.00  0.00    -0.289 OA
HETATM   24  C   UNL     1      21.291  49.906  48.700  1.00  0.00     0.107 A 
HETATM   25  C   UNL     1      20.182  49.104  48.501  1.00  0.00     0.095 A 
HETATM   26  C   UNL     1      21.270  51.291  48.709  1.00  0.00     0.042 A 
HETATM   27  N   UNL     1      20.547  47.782  48.557  1.00  0.00    -0.221 NA
HETATM   28  C   UNL     1      18.936  49.711  48.289  1.00  0.00     0.064 A 
HETATM   29  C   UNL     1      18.857  51.117  48.287  1.00  0.00     0.037 A 
HETATM   30  C   UNL     1      20.014  51.883  48.496  1.00  0.00     0.032 A 
BRANCH  29  31
HETATM   31  N   UNL     1      17.579  51.678  48.067  1.00  0.00    -0.327 N 
HETATM   32  C   UNL     1      16.655  52.074  49.017  1.00  0.00     0.218 C 
HETATM   33  C   UNL     1      15.391  52.634  48.412  1.00  0.00     0.117 C 
HETATM   34  O   UNL     1      16.774  51.996  50.234  1.00  0.00    -0.274 OA
HETATM   35  H   UNL     1      17.313  51.794  47.096  1.00  0.00     0.169 HD
ENDBRANCH  29  31
ENDBRANCH   4  22
TORSDOF 4
ENDMDL
MODEL 9
REMARK VINA RESULT:      -8.8     19.895     23.156
REMARK  4 active torsions:
REMARK  status: ('A' for Active; 'I' for Inactive)
REMARK       I    between atoms: C_2  and  N_3 
REMARK    1  A    between atoms: N_3  and  C_4 
REMARK    2  A    between atoms: C_10  and  C_11 
REMARK    3  A    between atoms: C_14  and  C_15 
REMARK    4  A    between atoms: C_22  and  N_23 
REMARK       I    between atoms: N_23  and  C_24 
ROOT
HETATM    1  C   UNL     1      37.990  50.174  66.257  1.00  0.00     0.010 A 
HETATM    2  C   UNL     1      37.137  49.150  66.692  1.00  0.00     0.016 A 
HETATM    3  C   UNL     1      37.326  47.827  66.279  1.00  0.00     0.017 A 
HETATM    4  C   UNL     1      38.372  47.491  65.411  1.00  0.00     0.017 A 
HETATM    5  C   UNL     1      39.217  48.516  64.963  1.00  0.00     0.017 A 
HETATM    6  C   UNL     1      39.031  49.843  65.380  1.00  0.00     0.016 A 
ENDROOT
BRANCH   1   7
HETATM    7  C   UNL     1      37.755  51.541  66.733  1.00  0.00     0.139 A 
HETATM    8  N   UNL     1      37.403  51.873  68.023  1.00  0.00    -0.338 N 
HETATM    9  C   UNL     1      37.227  53.230  68.100  1.00  0.00     0.063 A 
HETATM   10  H   UNL     1      37.265  51.220  68.778  1.00  0.00     0.167 HD
HETATM   11  C   UNL     1      37.494  53.682  66.816  1.00  0.00     0.088 A 
HETATM   12  C   UNL     1      36.864  54.077  69.146  1.00  0.00     0.034 A 
HETATM   13  C   UNL     1      37.408  55.055  66.531  1.00  0.00     0.063 A 
HETATM   14  N   UNL     1      37.812  52.633  65.991  1.00  0.00    -0.228 NA
HETATM   15  C   UNL     1      37.047  55.940  67.553  1.00  0.00     0.037 A 
HETATM   16  C   UNL     1      36.780  55.443  68.840  1.00  0.00     0.032 A 
BRANCH  15  17
HETATM   17  N   UNL     1      36.930  57.337  67.373  1.00  0.00    -0.327 N 
HETATM   18  C   UNL     1      35.859  58.031  66.840  1.00  0.00     0.218 C 
HETATM   19  C   UNL     1      36.090  59.522  66.804  1.00  0.00     0.117 C 
HETATM   20  O   UNL     1      34.799  57.561  66.444  1.00  0.00    -0.274 OA
HETATM   21  H   UNL     1      37.723  57.887  67.678  1.00  0.00     0.169 HD
ENDBRANCH  15  17
ENDBRANCH   1   7
BRANCH   4  22
HETATM   22  C   UNL     1      38.595  46.116  64.969  1.00  0.00     0.180 A 
HETATM   23  O   UNL     1      37.615  45.561  64.182  1.00  0.00    -0.289 OA
HETATM   24  C   UNL     1      38.066  44.301  63.932  1.00  0.00     0.107 A 
HETATM   25  C   UNL     1      39.284  44.150  64.568  1.00  0.00     0.095 A 
HETATM   26  C   UNL     1      37.444  43.318  63.180  1.00  0.00     0.042 A 
HETATM   27  N   UNL     1      39.612  45.309  65.229  1.00  0.00    -0.221 NA
HETATM   28  C   UNL     1      39.960  42.927  64.460  1.00  0.00     0.064 A 
HETATM   29  C   UNL     1      39.372  41.891  63.706  1.00  0.00     0.037 A 
HETATM   30  C   UNL     1      38.132  42.098  63.082  1.00  0.00     0.032 A 
BRANCH  29  31
HETATM   31  N   UNL     1      40.095  40.680  63.627  1.00  0.00    -0.327 N 
HETATM   32  C   UNL     1      39.796  39.477  64.240  1.00  0.00     0.218 C 
HETATM   33  C   UNL     1      40.796  38.391  63.926  1.00  0.00     0.117 C 
HETATM   34  O   UNL     1      38.850  39.246  64.984  1.00  0.00    -0.274 OA
HETATM   35  H   UNL     1      40.931  40.705  63.056  1.00  0.00     0.169 HD
ENDBRANCH  29  31
ENDBRANCH   4  22
TORSDOF 4
ENDMDL
MODEL 10
REMARK VINA RESULT:      -8.8      2.649      3.092
REMARK  4 active torsions:
REMARK  status: ('A' for Active; 'I' for Inactive)
REMARK       I    between atoms: C_2  and  N_3 
REMARK    1  A    between atoms: N_3  and  C_4 
REMARK    2  A    between atoms: C_10  and  C_11 
REMARK    3  A    between atoms: C_14  and  C_15 
REMARK    4  A    between atoms: C_22  and  N_23 
REMARK       I    between atoms: N_23  and  C_24 
ROOT
HETATM    1  C   UNL     1      25.337  44.454  51.045  1.00  0.00     0.010 A 
HETATM    2  C   UNL     1      24.359  43.454  50.948  1.00  0.00     0.016 A 
HETATM    3  C   UNL     1      23.212  43.637  50.169  1.00  0.00     0.017 A 
HETATM    4  C   UNL     1      23.006  44.832  49.468  1.00  0.00     0.017 A 
HETATM    5  C   UNL     1      23.976  45.839  49.576  1.00  0.00     0.017 A 
HETATM    6  C   UNL     1      25.129  45.654  50.354  1.00  0.00     0.016 A 
ENDROOT
BRANCH   1   7
HETATM    7  C   UNL     1      26.527  44.202  51.863  1.00  0.00     0.139 A 
HETATM    8  N   UNL     1      27.619  43.468  51.456  1.00  0.00    -0.338 N 
HETATM    9  C   UNL     1      28.522  43.406  52.486  1.00  0.00     0.063 A 
HETATM   10  H   UNL     1      27.722  43.021  50.559  1.00  0.00     0.167 HD
HETATM   11  C   UNL     1      27.926  44.134  53.505  1.00  0.00     0.088 A 
HETATM   12  C   UNL     1      29.767  42.793  52.614  1.00  0.00     0.034 A 
HETATM   13  C   UNL     1      28.591  44.279  54.734  1.00  0.00     0.063 A 
HETATM   14  N   UNL     1      26.703  44.611  53.107  1.00  0.00    -0.228 NA
HETATM   15  C   UNL     1      29.844  43.680  54.905  1.00  0.00     0.037 A 
HETATM   16  C   UNL     1      30.413  42.947  53.849  1.00  0.00     0.032 A 
BRANCH  15  17
HETATM   17  N   UNL     1      30.596  43.764  56.098  1.00  0.00    -0.327 N 
HETATM   18  C   UNL     1      30.708  44.849  56.949  1.00  0.00     0.218 C 
HETATM   19  C   UNL     1      31.603  44.574  58.132  1.00  0.00     0.117 C 
HETATM   20  O   UNL     1      30.153  45.936  56.834  1.00  0.00    -0.274 OA
HETATM   21  H   UNL     1      31.105  42.928  56.358  1.00  0.00     0.169 HD
ENDBRANCH  15  17
ENDBRANCH   1   7
BRANCH   4  22
HETATM   22  C   UNL     1      21.819  45.047  48.643  1.00  0.00     0.180 A 
HETATM   23  O   UNL     1      21.655  46.310  48.127  1.00  0.00    -0.289 OA
HETATM   24  C   UNL     1      20.491  46.232  47.426  1.00  0.00     0.107 A 
HETATM   25  C   UNL     1      20.008  44.942  47.544  1.00  0.00     0.095 A 
HETATM   26  C   UNL     1      19.869  47.243  46.711  1.00  0.00     0.042 A 
HETATM   27  N   UNL     1      20.859  44.195  48.323  1.00  0.00    -0.221 NA
HETATM   28  C   UNL     1      18.808  44.605  46.903  1.00  0.00     0.064 A 
HETATM   29  C   UNL     1      18.134  45.595  46.161  1.00  0.00     0.037 A 
HETATM   30  C   UNL     1      18.668  46.890  46.076  1.00  0.00     0.032 A 
BRANCH  29  31
HETATM   31  N   UNL     1      16.930  45.203  45.533  1.00  0.00    -0.327 N 
HETATM   32  C   UNL     1      16.733  44.909  44.196  1.00  0.00     0.218 C 
HETATM   33  C   UNL     1      15.308  44.523  43.882  1.00  0.00     0.117 C 
HETATM   34  O   UNL     1      17.571  44.950  43.302  1.00  0.00    -0.274 OA
HETATM   35  H   UNL     1      16.121  45.138  46.137  1.00  0.00     0.169 HD
ENDBRANCH  29  31
ENDBRANCH   4  22
TORSDOF 4
ENDMDL
