MODEL 1
REMARK VINA RESULT:     -10.2      0.000      0.000
REMARK  6 active torsions:
REMARK  status: ('A' for Active; 'I' for Inactive)
REMARK    1  A    between atoms: O_2  and  C_3 
REMARK    2  A    between atoms: C_6  and  C_7 
REMARK    3  A    between atoms: C_13  and  C_14 
REMARK       I    between atoms: C_14  and  N_15 
REMARK    4  A    between atoms: N_15  and  C_16 
REMARK    5  A    between atoms: C_16  and  C_17 
REMARK    6  A    between atoms: C_24  and  C_25 
ROOT
HETATM    1  C   UNL     1      27.733  42.476  53.220  1.00  0.00     0.118 C 
HETATM    2  N   UNL     1      26.825  43.285  52.399  1.00  0.00    -0.365 N 
HETATM    3  C   UNL     1      26.138  42.686  51.386  1.00  0.00     0.138 A 
HETATM    4  N   UNL     1      26.470  41.410  50.977  1.00  0.00    -0.240 N 
HETATM    5  N   UNL     1      25.670  40.919  50.025  1.00  0.00    -0.181 NA
HETATM    6  C   UNL     1      24.871  41.949  49.737  1.00  0.00     0.160 A 
HETATM    7  C   UNL     1      25.105  43.084  50.555  1.00  0.00     0.096 A 
HETATM    8  C   UNL     1      27.556  40.621  51.534  1.00  0.00     0.221 C 
HETATM    9  C   UNL     1      28.526  41.534  52.306  1.00  0.00     0.066 C 
HETATM   10  H   UNL     1      27.095  44.266  52.313  1.00  0.00     0.161 HD
ENDROOT
BRANCH   7  11
HETATM   11  C   UNL     1      24.347  44.317  50.486  1.00  0.00     0.257 C 
HETATM   12  N   UNL     1      25.070  45.452  50.194  1.00  0.00    -0.352 N 
HETATM   13  H   UNL     1      26.079  45.386  50.252  1.00  0.00     0.163 HD
HETATM   14  O   UNL     1      23.141  44.339  50.710  1.00  0.00    -0.267 OA
BRANCH  12  15
HETATM   15  C   UNL     1      24.450  46.753  50.285  1.00  0.00     0.161 C 
BRANCH  15  16
HETATM   16  C   UNL     1      25.298  47.863  49.715  1.00  0.00    -0.041 A 
HETATM   17  C   UNL     1      26.696  47.846  49.811  1.00  0.00     0.009 A 
HETATM   18  C   UNL     1      27.463  48.839  49.198  1.00  0.00     0.001 A 
HETATM   19  C   UNL     1      26.843  49.848  48.464  1.00  0.00     0.000 A 
HETATM   20  C   UNL     1      25.456  49.867  48.344  1.00  0.00     0.001 A 
HETATM   21  C   UNL     1      24.688  48.880  48.963  1.00  0.00     0.009 A 
ENDBRANCH  15  16
ENDBRANCH  12  15
ENDBRANCH   7  11
BRANCH   1  22
HETATM   22  C   UNL     1      28.560  43.370  54.125  1.00  0.00    -0.035 A 
HETATM   23  C   UNL     1      28.048  44.631  54.481  1.00  0.00     0.012 A 
HETATM   24  C   UNL     1      28.732  45.469  55.370  1.00  0.00     0.037 A 
HETATM   25  C   UNL     1      29.946  45.064  55.918  1.00  0.00     0.068 A 
HETATM   26  C   UNL     1      30.485  43.835  55.540  1.00  0.00     0.037 A 
HETATM   27  C   UNL     1      29.804  42.995  54.651  1.00  0.00     0.012 A 
BRANCH  25  28
HETATM   28  O   UNL     1      30.699  45.770  56.815  1.00  0.00    -0.356 OA
HETATM   29  C   UNL     1      30.373  45.603  58.189  1.00  0.00     0.210 C 
ENDBRANCH  25  28
ENDBRANCH   1  22
BRANCH   8  30
HETATM   30  C   UNL     1      28.323  39.861  50.472  1.00  0.00     0.409 C 
HETATM   31  F   UNL     1      28.729  40.656  49.457  1.00  0.00    -0.169 F 
HETATM   32  F   UNL     1      29.454  39.337  51.023  1.00  0.00    -0.169 F 
HETATM   33  F   UNL     1      27.645  38.815  49.956  1.00  0.00    -0.169 F 
ENDBRANCH   8  30
TORSDOF 6
ENDMDL
MODEL 2
REMARK VINA RESULT:      -9.6      2.231      2.974
REMARK  6 active torsions:
REMARK  status: ('A' for Active; 'I' for Inactive)
REMARK    1  A    between atoms: O_2  and  C_3 
REMARK    2  A    between atoms: C_6  and  C_7 
REMARK    3  A    between atoms: C_13  and  C_14 
REMARK       I    between atoms: C_14  and  N_15 
REMARK    4  A    between atoms: N_15  and  C_16 
REMARK    5  A    between atoms: C_16  and  C_17 
REMARK    6  A    between atoms: C_24  and  C_25 
ROOT
HETATM    1  C   UNL     1      27.221  43.567  52.738  1.00  0.00     0.118 C 
HETATM    2  N   UNL     1      26.823  44.780  52.014  1.00  0.00    -0.365 N 
HETATM    3  C   UNL     1      26.011  44.664  50.925  1.00  0.00     0.138 A 
HETATM    4  N   UNL     1      25.770  43.427  50.364  1.00  0.00    -0.240 N 
HETATM    5  N   UNL     1      24.900  43.451  49.348  1.00  0.00    -0.181 NA
HETATM    6  C   UNL     1      24.662  44.754  49.182  1.00  0.00     0.160 A 
HETATM    7  C   UNL     1      25.320  45.569  50.139  1.00  0.00     0.096 A 
HETATM    8  C   UNL     1      26.353  42.181  50.830  1.00  0.00     0.221 C 
HETATM    9  C   UNL     1      27.573  42.473  51.723  1.00  0.00     0.066 C 
HETATM   10  H   UNL     1      27.505  45.539  52.055  1.00  0.00     0.161 HD
ENDROOT
BRANCH   7  11
HETATM   11  C   UNL     1      25.194  47.011  50.216  1.00  0.00     0.257 C 
HETATM   12  N   UNL     1      24.286  47.582  49.352  1.00  0.00    -0.352 N 
HETATM   13  H   UNL     1      23.932  47.001  48.602  1.00  0.00     0.163 HD
HETATM   14  O   UNL     1      25.884  47.673  50.983  1.00  0.00    -0.267 OA
BRANCH  12  15
HETATM   15  C   UNL     1      24.216  49.017  49.214  1.00  0.00     0.161 C 
BRANCH  15  16
HETATM   16  C   UNL     1      22.810  49.537  49.052  1.00  0.00    -0.041 A 
HETATM   17  C   UNL     1      22.549  50.893  48.805  1.00  0.00     0.009 A 
HETATM   18  C   UNL     1      21.245  51.334  48.569  1.00  0.00     0.001 A 
HETATM   19  C   UNL     1      20.190  50.425  48.558  1.00  0.00     0.000 A 
HETATM   20  C   UNL     1      20.436  49.073  48.785  1.00  0.00     0.001 A 
HETATM   21  C   UNL     1      21.738  48.631  49.027  1.00  0.00     0.009 A 
ENDBRANCH  15  16
ENDBRANCH  12  15
ENDBRANCH   7  11
BRANCH   1  22
HETATM   22  C   UNL     1      28.296  43.893  53.758  1.00  0.00    -0.035 A 
HETATM   23  C   UNL     1      28.190  45.087  54.494  1.00  0.00     0.012 A 
HETATM   24  C   UNL     1      29.111  45.407  55.499  1.00  0.00     0.037 A 
HETATM   25  C   UNL     1      30.162  44.539  55.785  1.00  0.00     0.068 A 
HETATM   26  C   UNL     1      30.303  43.374  55.033  1.00  0.00     0.037 A 
HETATM   27  C   UNL     1      29.384  43.051  54.028  1.00  0.00     0.012 A 
BRANCH  25  28
HETATM   28  O   UNL     1      31.110  44.716  56.753  1.00  0.00    -0.356 OA
HETATM   29  C   UNL     1      31.763  43.544  57.226  1.00  0.00     0.210 C 
ENDBRANCH  25  28
ENDBRANCH   1  22
BRANCH   8  30
HETATM   30  C   UNL     1      26.773  41.275  49.691  1.00  0.00     0.409 C 
HETATM   31  F   UNL     1      27.347  41.955  48.673  1.00  0.00    -0.169 F 
HETATM   32  F   UNL     1      27.710  40.394  50.139  1.00  0.00    -0.169 F 
HETATM   33  F   UNL     1      25.768  40.525  49.195  1.00  0.00    -0.169 F 
ENDBRANCH   8  30
TORSDOF 6
ENDMDL
MODEL 3
REMARK VINA RESULT:      -9.5      3.231      4.532
REMARK  6 active torsions:
REMARK  status: ('A' for Active; 'I' for Inactive)
REMARK    1  A    between atoms: O_2  and  C_3 
REMARK    2  A    between atoms: C_6  and  C_7 
REMARK    3  A    between atoms: C_13  and  C_14 
REMARK       I    between atoms: C_14  and  N_15 
REMARK    4  A    between atoms: N_15  and  C_16 
REMARK    5  A    between atoms: C_16  and  C_17 
REMARK    6  A    between atoms: C_24  and  C_25 
ROOT
HETATM    1  C   UNL     1      25.557  44.893  52.588  1.00  0.00     0.118 C 
HETATM    2  N   UNL     1      25.284  46.038  51.712  1.00  0.00    -0.365 N 
HETATM    3  C   UNL     1      24.458  45.869  50.640  1.00  0.00     0.138 A 
HETATM    4  N   UNL     1      24.086  44.602  50.240  1.00  0.00    -0.240 N 
HETATM    5  N   UNL     1      23.218  44.587  49.223  1.00  0.00    -0.181 NA
HETATM    6  C   UNL     1      23.117  45.876  48.889  1.00  0.00     0.160 A 
HETATM    7  C   UNL     1      23.862  46.734  49.739  1.00  0.00     0.096 A 
HETATM    8  C   UNL     1      24.537  43.372  50.867  1.00  0.00     0.221 C 
HETATM    9  C   UNL     1      25.786  43.647  51.724  1.00  0.00     0.066 C 
HETATM   10  H   UNL     1      26.042  46.721  51.660  1.00  0.00     0.161 HD
ENDROOT
BRANCH   7  11
HETATM   11  C   UNL     1      23.888  48.179  49.629  1.00  0.00     0.257 C 
HETATM   12  N   UNL     1      22.661  48.802  49.605  1.00  0.00    -0.352 N 
HETATM   13  H   UNL     1      21.847  48.217  49.460  1.00  0.00     0.163 HD
HETATM   14  O   UNL     1      24.945  48.793  49.530  1.00  0.00    -0.267 OA
BRANCH  12  15
HETATM   15  C   UNL     1      22.567  50.213  49.312  1.00  0.00     0.161 C 
BRANCH  15  16
HETATM   16  C   UNL     1      21.157  50.745  49.369  1.00  0.00    -0.041 A 
HETATM   17  C   UNL     1      20.697  51.711  48.463  1.00  0.00     0.009 A 
HETATM   18  C   UNL     1      19.362  52.122  48.479  1.00  0.00     0.001 A 
HETATM   19  C   UNL     1      18.468  51.559  49.386  1.00  0.00     0.000 A 
HETATM   20  C   UNL     1      18.906  50.585  50.280  1.00  0.00     0.001 A 
HETATM   21  C   UNL     1      20.241  50.179  50.270  1.00  0.00     0.009 A 
ENDBRANCH  15  16
ENDBRANCH  12  15
ENDBRANCH   7  11
BRANCH   1  22
HETATM   22  C   UNL     1      26.666  45.233  53.566  1.00  0.00    -0.035 A 
HETATM   23  C   UNL     1      27.590  44.231  53.915  1.00  0.00     0.012 A 
HETATM   24  C   UNL     1      28.676  44.503  54.755  1.00  0.00     0.037 A 
HETATM   25  C   UNL     1      28.858  45.785  55.268  1.00  0.00     0.068 A 
HETATM   26  C   UNL     1      27.925  46.776  54.964  1.00  0.00     0.037 A 
HETATM   27  C   UNL     1      26.839  46.507  54.124  1.00  0.00     0.012 A 
BRANCH  25  28
HETATM   28  O   UNL     1      29.886  46.191  56.072  1.00  0.00    -0.356 OA
HETATM   29  C   UNL     1      30.532  45.180  56.837  1.00  0.00     0.210 C 
ENDBRANCH  25  28
ENDBRANCH   1  22
BRANCH   8  30
HETATM   30  C   UNL     1      24.853  42.289  49.856  1.00  0.00     0.409 C 
HETATM   31  F   UNL     1      25.591  42.746  48.821  1.00  0.00    -0.169 F 
HETATM   32  F   UNL     1      25.596  41.317  50.457  1.00  0.00    -0.169 F 
HETATM   33  F   UNL     1      23.761  41.669  49.366  1.00  0.00    -0.169 F 
ENDBRANCH   8  30
TORSDOF 6
ENDMDL
MODEL 4
REMARK VINA RESULT:      -8.7      5.155     10.021
REMARK  6 active torsions:
REMARK  status: ('A' for Active; 'I' for Inactive)
REMARK    1  A    between atoms: O_2  and  C_3 
REMARK    2  A    between atoms: C_6  and  C_7 
REMARK    3  A    between atoms: C_13  and  C_14 
REMARK       I    between atoms: C_14  and  N_15 
REMARK    4  A    between atoms: N_15  and  C_16 
REMARK    5  A    between atoms: C_16  and  C_17 
REMARK    6  A    between atoms: C_24  and  C_25 
ROOT
HETATM    1  C   UNL     1      21.461  47.066  48.830  1.00  0.00     0.118 C 
HETATM    2  N   UNL     1      22.658  46.246  49.048  1.00  0.00    -0.365 N 
HETATM    3  C   UNL     1      23.813  46.853  49.441  1.00  0.00     0.138 A 
HETATM    4  N   UNL     1      23.929  48.227  49.396  1.00  0.00    -0.240 N 
HETATM    5  N   UNL     1      25.087  48.691  49.878  1.00  0.00    -0.181 NA
HETATM    6  C   UNL     1      25.777  47.579  50.137  1.00  0.00     0.160 A 
HETATM    7  C   UNL     1      25.038  46.392  49.892  1.00  0.00     0.096 A 
HETATM    8  C   UNL     1      22.894  49.127  48.917  1.00  0.00     0.221 C 
HETATM    9  C   UNL     1      21.861  48.345  48.086  1.00  0.00     0.066 C 
HETATM   10  H   UNL     1      22.703  45.403  48.472  1.00  0.00     0.161 HD
ENDROOT
BRANCH   7  11
HETATM   11  C   UNL     1      25.532  45.051  50.136  1.00  0.00     0.257 C 
HETATM   12  N   UNL     1      26.661  44.960  50.919  1.00  0.00    -0.352 N 
HETATM   13  H   UNL     1      27.175  45.815  51.093  1.00  0.00     0.163 HD
HETATM   14  O   UNL     1      24.987  44.070  49.640  1.00  0.00    -0.267 OA
BRANCH  12  15
HETATM   15  C   UNL     1      27.341  43.695  51.069  1.00  0.00     0.161 C 
BRANCH  15  16
HETATM   16  C   UNL     1      28.169  43.604  52.326  1.00  0.00    -0.041 A 
HETATM   17  C   UNL     1      29.335  42.828  52.386  1.00  0.00     0.009 A 
HETATM   18  C   UNL     1      30.133  42.832  53.532  1.00  0.00     0.001 A 
HETATM   19  C   UNL     1      29.787  43.625  54.623  1.00  0.00     0.000 A 
HETATM   20  C   UNL     1      28.642  44.415  54.571  1.00  0.00     0.001 A 
HETATM   21  C   UNL     1      27.839  44.407  53.429  1.00  0.00     0.009 A 
ENDBRANCH  15  16
ENDBRANCH  12  15
ENDBRANCH   7  11
BRANCH   1  22
HETATM   22  C   UNL     1      20.368  46.237  48.181  1.00  0.00    -0.035 A 
HETATM   23  C   UNL     1      19.029  46.500  48.520  1.00  0.00     0.012 A 
HETATM   24  C   UNL     1      17.974  45.819  47.901  1.00  0.00     0.037 A 
HETATM   25  C   UNL     1      18.238  44.856  46.930  1.00  0.00     0.068 A 
HETATM   26  C   UNL     1      19.563  44.556  46.616  1.00  0.00     0.037 A 
HETATM   27  C   UNL     1      20.620  45.236  47.233  1.00  0.00     0.012 A 
BRANCH  25  28
HETATM   28  O   UNL     1      17.306  44.141  46.231  1.00  0.00    -0.356 OA
HETATM   29  C   UNL     1      16.999  44.606  44.922  1.00  0.00     0.210 C 
ENDBRANCH  25  28
ENDBRANCH   1  22
BRANCH   8  30
HETATM   30  C   UNL     1      23.454  50.260  48.081  1.00  0.00     0.409 C 
HETATM   31  F   UNL     1      24.626  49.938  47.491  1.00  0.00    -0.169 F 
HETATM   32  F   UNL     1      22.583  50.546  47.072  1.00  0.00    -0.169 F 
HETATM   33  F   UNL     1      23.617  51.411  48.765  1.00  0.00    -0.169 F 
ENDBRANCH   8  30
TORSDOF 6
ENDMDL
MODEL 5
REMARK VINA RESULT:      -8.7      3.459      8.153
REMARK  6 active torsions:
REMARK  status: ('A' for Active; 'I' for Inactive)
REMARK    1  A    between atoms: O_2  and  C_3 
REMARK    2  A    between atoms: C_6  and  C_7 
REMARK    3  A    between atoms: C_13  and  C_14 
REMARK       I    between atoms: C_14  and  N_15 
REMARK    4  A    between atoms: N_15  and  C_16 
REMARK    5  A    between atoms: C_16  and  C_17 
REMARK    6  A    between atoms: C_24  and  C_25 
ROOT
HETATM    1  C   UNL     1      25.698  46.050  51.448  1.00  0.00     0.118 C 
HETATM    2  N   UNL     1      26.378  44.946  50.762  1.00  0.00    -0.365 N 
HETATM    3  C   UNL     1      26.918  43.938  51.503  1.00  0.00     0.138 A 
HETATM    4  N   UNL     1      27.047  44.071  52.871  1.00  0.00    -0.240 N 
HETATM    5  N   UNL     1      27.526  42.981  53.480  1.00  0.00    -0.181 NA
HETATM    6  C   UNL     1      27.816  42.166  52.464  1.00  0.00     0.160 A 
HETATM    7  C   UNL     1      27.456  42.700  51.199  1.00  0.00     0.096 A 
HETATM    8  C   UNL     1      26.668  45.254  53.625  1.00  0.00     0.221 C 
HETATM    9  C   UNL     1      26.522  46.457  52.675  1.00  0.00     0.066 C 
HETATM   10  H   UNL     1      26.809  45.203  49.872  1.00  0.00     0.161 HD
ENDROOT
BRANCH   7  11
HETATM   11  C   UNL     1      27.615  42.003  49.938  1.00  0.00     0.257 C 
HETATM   12  N   UNL     1      28.332  40.829  49.986  1.00  0.00    -0.352 N 
HETATM   13  H   UNL     1      28.860  40.643  50.830  1.00  0.00     0.163 HD
HETATM   14  O   UNL     1      27.164  42.462  48.894  1.00  0.00    -0.267 OA
BRANCH  12  15
HETATM   15  C   UNL     1      28.709  40.156  48.766  1.00  0.00     0.161 C 
BRANCH  15  16
HETATM   16  C   UNL     1      27.971  38.860  48.542  1.00  0.00    -0.041 A 
HETATM   17  C   UNL     1      28.078  38.148  47.339  1.00  0.00     0.009 A 
HETATM   18  C   UNL     1      27.457  36.907  47.189  1.00  0.00     0.001 A 
HETATM   19  C   UNL     1      26.739  36.352  48.245  1.00  0.00     0.000 A 
HETATM   20  C   UNL     1      26.638  37.039  49.453  1.00  0.00     0.001 A 
HETATM   21  C   UNL     1      27.252  38.283  49.602  1.00  0.00     0.009 A 
ENDBRANCH  15  16
ENDBRANCH  12  15
ENDBRANCH   7  11
BRANCH   1  22
HETATM   22  C   UNL     1      25.381  47.163  50.466  1.00  0.00    -0.035 A 
HETATM   23  C   UNL     1      26.434  47.963  49.988  1.00  0.00     0.012 A 
HETATM   24  C   UNL     1      26.214  48.958  49.027  1.00  0.00     0.037 A 
HETATM   25  C   UNL     1      24.933  49.174  48.527  1.00  0.00     0.068 A 
HETATM   26  C   UNL     1      23.873  48.416  49.024  1.00  0.00     0.037 A 
HETATM   27  C   UNL     1      24.090  47.422  49.985  1.00  0.00     0.012 A 
BRANCH  25  28
HETATM   28  O   UNL     1      24.586  50.088  47.571  1.00  0.00    -0.356 OA
HETATM   29  C   UNL     1      23.296  50.675  47.690  1.00  0.00     0.210 C 
ENDBRANCH  25  28
ENDBRANCH   1  22
BRANCH   8  30
HETATM   30  C   UNL     1      27.668  45.593  54.711  1.00  0.00     0.409 C 
HETATM   31  F   UNL     1      28.946  45.381  54.323  1.00  0.00    -0.169 F 
HETATM   32  F   UNL     1      27.574  46.919  55.010  1.00  0.00    -0.169 F 
HETATM   33  F   UNL     1      27.455  44.937  55.870  1.00  0.00    -0.169 F 
ENDBRANCH   8  30
TORSDOF 6
ENDMDL
MODEL 6
REMARK VINA RESULT:      -8.7      3.923      5.465
REMARK  6 active torsions:
REMARK  status: ('A' for Active; 'I' for Inactive)
REMARK    1  A    between atoms: O_2  and  C_3 
REMARK    2  A    between atoms: C_6  and  C_7 
REMARK    3  A    between atoms: C_13  and  C_14 
REMARK       I    between atoms: C_14  and  N_15 
REMARK    4  A    between atoms: N_15  and  C_16 
REMARK    5  A    between atoms: C_16  and  C_17 
REMARK    6  A    between atoms: C_24  and  C_25 
ROOT
HETATM    1  C   UNL     1      24.415  44.778  51.213  1.00  0.00     0.118 C 
HETATM    2  N   UNL     1      24.182  46.007  50.446  1.00  0.00    -0.365 N 
HETATM    3  C   UNL     1      23.312  45.977  49.397  1.00  0.00     0.138 A 
HETATM    4  N   UNL     1      22.851  44.772  48.908  1.00  0.00    -0.240 N 
HETATM    5  N   UNL     1      21.950  44.893  47.927  1.00  0.00    -0.181 NA
HETATM    6  C   UNL     1      21.915  46.209  47.706  1.00  0.00     0.160 A 
HETATM    7  C   UNL     1      22.739  46.948  48.594  1.00  0.00     0.096 A 
HETATM    8  C   UNL     1      23.249  43.469  49.413  1.00  0.00     0.221 C 
HETATM    9  C   UNL     1      24.540  43.599  50.241  1.00  0.00     0.066 C 
HETATM   10  H   UNL     1      24.978  46.647  50.423  1.00  0.00     0.161 HD
ENDROOT
BRANCH   7  11
HETATM   11  C   UNL     1      22.848  48.393  48.604  1.00  0.00     0.257 C 
HETATM   12  N   UNL     1      22.119  49.044  49.573  1.00  0.00    -0.352 N 
HETATM   13  H   UNL     1      21.415  48.505  50.064  1.00  0.00     0.163 HD
HETATM   14  O   UNL     1      23.525  48.988  47.772  1.00  0.00    -0.267 OA
BRANCH  12  15
HETATM   15  C   UNL     1      22.007  50.484  49.556  1.00  0.00     0.161 C 
BRANCH  15  16
HETATM   16  C   UNL     1      20.584  50.975  49.469  1.00  0.00    -0.041 A 
HETATM   17  C   UNL     1      20.198  51.956  48.544  1.00  0.00     0.009 A 
HETATM   18  C   UNL     1      18.858  52.329  48.422  1.00  0.00     0.001 A 
HETATM   19  C   UNL     1      17.886  51.713  49.207  1.00  0.00     0.000 A 
HETATM   20  C   UNL     1      18.252  50.725  50.117  1.00  0.00     0.001 A 
HETATM   21  C   UNL     1      19.592  50.355  50.245  1.00  0.00     0.009 A 
ENDBRANCH  15  16
ENDBRANCH  12  15
ENDBRANCH   7  11
BRANCH   1  22
HETATM   22  C   UNL     1      25.575  44.969  52.173  1.00  0.00    -0.035 A 
HETATM   23  C   UNL     1      25.566  46.085  53.029  1.00  0.00     0.012 A 
HETATM   24  C   UNL     1      26.572  46.276  53.986  1.00  0.00     0.037 A 
HETATM   25  C   UNL     1      27.610  45.355  54.101  1.00  0.00     0.068 A 
HETATM   26  C   UNL     1      27.652  44.268  53.229  1.00  0.00     0.037 A 
HETATM   27  C   UNL     1      26.649  44.075  52.272  1.00  0.00     0.012 A 
BRANCH  25  28
HETATM   28  O   UNL     1      28.633  45.407  55.005  1.00  0.00    -0.356 OA
HETATM   29  C   UNL     1      28.514  46.368  56.047  1.00  0.00     0.210 C 
ENDBRANCH  25  28
ENDBRANCH   1  22
BRANCH   8  30
HETATM   30  C   UNL     1      23.465  42.460  48.304  1.00  0.00     0.409 C 
HETATM   31  F   UNL     1      22.305  41.948  47.836  1.00  0.00    -0.169 F 
HETATM   32  F   UNL     1      24.067  43.075  47.248  1.00  0.00    -0.169 F 
HETATM   33  F   UNL     1      24.278  41.440  48.650  1.00  0.00    -0.169 F 
ENDBRANCH   8  30
TORSDOF 6
ENDMDL
MODEL 7
REMARK VINA RESULT:      -8.7      3.514      6.870
REMARK  6 active torsions:
REMARK  status: ('A' for Active; 'I' for Inactive)
REMARK    1  A    between atoms: O_2  and  C_3 
REMARK    2  A    between atoms: C_6  and  C_7 
REMARK    3  A    between atoms: C_13  and  C_14 
REMARK       I    between atoms: C_14  and  N_15 
REMARK    4  A    between atoms: N_15  and  C_16 
REMARK    5  A    between atoms: C_16  and  C_17 
REMARK    6  A    between atoms: C_24  and  C_25 
ROOT
HETATM    1  C   UNL     1      28.222  44.175  52.509  1.00  0.00     0.118 C 
HETATM    2  N   UNL     1      27.980  42.804  52.047  1.00  0.00    -0.365 N 
HETATM    3  C   UNL     1      27.142  42.599  50.992  1.00  0.00     0.138 A 
HETATM    4  N   UNL     1      26.344  43.624  50.526  1.00  0.00    -0.240 N 
HETATM    5  N   UNL     1      25.627  43.305  49.443  1.00  0.00    -0.181 NA
HETATM    6  C   UNL     1      25.887  42.006  49.277  1.00  0.00     0.160 A 
HETATM    7  C   UNL     1      26.832  41.501  50.207  1.00  0.00     0.096 A 
HETATM    8  C   UNL     1      26.292  44.956  51.103  1.00  0.00     0.221 C 
HETATM    9  C   UNL     1      26.893  44.940  52.520  1.00  0.00     0.066 C 
HETATM   10  H   UNL     1      28.054  42.093  52.777  1.00  0.00     0.161 HD
ENDROOT
BRANCH   7  11
HETATM   11  C   UNL     1      27.328  40.140  50.218  1.00  0.00     0.257 C 
HETATM   12  N   UNL     1      26.525  39.203  49.608  1.00  0.00    -0.352 N 
HETATM   13  H   UNL     1      25.577  39.480  49.385  1.00  0.00     0.163 HD
HETATM   14  O   UNL     1      28.384  39.849  50.771  1.00  0.00    -0.267 OA
BRANCH  12  15
HETATM   15  C   UNL     1      26.830  37.796  49.724  1.00  0.00     0.161 C 
BRANCH  15  16
HETATM   16  C   UNL     1      27.327  37.182  48.440  1.00  0.00    -0.041 A 
HETATM   17  C   UNL     1      26.608  36.176  47.777  1.00  0.00     0.009 A 
HETATM   18  C   UNL     1      27.043  35.687  46.544  1.00  0.00     0.001 A 
HETATM   19  C   UNL     1      28.189  36.209  45.949  1.00  0.00     0.000 A 
HETATM   20  C   UNL     1      28.903  37.221  46.586  1.00  0.00     0.001 A 
HETATM   21  C   UNL     1      28.474  37.706  47.822  1.00  0.00     0.009 A 
ENDBRANCH  15  16
ENDBRANCH  12  15
ENDBRANCH   7  11
BRANCH   1  22
HETATM   22  C   UNL     1      28.987  44.161  53.819  1.00  0.00    -0.035 A 
HETATM   23  C   UNL     1      29.872  43.098  54.074  1.00  0.00     0.012 A 
HETATM   24  C   UNL     1      30.659  43.067  55.232  1.00  0.00     0.037 A 
HETATM   25  C   UNL     1      30.573  44.100  56.162  1.00  0.00     0.068 A 
HETATM   26  C   UNL     1      29.669  45.138  55.941  1.00  0.00     0.037 A 
HETATM   27  C   UNL     1      28.882  45.172  54.784  1.00  0.00     0.012 A 
BRANCH  25  28
HETATM   28  O   UNL     1      31.301  44.207  57.313  1.00  0.00    -0.356 OA
HETATM   29  C   UNL     1      30.823  45.130  58.285  1.00  0.00     0.210 C 
ENDBRANCH  25  28
ENDBRANCH   1  22
BRANCH   8  30
HETATM   30  C   UNL     1      24.881  45.505  51.164  1.00  0.00     0.409 C 
HETATM   31  F   UNL     1      23.989  44.592  51.610  1.00  0.00    -0.169 F 
HETATM   32  F   UNL     1      24.841  46.542  52.047  1.00  0.00    -0.169 F 
HETATM   33  F   UNL     1      24.440  46.002  49.991  1.00  0.00    -0.169 F 
ENDBRANCH   8  30
TORSDOF 6
ENDMDL
MODEL 8
REMARK VINA RESULT:      -8.3      5.508      7.872
REMARK  6 active torsions:
REMARK  status: ('A' for Active; 'I' for Inactive)
REMARK    1  A    between atoms: O_2  and  C_3 
REMARK    2  A    between atoms: C_6  and  C_7 
REMARK    3  A    between atoms: C_13  and  C_14 
REMARK       I    between atoms: C_14  and  N_15 
REMARK    4  A    between atoms: N_15  and  C_16 
REMARK    5  A    between atoms: C_16  and  C_17 
REMARK    6  A    between atoms: C_24  and  C_25 
ROOT
HETATM    1  C   UNL     1      25.095  46.976  50.143  1.00  0.00     0.118 C 
HETATM    2  N   UNL     1      23.758  47.582  50.132  1.00  0.00    -0.365 N 
HETATM    3  C   UNL     1      23.476  48.544  49.209  1.00  0.00     0.138 A 
HETATM    4  N   UNL     1      24.488  49.116  48.466  1.00  0.00    -0.240 N 
HETATM    5  N   UNL     1      24.062  49.992  47.550  1.00  0.00    -0.181 NA
HETATM    6  C   UNL     1      22.751  50.066  47.787  1.00  0.00     0.160 A 
HETATM    7  C   UNL     1      22.315  49.182  48.808  1.00  0.00     0.096 A 
HETATM    8  C   UNL     1      25.898  48.793  48.605  1.00  0.00     0.221 C 
HETATM    9  C   UNL     1      26.143  48.077  49.946  1.00  0.00     0.066 C 
HETATM   10  H   UNL     1      23.299  47.609  51.044  1.00  0.00     0.161 HD
ENDROOT
BRANCH   7  11
HETATM   11  C   UNL     1      20.937  49.027  49.228  1.00  0.00     0.257 C 
HETATM   12  N   UNL     1      20.412  50.066  49.962  1.00  0.00    -0.352 N 
HETATM   13  H   UNL     1      21.062  50.752  50.326  1.00  0.00     0.163 HD
HETATM   14  O   UNL     1      20.300  48.011  48.968  1.00  0.00    -0.267 OA
BRANCH  12  15
HETATM   15  C   UNL     1      19.116  49.934  50.587  1.00  0.00     0.161 C 
BRANCH  15  16
HETATM   16  C   UNL     1      18.033  50.722  49.895  1.00  0.00    -0.041 A 
HETATM   17  C   UNL     1      17.935  52.115  50.026  1.00  0.00     0.009 A 
HETATM   18  C   UNL     1      16.979  52.831  49.304  1.00  0.00     0.001 A 
HETATM   19  C   UNL     1      16.123  52.169  48.428  1.00  0.00     0.000 A 
HETATM   20  C   UNL     1      16.219  50.789  48.274  1.00  0.00     0.001 A 
HETATM   21  C   UNL     1      17.169  50.070  49.000  1.00  0.00     0.009 A 
ENDBRANCH  15  16
ENDBRANCH  12  15
ENDBRANCH   7  11
BRANCH   1  22
HETATM   22  C   UNL     1      25.269  46.111  51.378  1.00  0.00    -0.035 A 
HETATM   23  C   UNL     1      25.150  44.716  51.248  1.00  0.00     0.012 A 
HETATM   24  C   UNL     1      25.372  43.862  52.336  1.00  0.00     0.037 A 
HETATM   25  C   UNL     1      25.713  44.389  53.579  1.00  0.00     0.068 A 
HETATM   26  C   UNL     1      25.792  45.773  53.731  1.00  0.00     0.037 A 
HETATM   27  C   UNL     1      25.571  46.628  52.645  1.00  0.00     0.012 A 
BRANCH  25  28
HETATM   28  O   UNL     1      25.983  43.670  54.710  1.00  0.00    -0.356 OA
HETATM   29  C   UNL     1      27.147  42.854  54.683  1.00  0.00     0.210 C 
ENDBRANCH  25  28
ENDBRANCH   1  22
BRANCH   8  30
HETATM   30  C   UNL     1      26.784  50.019  48.524  1.00  0.00     0.409 C 
HETATM   31  F   UNL     1      26.637  50.688  47.359  1.00  0.00    -0.169 F 
HETATM   32  F   UNL     1      26.438  50.890  49.512  1.00  0.00    -0.169 F 
HETATM   33  F   UNL     1      28.094  49.755  48.706  1.00  0.00    -0.169 F 
ENDBRANCH   8  30
TORSDOF 6
ENDMDL
MODEL 9
REMARK VINA RESULT:      -8.3      3.732      6.125
REMARK  6 active torsions:
REMARK  status: ('A' for Active; 'I' for Inactive)
REMARK    1  A    between atoms: O_2  and  C_3 
REMARK    2  A    between atoms: C_6  and  C_7 
REMARK    3  A    between atoms: C_13  and  C_14 
REMARK       I    between atoms: C_14  and  N_15 
REMARK    4  A    between atoms: N_15  and  C_16 
REMARK    5  A    between atoms: C_16  and  C_17 
REMARK    6  A    between atoms: C_24  and  C_25 
ROOT
HETATM    1  C   UNL     1      27.227  43.182  51.021  1.00  0.00     0.118 C 
HETATM    2  N   UNL     1      26.054  43.886  50.492  1.00  0.00    -0.365 N 
HETATM    3  C   UNL     1      25.732  45.110  50.998  1.00  0.00     0.138 A 
HETATM    4  N   UNL     1      26.339  45.570  52.150  1.00  0.00    -0.240 N 
HETATM    5  N   UNL     1      25.983  46.812  52.493  1.00  0.00    -0.181 NA
HETATM    6  C   UNL     1      25.039  47.117  51.600  1.00  0.00     0.160 A 
HETATM    7  C   UNL     1      24.836  46.099  50.632  1.00  0.00     0.096 A 
HETATM    8  C   UNL     1      27.314  44.821  52.924  1.00  0.00     0.221 C 
HETATM    9  C   UNL     1      27.250  43.329  52.548  1.00  0.00     0.066 C 
HETATM   10  H   UNL     1      25.312  43.273  50.148  1.00  0.00     0.161 HD
ENDROOT
BRANCH   7  11
HETATM   11  C   UNL     1      23.907  46.193  49.523  1.00  0.00     0.257 C 
HETATM   12  N   UNL     1      23.197  47.369  49.432  1.00  0.00    -0.352 N 
HETATM   13  H   UNL     1      23.216  47.985  50.236  1.00  0.00     0.163 HD
HETATM   14  O   UNL     1      23.748  45.261  48.742  1.00  0.00    -0.267 OA
BRANCH  12  15
HETATM   15  C   UNL     1      22.116  47.495  48.483  1.00  0.00     0.161 C 
BRANCH  15  16
HETATM   16  C   UNL     1      21.562  48.894  48.385  1.00  0.00    -0.041 A 
HETATM   17  C   UNL     1      20.407  49.180  47.644  1.00  0.00     0.009 A 
HETATM   18  C   UNL     1      19.863  50.466  47.642  1.00  0.00     0.001 A 
HETATM   19  C   UNL     1      20.454  51.476  48.397  1.00  0.00     0.000 A 
HETATM   20  C   UNL     1      21.591  51.203  49.153  1.00  0.00     0.001 A 
HETATM   21  C   UNL     1      22.140  49.920  49.150  1.00  0.00     0.009 A 
ENDBRANCH  15  16
ENDBRANCH  12  15
ENDBRANCH   7  11
BRANCH   1  22
HETATM   22  C   UNL     1      27.268  41.760  50.494  1.00  0.00    -0.035 A 
HETATM   23  C   UNL     1      26.263  41.339  49.605  1.00  0.00     0.012 A 
HETATM   24  C   UNL     1      26.288  40.063  49.029  1.00  0.00     0.037 A 
HETATM   25  C   UNL     1      27.319  39.179  49.335  1.00  0.00     0.068 A 
HETATM   26  C   UNL     1      28.298  39.569  50.248  1.00  0.00     0.037 A 
HETATM   27  C   UNL     1      28.275  40.843  50.826  1.00  0.00     0.012 A 
BRANCH  25  28
HETATM   28  O   UNL     1      27.477  37.921  48.824  1.00  0.00    -0.356 OA
HETATM   29  C   UNL     1      26.957  36.849  49.601  1.00  0.00     0.210 C 
ENDBRANCH  25  28
ENDBRANCH   1  22
BRANCH   8  30
HETATM   30  C   UNL     1      27.104  44.969  54.417  1.00  0.00     0.409 C 
HETATM   31  F   UNL     1      25.806  44.841  54.773  1.00  0.00    -0.169 F 
HETATM   32  F   UNL     1      27.778  43.978  55.066  1.00  0.00    -0.169 F 
HETATM   33  F   UNL     1      27.577  46.127  54.920  1.00  0.00    -0.169 F 
ENDBRANCH   8  30
TORSDOF 6
ENDMDL
MODEL 10
REMARK VINA RESULT:      -8.2      3.815      8.144
REMARK  6 active torsions:
REMARK  status: ('A' for Active; 'I' for Inactive)
REMARK    1  A    between atoms: O_2  and  C_3 
REMARK    2  A    between atoms: C_6  and  C_7 
REMARK    3  A    between atoms: C_13  and  C_14 
REMARK       I    between atoms: C_14  and  N_15 
REMARK    4  A    between atoms: N_15  and  C_16 
REMARK    5  A    between atoms: C_16  and  C_17 
REMARK    6  A    between atoms: C_24  and  C_25 
ROOT
HETATM    1  C   UNL     1      25.409  45.408  52.666  1.00  0.00     0.118 C 
HETATM    2  N   UNL     1      26.615  44.591  52.489  1.00  0.00    -0.365 N 
HETATM    3  C   UNL     1      27.543  44.557  53.486  1.00  0.00     0.138 A 
HETATM    4  N   UNL     1      27.480  45.459  54.528  1.00  0.00    -0.240 N 
HETATM    5  N   UNL     1      28.409  45.267  55.471  1.00  0.00    -0.181 NA
HETATM    6  C   UNL     1      29.158  44.284  54.965  1.00  0.00     0.160 A 
HETATM    7  C   UNL     1      28.669  43.789  53.728  1.00  0.00     0.096 A 
HETATM    8  C   UNL     1      26.485  46.510  54.651  1.00  0.00     0.221 C 
HETATM    9  C   UNL     1      25.804  46.751  53.291  1.00  0.00     0.066 C 
HETATM   10  H   UNL     1      26.914  44.484  51.518  1.00  0.00     0.161 HD
ENDROOT
BRANCH   7  11
HETATM   11  C   UNL     1      29.263  42.692  52.989  1.00  0.00     0.257 C 
HETATM   12  N   UNL     1      28.381  41.854  52.346  1.00  0.00    -0.352 N 
HETATM   13  H   UNL     1      27.403  41.932  52.594  1.00  0.00     0.163 HD
HETATM   14  O   UNL     1      30.477  42.515  52.976  1.00  0.00    -0.267 OA
BRANCH  12  15
HETATM   15  C   UNL     1      28.851  40.630  51.740  1.00  0.00     0.161 C 
BRANCH  15  16
HETATM   16  C   UNL     1      28.111  40.261  50.480  1.00  0.00    -0.041 A 
HETATM   17  C   UNL     1      28.703  39.476  49.480  1.00  0.00     0.009 A 
HETATM   18  C   UNL     1      27.968  39.073  48.363  1.00  0.00     0.001 A 
HETATM   19  C   UNL     1      26.627  39.431  48.242  1.00  0.00     0.000 A 
HETATM   20  C   UNL     1      26.020  40.195  49.236  1.00  0.00     0.001 A 
HETATM   21  C   UNL     1      26.756  40.605  50.349  1.00  0.00     0.009 A 
ENDBRANCH  15  16
ENDBRANCH  12  15
ENDBRANCH   7  11
BRANCH   1  22
HETATM   22  C   UNL     1      24.633  45.488  51.364  1.00  0.00    -0.035 A 
HETATM   23  C   UNL     1      24.604  46.710  50.669  1.00  0.00     0.012 A 
HETATM   24  C   UNL     1      23.966  46.827  49.428  1.00  0.00     0.037 A 
HETATM   25  C   UNL     1      23.339  45.721  48.858  1.00  0.00     0.068 A 
HETATM   26  C   UNL     1      23.325  44.515  49.557  1.00  0.00     0.037 A 
HETATM   27  C   UNL     1      23.962  44.396  50.798  1.00  0.00     0.012 A 
BRANCH  25  28
HETATM   28  O   UNL     1      22.708  45.691  47.647  1.00  0.00    -0.356 OA
HETATM   29  C   UNL     1      22.152  44.443  47.250  1.00  0.00     0.210 C 
ENDBRANCH  25  28
ENDBRANCH   1  22
BRANCH   8  30
HETATM   30  C   UNL     1      27.076  47.812  55.152  1.00  0.00     0.409 C 
HETATM   31  F   UNL     1      26.240  48.860  54.980  1.00  0.00    -0.169 F 
HETATM   32  F   UNL     1      27.300  47.717  56.492  1.00  0.00    -0.169 F 
HETATM   33  F   UNL     1      28.267  48.116  54.598  1.00  0.00    -0.169 F 
ENDBRANCH   8  30
TORSDOF 6
ENDMDL
