MODEL 1
REMARK VINA RESULT:      -9.8      0.000      0.000
REMARK  9 active torsions:
REMARK  status: ('A' for Active; 'I' for Inactive)
REMARK    1  A    between atoms: C_2  and  O_3 
REMARK    2  A    between atoms: O_3  and  C_4 
REMARK    3  A    between atoms: C_7  and  N_8 
REMARK    4  A    between atoms: C_9  and  S_10 
REMARK    5  A    between atoms: S_10  and  C_11 
REMARK    6  A    between atoms: C_11  and  C_12 
REMARK       I    between atoms: C_12  and  N_13 
REMARK    7  A    between atoms: N_13  and  C_14 
REMARK    8  A    between atoms: C_17  and  S_18 
REMARK    9  A    between atoms: S_18  and  N_19 
ROOT
HETATM    1  N   UNL     1      26.938  43.125  51.872  1.00  0.00    -0.256 N 
HETATM    2  C   UNL     1      26.111  44.245  52.019  1.00  0.00     0.177 A 
HETATM    3  N   UNL     1      26.297  45.227  52.846  1.00  0.00    -0.216 NA
HETATM    4  C   UNL     1      27.360  45.090  53.665  1.00  0.00     0.117 A 
HETATM    5  C   UNL     1      28.231  44.029  53.701  1.00  0.00     0.076 A 
HETATM    6  C   UNL     1      28.039  42.953  52.741  1.00  0.00     0.268 A 
HETATM    7  O   UNL     1      28.822  42.006  52.715  1.00  0.00    -0.267 OA
HETATM    8  S   UNL     1      27.715  46.259  54.855  1.00  0.00    -0.073 SA
HETATM    9  C   UNL     1      29.022  45.344  55.441  1.00  0.00    -0.008 A 
HETATM   10  C   UNL     1      29.222  44.177  54.727  1.00  0.00    -0.026 A 
HETATM   11  C   UNL     1      30.321  43.214  55.073  1.00  0.00     0.041 C 
HETATM   12  C   UNL     1      31.357  43.839  56.023  1.00  0.00     0.005 C 
HETATM   13  C   UNL     1      30.690  44.641  57.150  1.00  0.00     0.005 C 
HETATM   14  C   UNL     1      29.857  45.807  56.595  1.00  0.00     0.047 C 
ENDROOT
BRANCH   2  15
HETATM   15  S   UNL     1      24.591  44.368  51.134  1.00  0.00    -0.082 SA
BRANCH  15  16
HETATM   16  C   UNL     1      25.060  45.680  49.967  1.00  0.00     0.185 C 
BRANCH  16  17
HETATM   17  C   UNL     1      24.210  46.951  49.992  1.00  0.00     0.231 C 
HETATM   18  N   UNL     1      23.134  46.982  49.134  1.00  0.00    -0.327 N 
HETATM   19  H   UNL     1      23.022  46.163  48.539  1.00  0.00     0.169 HD
HETATM   20  O   UNL     1      24.553  47.875  50.730  1.00  0.00    -0.272 OA
BRANCH  18  21
HETATM   21  C   UNL     1      22.248  48.042  48.867  1.00  0.00     0.034 A 
HETATM   22  C   UNL     1      22.649  49.345  48.563  1.00  0.00     0.031 A 
HETATM   23  C   UNL     1      21.697  50.329  48.267  1.00  0.00     0.027 A 
HETATM   24  C   UNL     1      20.339  50.005  48.275  1.00  0.00     0.074 A 
HETATM   25  C   UNL     1      19.922  48.716  48.606  1.00  0.00     0.027 A 
HETATM   26  C   UNL     1      20.879  47.739  48.894  1.00  0.00     0.031 A 
BRANCH  24  27
HETATM   27  S   UNL     1      19.131  51.242  47.911  1.00  0.00     0.239 S 
HETATM   28  O   UNL     1      19.589  52.516  48.416  1.00  0.00    -0.206 OA
HETATM   29  O   UNL     1      18.658  51.070  46.558  1.00  0.00    -0.206 OA
BRANCH  27  30
HETATM   30  N   UNL     1      17.856  50.783  48.904  1.00  0.00    -0.225 NA
HETATM   31  H   UNL     1      17.570  51.569  49.487  1.00  0.00     0.136 HD
HETATM   32  H   UNL     1      17.103  50.389  48.338  1.00  0.00     0.136 HD
ENDBRANCH  27  30
ENDBRANCH  24  27
ENDBRANCH  18  21
ENDBRANCH  16  17
ENDBRANCH  15  16
ENDBRANCH   2  15
BRANCH   1  33
HETATM   33  C   UNL     1      26.780  42.159  50.819  1.00  0.00     0.045 A 
HETATM   34  C   UNL     1      26.282  40.878  51.090  1.00  0.00     0.033 A 
HETATM   35  C   UNL     1      26.186  39.918  50.078  1.00  0.00     0.039 A 
HETATM   36  C   UNL     1      26.595  40.208  48.777  1.00  0.00     0.068 A 
HETATM   37  C   UNL     1      27.088  41.480  48.492  1.00  0.00     0.039 A 
HETATM   38  C   UNL     1      27.187  42.443  49.507  1.00  0.00     0.033 A 
BRANCH  36  39
HETATM   39  O   UNL     1      26.473  39.173  47.894  1.00  0.00    -0.352 OA
BRANCH  39  40
HETATM   40  C   UNL     1      27.120  37.948  48.233  1.00  0.00     0.171 C 
HETATM   41  C   UNL     1      28.596  38.094  47.908  1.00  0.00     0.034 C 
ENDBRANCH  39  40
ENDBRANCH  36  39
ENDBRANCH   1  33
TORSDOF 9
ENDMDL
MODEL 2
REMARK VINA RESULT:      -9.3      3.075     10.213
REMARK  9 active torsions:
REMARK  status: ('A' for Active; 'I' for Inactive)
REMARK    1  A    between atoms: C_2  and  O_3 
REMARK    2  A    between atoms: O_3  and  C_4 
REMARK    3  A    between atoms: C_7  and  N_8 
REMARK    4  A    between atoms: C_9  and  S_10 
REMARK    5  A    between atoms: S_10  and  C_11 
REMARK    6  A    between atoms: C_11  and  C_12 
REMARK       I    between atoms: C_12  and  N_13 
REMARK    7  A    between atoms: N_13  and  C_14 
REMARK    8  A    between atoms: C_17  and  S_18 
REMARK    9  A    between atoms: S_18  and  N_19 
ROOT
HETATM    1  N   UNL     1      23.904  45.702  49.821  1.00  0.00    -0.256 N 
HETATM    2  C   UNL     1      22.939  44.888  49.214  1.00  0.00     0.177 A 
HETATM    3  N   UNL     1      21.946  45.296  48.487  1.00  0.00    -0.216 NA
HETATM    4  C   UNL     1      21.828  46.635  48.381  1.00  0.00     0.117 A 
HETATM    5  C   UNL     1      22.642  47.574  48.964  1.00  0.00     0.076 A 
HETATM    6  C   UNL     1      23.778  47.107  49.743  1.00  0.00     0.268 A 
HETATM    7  O   UNL     1      24.554  47.917  50.246  1.00  0.00    -0.267 OA
HETATM    8  S   UNL     1      20.542  47.343  47.512  1.00  0.00    -0.073 SA
HETATM    9  C   UNL     1      21.052  48.910  47.929  1.00  0.00    -0.008 A 
HETATM   10  C   UNL     1      22.207  48.913  48.689  1.00  0.00    -0.026 A 
HETATM   11  C   UNL     1      22.835  50.189  49.172  1.00  0.00     0.041 C 
HETATM   12  C   UNL     1      22.273  51.420  48.443  1.00  0.00     0.005 C 
HETATM   13  C   UNL     1      20.746  51.353  48.297  1.00  0.00     0.005 C 
HETATM   14  C   UNL     1      20.312  50.130  47.475  1.00  0.00     0.047 C 
ENDROOT
BRANCH   2  15
HETATM   15  S   UNL     1      22.913  43.149  49.503  1.00  0.00    -0.082 SA
BRANCH  15  16
HETATM   16  C   UNL     1      23.555  42.595  47.895  1.00  0.00     0.185 C 
BRANCH  16  17
HETATM   17  C   UNL     1      24.756  41.650  47.928  1.00  0.00     0.231 C 
HETATM   18  N   UNL     1      25.005  41.021  49.128  1.00  0.00    -0.327 N 
HETATM   19  H   UNL     1      24.380  41.270  49.892  1.00  0.00     0.169 HD
HETATM   20  O   UNL     1      25.446  41.538  46.914  1.00  0.00    -0.272 OA
BRANCH  18  21
HETATM   21  C   UNL     1      26.084  40.189  49.481  1.00  0.00     0.034 A 
HETATM   22  C   UNL     1      26.210  38.856  49.089  1.00  0.00     0.031 A 
HETATM   23  C   UNL     1      27.343  38.114  49.451  1.00  0.00     0.027 A 
HETATM   24  C   UNL     1      28.350  38.713  50.208  1.00  0.00     0.074 A 
HETATM   25  C   UNL     1      28.224  40.036  50.632  1.00  0.00     0.027 A 
HETATM   26  C   UNL     1      27.094  40.769  50.262  1.00  0.00     0.031 A 
BRANCH  24  27
HETATM   27  S   UNL     1      29.778  37.784  50.676  1.00  0.00     0.239 S 
HETATM   28  O   UNL     1      30.625  37.601  49.519  1.00  0.00    -0.206 OA
HETATM   29  O   UNL     1      30.283  38.276  51.936  1.00  0.00    -0.206 OA
BRANCH  27  30
HETATM   30  N   UNL     1      29.117  36.275  51.007  1.00  0.00    -0.225 NA
HETATM   31  H   UNL     1      28.718  36.269  51.946  1.00  0.00     0.136 HD
HETATM   32  H   UNL     1      28.455  36.021  50.273  1.00  0.00     0.136 HD
ENDBRANCH  27  30
ENDBRANCH  24  27
ENDBRANCH  18  21
ENDBRANCH  16  17
ENDBRANCH  15  16
ENDBRANCH   2  15
BRANCH   1  33
HETATM   33  C   UNL     1      25.080  45.185  50.465  1.00  0.00     0.045 A 
HETATM   34  C   UNL     1      26.246  44.931  49.731  1.00  0.00     0.033 A 
HETATM   35  C   UNL     1      27.370  44.369  50.344  1.00  0.00     0.039 A 
HETATM   36  C   UNL     1      27.354  44.036  51.698  1.00  0.00     0.068 A 
HETATM   37  C   UNL     1      26.203  44.287  52.441  1.00  0.00     0.039 A 
HETATM   38  C   UNL     1      25.073  44.848  51.827  1.00  0.00     0.033 A 
BRANCH  36  39
HETATM   39  O   UNL     1      28.507  43.471  52.163  1.00  0.00    -0.352 OA
BRANCH  39  40
HETATM   40  C   UNL     1      28.474  42.904  53.471  1.00  0.00     0.171 C 
HETATM   41  C   UNL     1      29.855  43.059  54.083  1.00  0.00     0.034 C 
ENDBRANCH  39  40
ENDBRANCH  36  39
ENDBRANCH   1  33
TORSDOF 9
ENDMDL
MODEL 3
REMARK VINA RESULT:      -9.2      2.147      2.969
REMARK  9 active torsions:
REMARK  status: ('A' for Active; 'I' for Inactive)
REMARK    1  A    between atoms: C_2  and  O_3 
REMARK    2  A    between atoms: O_3  and  C_4 
REMARK    3  A    between atoms: C_7  and  N_8 
REMARK    4  A    between atoms: C_9  and  S_10 
REMARK    5  A    between atoms: S_10  and  C_11 
REMARK    6  A    between atoms: C_11  and  C_12 
REMARK       I    between atoms: C_12  and  N_13 
REMARK    7  A    between atoms: N_13  and  C_14 
REMARK    8  A    between atoms: C_17  and  S_18 
REMARK    9  A    between atoms: S_18  and  N_19 
ROOT
HETATM    1  N   UNL     1      27.380  41.474  50.453  1.00  0.00    -0.256 N 
HETATM    2  C   UNL     1      26.468  42.458  50.051  1.00  0.00     0.177 A 
HETATM    3  N   UNL     1      26.323  43.628  50.590  1.00  0.00    -0.216 NA
HETATM    4  C   UNL     1      27.092  43.858  51.674  1.00  0.00     0.117 A 
HETATM    5  C   UNL     1      27.986  42.982  52.240  1.00  0.00     0.076 A 
HETATM    6  C   UNL     1      28.173  41.687  51.603  1.00  0.00     0.268 A 
HETATM    7  O   UNL     1      28.993  40.892  52.056  1.00  0.00    -0.267 OA
HETATM    8  S   UNL     1      26.983  45.321  52.542  1.00  0.00    -0.073 SA
HETATM    9  C   UNL     1      28.112  44.786  53.694  1.00  0.00    -0.008 A 
HETATM   10  C   UNL     1      28.604  43.524  53.415  1.00  0.00    -0.026 A 
HETATM   11  C   UNL     1      29.612  42.852  54.302  1.00  0.00     0.041 C 
HETATM   12  C   UNL     1      30.261  43.838  55.288  1.00  0.00     0.005 C 
HETATM   13  C   UNL     1      29.227  44.781  55.919  1.00  0.00     0.005 C 
HETATM   14  C   UNL     1      28.521  45.636  54.857  1.00  0.00     0.047 C 
ENDROOT
BRANCH   2  15
HETATM   15  S   UNL     1      25.285  42.130  48.785  1.00  0.00    -0.082 SA
BRANCH  15  16
HETATM   16  C   UNL     1      23.774  42.244  49.789  1.00  0.00     0.185 C 
BRANCH  16  17
HETATM   17  C   UNL     1      23.114  43.621  49.876  1.00  0.00     0.231 C 
HETATM   18  N   UNL     1      23.689  44.621  49.124  1.00  0.00    -0.327 N 
HETATM   19  H   UNL     1      24.522  44.355  48.602  1.00  0.00     0.169 HD
HETATM   20  O   UNL     1      22.152  43.767  50.631  1.00  0.00    -0.272 OA
BRANCH  18  21
HETATM   21  C   UNL     1      23.368  45.991  49.085  1.00  0.00     0.034 A 
HETATM   22  C   UNL     1      22.248  46.518  48.440  1.00  0.00     0.031 A 
HETATM   23  C   UNL     1      21.982  47.893  48.490  1.00  0.00     0.027 A 
HETATM   24  C   UNL     1      22.843  48.740  49.189  1.00  0.00     0.074 A 
HETATM   25  C   UNL     1      23.982  48.231  49.814  1.00  0.00     0.027 A 
HETATM   26  C   UNL     1      24.236  46.859  49.764  1.00  0.00     0.031 A 
BRANCH  24  27
HETATM   27  S   UNL     1      22.521  50.476  49.251  1.00  0.00     0.239 S 
HETATM   28  O   UNL     1      23.777  51.189  49.317  1.00  0.00    -0.206 OA
HETATM   29  O   UNL     1      21.489  50.810  48.298  1.00  0.00    -0.206 OA
BRANCH  27  30
HETATM   30  N   UNL     1      21.815  50.643  50.767  1.00  0.00    -0.225 NA
HETATM   31  H   UNL     1      20.914  50.167  50.784  1.00  0.00     0.136 HD
HETATM   32  H   UNL     1      22.466  50.327  51.486  1.00  0.00     0.136 HD
ENDBRANCH  27  30
ENDBRANCH  24  27
ENDBRANCH  18  21
ENDBRANCH  16  17
ENDBRANCH  15  16
ENDBRANCH   2  15
BRANCH   1  33
HETATM   33  C   UNL     1      27.619  40.268  49.708  1.00  0.00     0.045 A 
HETATM   34  C   UNL     1      28.554  40.244  48.665  1.00  0.00     0.033 A 
HETATM   35  C   UNL     1      28.742  39.090  47.898  1.00  0.00     0.039 A 
HETATM   36  C   UNL     1      27.996  37.939  48.146  1.00  0.00     0.068 A 
HETATM   37  C   UNL     1      27.066  37.947  49.183  1.00  0.00     0.039 A 
HETATM   38  C   UNL     1      26.874  39.105  49.951  1.00  0.00     0.033 A 
BRANCH  36  39
HETATM   39  O   UNL     1      28.260  36.894  47.307  1.00  0.00    -0.352 OA
BRANCH  39  40
HETATM   40  C   UNL     1      28.350  37.183  45.913  1.00  0.00     0.171 C 
HETATM   41  C   UNL     1      29.420  36.285  45.317  1.00  0.00     0.034 C 
ENDBRANCH  39  40
ENDBRANCH  36  39
ENDBRANCH   1  33
TORSDOF 9
ENDMDL
MODEL 4
REMARK VINA RESULT:      -8.8      2.043      2.434
REMARK  9 active torsions:
REMARK  status: ('A' for Active; 'I' for Inactive)
REMARK    1  A    between atoms: C_2  and  O_3 
REMARK    2  A    between atoms: O_3  and  C_4 
REMARK    3  A    between atoms: C_7  and  N_8 
REMARK    4  A    between atoms: C_9  and  S_10 
REMARK    5  A    between atoms: S_10  and  C_11 
REMARK    6  A    between atoms: C_11  and  C_12 
REMARK       I    between atoms: C_12  and  N_13 
REMARK    7  A    between atoms: N_13  and  C_14 
REMARK    8  A    between atoms: C_17  and  S_18 
REMARK    9  A    between atoms: S_18  and  N_19 
ROOT
HETATM    1  N   UNL     1      26.787  42.594  51.456  1.00  0.00    -0.256 N 
HETATM    2  C   UNL     1      25.764  43.543  51.588  1.00  0.00     0.177 A 
HETATM    3  N   UNL     1      25.769  44.560  52.392  1.00  0.00    -0.216 NA
HETATM    4  C   UNL     1      26.843  44.644  53.203  1.00  0.00     0.117 A 
HETATM    5  C   UNL     1      27.898  43.766  53.252  1.00  0.00     0.076 A 
HETATM    6  C   UNL     1      27.906  42.651  52.317  1.00  0.00     0.268 A 
HETATM    7  O   UNL     1      28.852  41.868  52.302  1.00  0.00    -0.267 OA
HETATM    8  S   UNL     1      26.980  45.885  54.364  1.00  0.00    -0.073 SA
HETATM    9  C   UNL     1      28.439  45.245  54.956  1.00  0.00    -0.008 A 
HETATM   10  C   UNL     1      28.851  44.120  54.264  1.00  0.00    -0.026 A 
HETATM   11  C   UNL     1      30.113  43.388  54.618  1.00  0.00     0.041 C 
HETATM   12  C   UNL     1      31.019  44.217  55.544  1.00  0.00     0.005 C 
HETATM   13  C   UNL     1      30.221  44.905  56.661  1.00  0.00     0.005 C 
HETATM   14  C   UNL     1      29.181  45.881  56.091  1.00  0.00     0.047 C 
ENDROOT
BRANCH   2  15
HETATM   15  S   UNL     1      24.243  43.359  50.717  1.00  0.00    -0.082 SA
BRANCH  15  16
HETATM   16  C   UNL     1      24.502  44.630  49.444  1.00  0.00     0.185 C 
BRANCH  16  17
HETATM   17  C   UNL     1      23.293  44.984  48.577  1.00  0.00     0.231 C 
HETATM   18  N   UNL     1      22.283  45.686  49.195  1.00  0.00    -0.327 N 
HETATM   19  H   UNL     1      22.424  45.879  50.185  1.00  0.00     0.169 HD
HETATM   20  O   UNL     1      23.270  44.591  47.410  1.00  0.00    -0.272 OA
BRANCH  18  21
HETATM   21  C   UNL     1      21.024  46.055  48.686  1.00  0.00     0.034 A 
HETATM   22  C   UNL     1      19.948  45.178  48.538  1.00  0.00     0.031 A 
HETATM   23  C   UNL     1      18.715  45.642  48.063  1.00  0.00     0.027 A 
HETATM   24  C   UNL     1      18.561  46.990  47.735  1.00  0.00     0.074 A 
HETATM   25  C   UNL     1      19.636  47.872  47.850  1.00  0.00     0.027 A 
HETATM   26  C   UNL     1      20.860  47.402  48.330  1.00  0.00     0.031 A 
BRANCH  24  27
HETATM   27  S   UNL     1      17.012  47.584  47.128  1.00  0.00     0.239 S 
HETATM   28  O   UNL     1      16.029  47.510  48.185  1.00  0.00    -0.206 OA
HETATM   29  O   UNL     1      17.225  48.781  46.351  1.00  0.00    -0.206 OA
BRANCH  27  30
HETATM   30  N   UNL     1      16.592  46.390  46.024  1.00  0.00    -0.225 NA
HETATM   31  H   UNL     1      17.275  46.361  45.266  1.00  0.00     0.136 HD
HETATM   32  H   UNL     1      16.472  45.499  46.508  1.00  0.00     0.136 HD
ENDBRANCH  27  30
ENDBRANCH  24  27
ENDBRANCH  18  21
ENDBRANCH  16  17
ENDBRANCH  15  16
ENDBRANCH   2  15
BRANCH   1  33
HETATM   33  C   UNL     1      26.805  41.593  50.425  1.00  0.00     0.045 A 
HETATM   34  C   UNL     1      26.435  40.271  50.703  1.00  0.00     0.033 A 
HETATM   35  C   UNL     1      26.512  39.282  49.717  1.00  0.00     0.039 A 
HETATM   36  C   UNL     1      26.971  39.586  48.436  1.00  0.00     0.068 A 
HETATM   37  C   UNL     1      27.339  40.898  48.144  1.00  0.00     0.039 A 
HETATM   38  C   UNL     1      27.264  41.890  49.133  1.00  0.00     0.033 A 
BRANCH  36  39
HETATM   39  O   UNL     1      27.022  38.524  47.579  1.00  0.00    -0.352 OA
BRANCH  39  40
HETATM   40  C   UNL     1      28.263  38.277  46.920  1.00  0.00     0.171 C 
HETATM   41  C   UNL     1      28.041  38.446  45.428  1.00  0.00     0.034 C 
ENDBRANCH  39  40
ENDBRANCH  36  39
ENDBRANCH   1  33
TORSDOF 9
ENDMDL
MODEL 5
REMARK VINA RESULT:      -8.6      4.013      9.937
REMARK  9 active torsions:
REMARK  status: ('A' for Active; 'I' for Inactive)
REMARK    1  A    between atoms: C_2  and  O_3 
REMARK    2  A    between atoms: O_3  and  C_4 
REMARK    3  A    between atoms: C_7  and  N_8 
REMARK    4  A    between atoms: C_9  and  S_10 
REMARK    5  A    between atoms: S_10  and  C_11 
REMARK    6  A    between atoms: C_11  and  C_12 
REMARK       I    between atoms: C_12  and  N_13 
REMARK    7  A    between atoms: N_13  and  C_14 
REMARK    8  A    between atoms: C_17  and  S_18 
REMARK    9  A    between atoms: S_18  and  N_19 
ROOT
HETATM    1  N   UNL     1      26.690  43.389  51.450  1.00  0.00    -0.256 N 
HETATM    2  C   UNL     1      26.234  42.344  50.636  1.00  0.00     0.177 A 
HETATM    3  N   UNL     1      25.390  42.452  49.658  1.00  0.00    -0.216 NA
HETATM    4  C   UNL     1      24.878  43.687  49.479  1.00  0.00     0.117 A 
HETATM    5  C   UNL     1      25.162  44.804  50.225  1.00  0.00     0.076 A 
HETATM    6  C   UNL     1      26.142  44.682  51.293  1.00  0.00     0.268 A 
HETATM    7  O   UNL     1      26.454  45.669  51.957  1.00  0.00    -0.267 OA
HETATM    8  S   UNL     1      23.708  43.993  48.277  1.00  0.00    -0.073 SA
HETATM    9  C   UNL     1      23.556  45.615  48.761  1.00  0.00    -0.008 A 
HETATM   10  C   UNL     1      24.406  45.946  49.800  1.00  0.00    -0.026 A 
HETATM   11  C   UNL     1      24.439  47.327  50.389  1.00  0.00     0.041 C 
HETATM   12  C   UNL     1      23.721  48.352  49.496  1.00  0.00     0.005 C 
HETATM   13  C   UNL     1      22.392  47.808  48.952  1.00  0.00     0.005 C 
HETATM   14  C   UNL     1      22.607  46.558  48.086  1.00  0.00     0.047 C 
ENDROOT
BRANCH   2  15
HETATM   15  S   UNL     1      26.697  40.675  50.966  1.00  0.00    -0.082 SA
BRANCH  15  16
HETATM   16  C   UNL     1      26.256  39.947  49.360  1.00  0.00     0.185 C 
BRANCH  16  17
HETATM   17  C   UNL     1      27.345  39.951  48.287  1.00  0.00     0.231 C 
HETATM   18  N   UNL     1      26.914  39.978  46.979  1.00  0.00    -0.327 N 
HETATM   19  H   UNL     1      25.904  39.962  46.850  1.00  0.00     0.169 HD
HETATM   20  O   UNL     1      28.523  39.887  48.642  1.00  0.00    -0.272 OA
BRANCH  18  21
HETATM   21  C   UNL     1      27.672  39.886  45.797  1.00  0.00     0.034 A 
HETATM   22  C   UNL     1      28.179  40.984  45.100  1.00  0.00     0.031 A 
HETATM   23  C   UNL     1      28.963  40.796  43.954  1.00  0.00     0.027 A 
HETATM   24  C   UNL     1      29.239  39.503  43.508  1.00  0.00     0.074 A 
HETATM   25  C   UNL     1      28.716  38.397  44.178  1.00  0.00     0.027 A 
HETATM   26  C   UNL     1      27.940  38.594  45.322  1.00  0.00     0.031 A 
BRANCH  24  27
HETATM   27  S   UNL     1      30.221  39.256  42.059  1.00  0.00     0.239 S 
HETATM   28  O   UNL     1      29.763  40.148  41.019  1.00  0.00    -0.206 OA
HETATM   29  O   UNL     1      31.612  39.149  42.431  1.00  0.00    -0.206 OA
BRANCH  27  30
HETATM   30  N   UNL     1      29.754  37.714  41.584  1.00  0.00    -0.225 NA
HETATM   31  H   UNL     1      29.039  37.776  40.859  1.00  0.00     0.136 HD
HETATM   32  H   UNL     1      30.576  37.174  41.312  1.00  0.00     0.136 HD
ENDBRANCH  27  30
ENDBRANCH  24  27
ENDBRANCH  18  21
ENDBRANCH  16  17
ENDBRANCH  15  16
ENDBRANCH   2  15
BRANCH   1  33
HETATM   33  C   UNL     1      27.757  43.241  52.400  1.00  0.00     0.045 A 
HETATM   34  C   UNL     1      27.495  43.225  53.776  1.00  0.00     0.033 A 
HETATM   35  C   UNL     1      28.539  43.144  54.704  1.00  0.00     0.039 A 
HETATM   36  C   UNL     1      29.866  43.090  54.282  1.00  0.00     0.068 A 
HETATM   37  C   UNL     1      30.141  43.100  52.916  1.00  0.00     0.039 A 
HETATM   38  C   UNL     1      29.096  43.184  51.985  1.00  0.00     0.033 A 
BRANCH  36  39
HETATM   39  O   UNL     1      30.786  43.041  55.290  1.00  0.00    -0.352 OA
BRANCH  39  40
HETATM   40  C   UNL     1      30.860  44.169  56.160  1.00  0.00     0.171 C 
HETATM   41  C   UNL     1      31.567  43.733  57.431  1.00  0.00     0.034 C 
ENDBRANCH  39  40
ENDBRANCH  36  39
ENDBRANCH   1  33
TORSDOF 9
ENDMDL
MODEL 6
REMARK VINA RESULT:      -8.4      2.874      6.804
REMARK  9 active torsions:
REMARK  status: ('A' for Active; 'I' for Inactive)
REMARK    1  A    between atoms: C_2  and  O_3 
REMARK    2  A    between atoms: O_3  and  C_4 
REMARK    3  A    between atoms: C_7  and  N_8 
REMARK    4  A    between atoms: C_9  and  S_10 
REMARK    5  A    between atoms: S_10  and  C_11 
REMARK    6  A    between atoms: C_11  and  C_12 
REMARK       I    between atoms: C_12  and  N_13 
REMARK    7  A    between atoms: N_13  and  C_14 
REMARK    8  A    between atoms: C_17  and  S_18 
REMARK    9  A    between atoms: S_18  and  N_19 
ROOT
HETATM    1  N   UNL     1      24.822  44.596  50.614  1.00  0.00    -0.256 N 
HETATM    2  C   UNL     1      24.291  45.800  50.135  1.00  0.00     0.177 A 
HETATM    3  N   UNL     1      23.409  45.921  49.192  1.00  0.00    -0.216 NA
HETATM    4  C   UNL     1      23.041  44.766  48.600  1.00  0.00     0.117 A 
HETATM    5  C   UNL     1      23.512  43.511  48.900  1.00  0.00     0.076 A 
HETATM    6  C   UNL     1      24.469  43.380  49.987  1.00  0.00     0.268 A 
HETATM    7  O   UNL     1      24.882  42.269  50.311  1.00  0.00    -0.267 OA
HETATM    8  S   UNL     1      21.937  44.750  47.301  1.00  0.00    -0.073 SA
HETATM    9  C   UNL     1      22.098  43.069  47.114  1.00  0.00    -0.008 A 
HETATM   10  C   UNL     1      22.950  42.505  48.046  1.00  0.00    -0.026 A 
HETATM   11  C   UNL     1      23.241  41.032  48.065  1.00  0.00     0.041 C 
HETATM   12  C   UNL     1      22.243  40.236  47.208  1.00  0.00     0.005 C 
HETATM   13  C   UNL     1      21.968  40.921  45.862  1.00  0.00     0.005 C 
HETATM   14  C   UNL     1      21.354  42.316  46.054  1.00  0.00     0.047 C 
ENDROOT
BRANCH   2  15
HETATM   15  S   UNL     1      24.899  47.349  50.715  1.00  0.00    -0.082 SA
BRANCH  15  16
HETATM   16  C   UNL     1      24.656  48.323  49.199  1.00  0.00     0.185 C 
BRANCH  16  17
HETATM   17  C   UNL     1      23.476  49.295  49.194  1.00  0.00     0.231 C 
HETATM   18  N   UNL     1      22.221  48.732  49.134  1.00  0.00    -0.327 N 
HETATM   19  H   UNL     1      22.198  47.716  49.068  1.00  0.00     0.169 HD
HETATM   20  O   UNL     1      23.709  50.505  49.199  1.00  0.00    -0.272 OA
BRANCH  18  21
HETATM   21  C   UNL     1      20.972  49.369  49.013  1.00  0.00     0.034 A 
HETATM   22  C   UNL     1      20.236  49.440  47.829  1.00  0.00     0.031 A 
HETATM   23  C   UNL     1      18.979  50.057  47.811  1.00  0.00     0.027 A 
HETATM   24  C   UNL     1      18.458  50.605  48.984  1.00  0.00     0.074 A 
HETATM   25  C   UNL     1      19.195  50.569  50.168  1.00  0.00     0.027 A 
HETATM   26  C   UNL     1      20.445  49.946  50.178  1.00  0.00     0.031 A 
BRANCH  24  27
HETATM   27  S   UNL     1      16.877  51.393  48.969  1.00  0.00     0.239 S 
HETATM   28  O   UNL     1      15.904  50.492  48.394  1.00  0.00    -0.206 OA
HETATM   29  O   UNL     1      16.661  52.066  50.228  1.00  0.00    -0.206 OA
BRANCH  27  30
HETATM   30  N   UNL     1      17.107  52.609  47.834  1.00  0.00    -0.225 NA
HETATM   31  H   UNL     1      16.423  53.353  47.978  1.00  0.00     0.136 HD
HETATM   32  H   UNL     1      18.076  52.926  47.859  1.00  0.00     0.136 HD
ENDBRANCH  27  30
ENDBRANCH  24  27
ENDBRANCH  18  21
ENDBRANCH  16  17
ENDBRANCH  15  16
ENDBRANCH   2  15
BRANCH   1  33
HETATM   33  C   UNL     1      25.661  44.512  51.778  1.00  0.00     0.045 A 
HETATM   34  C   UNL     1      25.109  44.565  53.065  1.00  0.00     0.033 A 
HETATM   35  C   UNL     1      25.929  44.547  54.197  1.00  0.00     0.039 A 
HETATM   36  C   UNL     1      27.316  44.488  54.074  1.00  0.00     0.068 A 
HETATM   37  C   UNL     1      27.879  44.430  52.801  1.00  0.00     0.039 A 
HETATM   38  C   UNL     1      27.058  44.451  51.664  1.00  0.00     0.033 A 
BRANCH  36  39
HETATM   39  O   UNL     1      27.997  44.504  55.258  1.00  0.00    -0.352 OA
BRANCH  39  40
HETATM   40  C   UNL     1      29.267  45.154  55.270  1.00  0.00     0.171 C 
HETATM   41  C   UNL     1      29.493  45.713  56.663  1.00  0.00     0.034 C 
ENDBRANCH  39  40
ENDBRANCH  36  39
ENDBRANCH   1  33
TORSDOF 9
ENDMDL
MODEL 7
REMARK VINA RESULT:      -8.3      2.036      2.873
REMARK  9 active torsions:
REMARK  status: ('A' for Active; 'I' for Inactive)
REMARK    1  A    between atoms: C_2  and  O_3 
REMARK    2  A    between atoms: O_3  and  C_4 
REMARK    3  A    between atoms: C_7  and  N_8 
REMARK    4  A    between atoms: C_9  and  S_10 
REMARK    5  A    between atoms: S_10  and  C_11 
REMARK    6  A    between atoms: C_11  and  C_12 
REMARK       I    between atoms: C_12  and  N_13 
REMARK    7  A    between atoms: N_13  and  C_14 
REMARK    8  A    between atoms: C_17  and  S_18 
REMARK    9  A    between atoms: S_18  and  N_19 
ROOT
HETATM    1  N   UNL     1      26.663  41.277  49.773  1.00  0.00    -0.256 N 
HETATM    2  C   UNL     1      25.544  42.113  49.870  1.00  0.00     0.177 A 
HETATM    3  N   UNL     1      25.400  43.101  50.697  1.00  0.00    -0.216 NA
HETATM    4  C   UNL     1      26.414  43.267  51.571  1.00  0.00     0.117 A 
HETATM    5  C   UNL     1      27.549  42.499  51.659  1.00  0.00     0.076 A 
HETATM    6  C   UNL     1      27.721  41.419  50.699  1.00  0.00     0.268 A 
HETATM    7  O   UNL     1      28.742  40.736  50.720  1.00  0.00    -0.267 OA
HETATM    8  S   UNL     1      26.359  44.479  52.769  1.00  0.00    -0.073 SA
HETATM    9  C   UNL     1      27.841  43.971  53.428  1.00  0.00    -0.008 A 
HETATM   10  C   UNL     1      28.402  42.916  52.734  1.00  0.00    -0.026 A 
HETATM   11  C   UNL     1      29.711  42.304  53.142  1.00  0.00     0.041 C 
HETATM   12  C   UNL     1      30.475  43.191  54.140  1.00  0.00     0.005 C 
HETATM   13  C   UNL     1      29.551  43.761  55.225  1.00  0.00     0.005 C 
HETATM   14  C   UNL     1      28.449  44.644  54.620  1.00  0.00     0.047 C 
ENDROOT
BRANCH   2  15
HETATM   15  S   UNL     1      24.100  41.804  48.907  1.00  0.00    -0.082 SA
BRANCH  15  16
HETATM   16  C   UNL     1      23.935  43.438  48.129  1.00  0.00     0.185 C 
BRANCH  16  17
HETATM   17  C   UNL     1      22.852  44.357  48.694  1.00  0.00     0.231 C 
HETATM   18  N   UNL     1      22.599  45.510  47.985  1.00  0.00    -0.327 N 
HETATM   19  H   UNL     1      23.181  45.657  47.163  1.00  0.00     0.169 HD
HETATM   20  O   UNL     1      22.307  44.044  49.753  1.00  0.00    -0.272 OA
BRANCH  18  21
HETATM   21  C   UNL     1      21.743  46.579  48.313  1.00  0.00     0.034 A 
HETATM   22  C   UNL     1      20.351  46.529  48.221  1.00  0.00     0.031 A 
HETATM   23  C   UNL     1      19.575  47.627  48.613  1.00  0.00     0.027 A 
HETATM   24  C   UNL     1      20.198  48.779  49.098  1.00  0.00     0.074 A 
HETATM   25  C   UNL     1      21.589  48.853  49.168  1.00  0.00     0.027 A 
HETATM   26  C   UNL     1      22.355  47.751  48.780  1.00  0.00     0.031 A 
BRANCH  24  27
HETATM   27  S   UNL     1      19.228  50.172  49.586  1.00  0.00     0.239 S 
HETATM   28  O   UNL     1      20.105  51.288  49.859  1.00  0.00    -0.206 OA
HETATM   29  O   UNL     1      18.076  50.286  48.724  1.00  0.00    -0.206 OA
BRANCH  27  30
HETATM   30  N   UNL     1      18.635  49.676  51.078  1.00  0.00    -0.225 NA
HETATM   31  H   UNL     1      18.819  48.681  51.211  1.00  0.00     0.136 HD
HETATM   32  H   UNL     1      19.015  50.270  51.815  1.00  0.00     0.136 HD
ENDBRANCH  27  30
ENDBRANCH  24  27
ENDBRANCH  18  21
ENDBRANCH  16  17
ENDBRANCH  15  16
ENDBRANCH   2  15
BRANCH   1  33
HETATM   33  C   UNL     1      26.841  40.314  48.721  1.00  0.00     0.045 A 
HETATM   34  C   UNL     1      27.327  40.706  47.466  1.00  0.00     0.033 A 
HETATM   35  C   UNL     1      27.440  39.783  46.422  1.00  0.00     0.039 A 
HETATM   36  C   UNL     1      27.061  38.453  46.600  1.00  0.00     0.068 A 
HETATM   37  C   UNL     1      26.580  38.049  47.844  1.00  0.00     0.039 A 
HETATM   38  C   UNL     1      26.463  38.974  48.891  1.00  0.00     0.033 A 
BRANCH  36  39
HETATM   39  O   UNL     1      27.198  37.665  45.493  1.00  0.00    -0.352 OA
BRANCH  39  40
HETATM   40  C   UNL     1      28.521  37.448  45.007  1.00  0.00     0.171 C 
HETATM   41  C   UNL     1      29.003  36.113  45.546  1.00  0.00     0.034 C 
ENDBRANCH  39  40
ENDBRANCH  36  39
ENDBRANCH   1  33
TORSDOF 9
ENDMDL
MODEL 8
REMARK VINA RESULT:      -8.3     11.476     14.440
REMARK  9 active torsions:
REMARK  status: ('A' for Active; 'I' for Inactive)
REMARK    1  A    between atoms: C_2  and  O_3 
REMARK    2  A    between atoms: O_3  and  C_4 
REMARK    3  A    between atoms: C_7  and  N_8 
REMARK    4  A    between atoms: C_9  and  S_10 
REMARK    5  A    between atoms: S_10  and  C_11 
REMARK    6  A    between atoms: C_11  and  C_12 
REMARK       I    between atoms: C_12  and  N_13 
REMARK    7  A    between atoms: N_13  and  C_14 
REMARK    8  A    between atoms: C_17  and  S_18 
REMARK    9  A    between atoms: S_18  and  N_19 
ROOT
HETATM    1  N   UNL     1      26.398  47.543  40.053  1.00  0.00    -0.256 N 
HETATM    2  C   UNL     1      25.717  48.412  39.191  1.00  0.00     0.177 A 
HETATM    3  N   UNL     1      24.439  48.634  39.186  1.00  0.00    -0.216 NA
HETATM    4  C   UNL     1      23.727  47.896  40.062  1.00  0.00     0.117 A 
HETATM    5  C   UNL     1      24.226  46.954  40.929  1.00  0.00     0.076 A 
HETATM    6  C   UNL     1      25.665  46.742  40.957  1.00  0.00     0.268 A 
HETATM    7  O   UNL     1      26.152  45.938  41.748  1.00  0.00    -0.267 OA
HETATM    8  S   UNL     1      22.029  48.017  40.146  1.00  0.00    -0.073 SA
HETATM    9  C   UNL     1      21.945  46.794  41.324  1.00  0.00    -0.008 A 
HETATM   10  C   UNL     1      23.190  46.315  41.688  1.00  0.00    -0.026 A 
HETATM   11  C   UNL     1      23.353  45.230  42.713  1.00  0.00     0.041 C 
HETATM   12  C   UNL     1      22.065  45.002  43.521  1.00  0.00     0.005 C 
HETATM   13  C   UNL     1      20.819  44.995  42.624  1.00  0.00     0.005 C 
HETATM   14  C   UNL     1      20.639  46.337  41.898  1.00  0.00     0.047 C 
ENDROOT
BRANCH   2  15
HETATM   15  S   UNL     1      26.564  49.232  37.881  1.00  0.00    -0.082 SA
BRANCH  15  16
HETATM   16  C   UNL     1      26.893  50.813  38.716  1.00  0.00     0.185 C 
BRANCH  16  17
HETATM   17  C   UNL     1      28.277  51.425  38.497  1.00  0.00     0.231 C 
HETATM   18  N   UNL     1      29.329  50.794  39.123  1.00  0.00    -0.327 N 
HETATM   19  H   UNL     1      29.081  49.993  39.699  1.00  0.00     0.169 HD
HETATM   20  O   UNL     1      28.368  52.452  37.823  1.00  0.00    -0.272 OA
BRANCH  18  21
HETATM   21  C   UNL     1      30.680  51.184  39.187  1.00  0.00     0.034 A 
HETATM   22  C   UNL     1      31.659  50.783  38.276  1.00  0.00     0.031 A 
HETATM   23  C   UNL     1      32.972  51.256  38.391  1.00  0.00     0.027 A 
HETATM   24  C   UNL     1      33.304  52.135  39.423  1.00  0.00     0.074 A 
HETATM   25  C   UNL     1      32.344  52.521  40.358  1.00  0.00     0.027 A 
HETATM   26  C   UNL     1      31.035  52.049  40.232  1.00  0.00     0.031 A 
BRANCH  24  27
HETATM   27  S   UNL     1      34.960  52.731  39.582  1.00  0.00     0.239 S 
HETATM   28  O   UNL     1      35.297  52.826  40.984  1.00  0.00    -0.206 OA
HETATM   29  O   UNL     1      35.808  52.063  38.624  1.00  0.00    -0.206 OA
BRANCH  27  30
HETATM   30  N   UNL     1      34.811  54.313  39.036  1.00  0.00    -0.225 NA
HETATM   31  H   UNL     1      34.776  54.327  38.016  1.00  0.00     0.136 HD
HETATM   32  H   UNL     1      34.011  54.759  39.485  1.00  0.00     0.136 HD
ENDBRANCH  27  30
ENDBRANCH  24  27
ENDBRANCH  18  21
ENDBRANCH  16  17
ENDBRANCH  15  16
ENDBRANCH   2  15
BRANCH   1  33
HETATM   33  C   UNL     1      27.831  47.472  40.130  1.00  0.00     0.045 A 
HETATM   34  C   UNL     1      28.531  48.172  41.122  1.00  0.00     0.033 A 
HETATM   35  C   UNL     1      29.929  48.154  41.161  1.00  0.00     0.039 A 
HETATM   36  C   UNL     1      30.661  47.451  40.205  1.00  0.00     0.068 A 
HETATM   37  C   UNL     1      29.978  46.747  39.215  1.00  0.00     0.039 A 
HETATM   38  C   UNL     1      28.576  46.766  39.174  1.00  0.00     0.033 A 
BRANCH  36  39
HETATM   39  O   UNL     1      32.017  47.540  40.342  1.00  0.00    -0.352 OA
BRANCH  39  40
HETATM   40  C   UNL     1      32.515  48.004  41.595  1.00  0.00     0.171 C 
HETATM   41  C   UNL     1      33.611  49.018  41.316  1.00  0.00     0.034 C 
ENDBRANCH  39  40
ENDBRANCH  36  39
ENDBRANCH   1  33
TORSDOF 9
ENDMDL
MODEL 9
REMARK VINA RESULT:      -8.2      6.330     12.742
REMARK  9 active torsions:
REMARK  status: ('A' for Active; 'I' for Inactive)
REMARK    1  A    between atoms: C_2  and  O_3 
REMARK    2  A    between atoms: O_3  and  C_4 
REMARK    3  A    between atoms: C_7  and  N_8 
REMARK    4  A    between atoms: C_9  and  S_10 
REMARK    5  A    between atoms: S_10  and  C_11 
REMARK    6  A    between atoms: C_11  and  C_12 
REMARK       I    between atoms: C_12  and  N_13 
REMARK    7  A    between atoms: N_13  and  C_14 
REMARK    8  A    between atoms: C_17  and  S_18 
REMARK    9  A    between atoms: S_18  and  N_19 
ROOT
HETATM    1  N   UNL     1      17.944  51.555  48.150  1.00  0.00    -0.256 N 
HETATM    2  C   UNL     1      17.582  51.556  46.797  1.00  0.00     0.177 A 
HETATM    3  N   UNL     1      16.543  52.141  46.287  1.00  0.00    -0.216 NA
HETATM    4  C   UNL     1      15.727  52.738  47.179  1.00  0.00     0.117 A 
HETATM    5  C   UNL     1      15.896  52.773  48.542  1.00  0.00     0.076 A 
HETATM    6  C   UNL     1      17.086  52.151  49.101  1.00  0.00     0.268 A 
HETATM    7  O   UNL     1      17.293  52.198  50.312  1.00  0.00    -0.267 OA
HETATM    8  S   UNL     1      14.285  53.500  46.686  1.00  0.00    -0.073 SA
HETATM    9  C   UNL     1      13.863  53.863  48.292  1.00  0.00    -0.008 A 
HETATM   10  C   UNL     1      14.817  53.448  49.203  1.00  0.00    -0.026 A 
HETATM   11  C   UNL     1      14.650  53.664  50.680  1.00  0.00     0.041 C 
HETATM   12  C   UNL     1      13.533  54.673  50.992  1.00  0.00     0.005 C 
HETATM   13  C   UNL     1      12.285  54.431  50.131  1.00  0.00     0.005 C 
HETATM   14  C   UNL     1      12.594  54.583  48.634  1.00  0.00     0.047 C 
ENDROOT
BRANCH   2  15
HETATM   15  S   UNL     1      18.487  50.606  45.619  1.00  0.00    -0.082 SA
BRANCH  15  16
HETATM   16  C   UNL     1      17.423  49.133  45.582  1.00  0.00     0.185 C 
BRANCH  16  17
HETATM   17  C   UNL     1      18.086  47.802  45.941  1.00  0.00     0.231 C 
HETATM   18  N   UNL     1      19.185  47.872  46.768  1.00  0.00    -0.327 N 
HETATM   19  H   UNL     1      19.471  48.811  47.040  1.00  0.00     0.169 HD
HETATM   20  O   UNL     1      17.638  46.768  45.446  1.00  0.00    -0.272 OA
BRANCH  18  21
HETATM   21  C   UNL     1      20.048  46.839  47.179  1.00  0.00     0.034 A 
HETATM   22  C   UNL     1      21.289  46.573  46.598  1.00  0.00     0.031 A 
HETATM   23  C   UNL     1      22.103  45.551  47.101  1.00  0.00     0.027 A 
HETATM   24  C   UNL     1      21.671  44.792  48.190  1.00  0.00     0.074 A 
HETATM   25  C   UNL     1      20.420  45.027  48.762  1.00  0.00     0.027 A 
HETATM   26  C   UNL     1      19.617  46.052  48.257  1.00  0.00     0.031 A 
BRANCH  24  27
HETATM   27  S   UNL     1      22.687  43.495  48.826  1.00  0.00     0.239 S 
HETATM   28  O   UNL     1      22.757  43.611  50.265  1.00  0.00    -0.206 OA
HETATM   29  O   UNL     1      22.359  42.255  48.164  1.00  0.00    -0.206 OA
BRANCH  27  30
HETATM   30  N   UNL     1      24.205  43.931  48.254  1.00  0.00    -0.225 NA
HETATM   31  H   UNL     1      24.118  44.360  47.333  1.00  0.00     0.136 HD
HETATM   32  H   UNL     1      24.677  44.518  48.943  1.00  0.00     0.136 HD
ENDBRANCH  27  30
ENDBRANCH  24  27
ENDBRANCH  18  21
ENDBRANCH  16  17
ENDBRANCH  15  16
ENDBRANCH   2  15
BRANCH   1  33
HETATM   33  C   UNL     1      19.198  51.043  48.631  1.00  0.00     0.045 A 
HETATM   34  C   UNL     1      20.394  51.728  48.384  1.00  0.00     0.033 A 
HETATM   35  C   UNL     1      21.622  51.199  48.796  1.00  0.00     0.039 A 
HETATM   36  C   UNL     1      21.686  49.971  49.452  1.00  0.00     0.068 A 
HETATM   37  C   UNL     1      20.503  49.280  49.708  1.00  0.00     0.039 A 
HETATM   38  C   UNL     1      19.272  49.808  49.293  1.00  0.00     0.033 A 
BRANCH  36  39
HETATM   39  O   UNL     1      22.947  49.559  49.775  1.00  0.00    -0.352 OA
BRANCH  39  40
HETATM   40  C   UNL     1      23.664  48.822  48.787  1.00  0.00     0.171 C 
HETATM   41  C   UNL     1      25.083  49.360  48.740  1.00  0.00     0.034 C 
ENDBRANCH  39  40
ENDBRANCH  36  39
ENDBRANCH   1  33
TORSDOF 9
ENDMDL
MODEL 10
REMARK VINA RESULT:      -8.2      4.976      9.553
REMARK  9 active torsions:
REMARK  status: ('A' for Active; 'I' for Inactive)
REMARK    1  A    between atoms: C_2  and  O_3 
REMARK    2  A    between atoms: O_3  and  C_4 
REMARK    3  A    between atoms: C_7  and  N_8 
REMARK    4  A    between atoms: C_9  and  S_10 
REMARK    5  A    between atoms: S_10  and  C_11 
REMARK    6  A    between atoms: C_11  and  C_12 
REMARK       I    between atoms: C_12  and  N_13 
REMARK    7  A    between atoms: N_13  and  C_14 
REMARK    8  A    between atoms: C_17  and  S_18 
REMARK    9  A    between atoms: S_18  and  N_19 
ROOT
HETATM    1  N   UNL     1      24.252  45.470  50.035  1.00  0.00    -0.256 N 
HETATM    2  C   UNL     1      23.285  44.656  49.431  1.00  0.00     0.177 A 
HETATM    3  N   UNL     1      22.311  45.062  48.677  1.00  0.00    -0.216 NA
HETATM    4  C   UNL     1      22.216  46.400  48.536  1.00  0.00     0.117 A 
HETATM    5  C   UNL     1      23.036  47.341  49.111  1.00  0.00     0.076 A 
HETATM    6  C   UNL     1      24.151  46.875  49.921  1.00  0.00     0.268 A 
HETATM    7  O   UNL     1      24.930  47.684  50.418  1.00  0.00    -0.267 OA
HETATM    8  S   UNL     1      20.958  47.107  47.629  1.00  0.00    -0.073 SA
HETATM    9  C   UNL     1      21.485  48.676  48.016  1.00  0.00    -0.008 A 
HETATM   10  C   UNL     1      22.627  48.679  48.796  1.00  0.00    -0.026 A 
HETATM   11  C   UNL     1      23.267  49.956  49.259  1.00  0.00     0.041 C 
HETATM   12  C   UNL     1      22.737  51.178  48.491  1.00  0.00     0.005 C 
HETATM   13  C   UNL     1      21.212  51.131  48.320  1.00  0.00     0.005 C 
HETATM   14  C   UNL     1      20.772  49.896  47.520  1.00  0.00     0.047 C 
ENDROOT
BRANCH   2  15
HETATM   15  S   UNL     1      23.227  42.926  49.761  1.00  0.00    -0.082 SA
BRANCH  15  16
HETATM   16  C   UNL     1      23.434  42.317  48.061  1.00  0.00     0.185 C 
BRANCH  16  17
HETATM   17  C   UNL     1      22.230  41.609  47.438  1.00  0.00     0.231 C 
HETATM   18  N   UNL     1      22.210  40.236  47.538  1.00  0.00    -0.327 N 
HETATM   19  H   UNL     1      23.018  39.817  47.993  1.00  0.00     0.169 HD
HETATM   20  O   UNL     1      21.384  42.289  46.855  1.00  0.00    -0.272 OA
BRANCH  18  21
HETATM   21  C   UNL     1      21.297  39.324  46.977  1.00  0.00     0.034 A 
HETATM   22  C   UNL     1      20.127  38.894  47.607  1.00  0.00     0.031 A 
HETATM   23  C   UNL     1      19.251  38.017  46.955  1.00  0.00     0.027 A 
HETATM   24  C   UNL     1      19.551  37.568  45.668  1.00  0.00     0.074 A 
HETATM   25  C   UNL     1      20.730  37.966  45.037  1.00  0.00     0.027 A 
HETATM   26  C   UNL     1      21.594  38.846  45.693  1.00  0.00     0.031 A 
BRANCH  24  27
HETATM   27  S   UNL     1      18.457  36.455  44.840  1.00  0.00     0.239 S 
HETATM   28  O   UNL     1      18.966  36.189  43.513  1.00  0.00    -0.206 OA
HETATM   29  O   UNL     1      18.065  35.401  45.745  1.00  0.00    -0.206 OA
BRANCH  27  30
HETATM   30  N   UNL     1      17.089  37.407  44.627  1.00  0.00    -0.225 NA
HETATM   31  H   UNL     1      17.162  37.929  43.753  1.00  0.00     0.136 HD
HETATM   32  H   UNL     1      16.252  36.828  44.697  1.00  0.00     0.136 HD
ENDBRANCH  27  30
ENDBRANCH  24  27
ENDBRANCH  18  21
ENDBRANCH  16  17
ENDBRANCH  15  16
ENDBRANCH   2  15
BRANCH   1  33
HETATM   33  C   UNL     1      25.409  44.950  50.712  1.00  0.00     0.045 A 
HETATM   34  C   UNL     1      25.429  44.831  52.108  1.00  0.00     0.033 A 
HETATM   35  C   UNL     1      26.576  44.385  52.772  1.00  0.00     0.039 A 
HETATM   36  C   UNL     1      27.731  44.061  52.063  1.00  0.00     0.068 A 
HETATM   37  C   UNL     1      27.724  44.170  50.674  1.00  0.00     0.039 A 
HETATM   38  C   UNL     1      26.575  44.620  50.006  1.00  0.00     0.033 A 
BRANCH  36  39
HETATM   39  O   UNL     1      28.786  43.666  52.836  1.00  0.00    -0.352 OA
BRANCH  39  40
HETATM   40  C   UNL     1      28.776  44.065  54.205  1.00  0.00     0.171 C 
HETATM   41  C   UNL     1      30.035  43.525  54.859  1.00  0.00     0.034 C 
ENDBRANCH  39  40
ENDBRANCH  36  39
ENDBRANCH   1  33
TORSDOF 9
ENDMDL
