MODEL 1
REMARK VINA RESULT:      -7.8      0.000      0.000
REMARK  4 active torsions:
REMARK  status: ('A' for Active; 'I' for Inactive)
REMARK    1  A    between atoms: C_9  and  C_10 
REMARK    2  A    between atoms: C_18  and  C_19 
REMARK       I    between atoms: C_19  and  N_20 
REMARK    3  A    between atoms: N_20  and  C_21 
REMARK    4  A    between atoms: C_24  and  O_25 
ROOT
HETATM    1  C   UNL     1      22.748  43.137  49.759  1.00  0.00     0.070 C 
HETATM    2  C   UNL     1      23.950  43.966  50.135  1.00  0.00     0.037 C 
HETATM    3  N   UNL     1      23.697  45.326  50.310  1.00  0.00    -0.192 N 
HETATM    4  C   UNL     1      24.671  46.253  50.400  1.00  0.00     0.725 A 
HETATM    5  N   UNL     1      25.974  45.849  50.494  1.00  0.00    -0.084 N 
HETATM    6  N   UNL     1      26.818  46.902  50.477  1.00  0.00    -0.149 NA
HETATM    7  C   UNL     1      25.945  47.914  50.425  1.00  0.00     0.275 A 
HETATM    8  N   UNL     1      24.621  47.560  50.378  1.00  0.00    -0.054 NA
HETATM    9  C   UNL     1      26.400  44.444  50.469  1.00  0.00     0.204 C 
HETATM   10  C   UNL     1      25.223  43.501  50.224  1.00  0.00     0.062 C 
HETATM   11  H   UNL     1      22.746  45.652  50.165  1.00  0.00     0.184 HD
ENDROOT
BRANCH  10  12
HETATM   12  C   UNL     1      25.637  42.111  49.885  1.00  0.00     0.256 C 
HETATM   13  N   UNL     1      26.355  41.986  48.718  1.00  0.00    -0.323 N 
HETATM   14  H   UNL     1      26.462  42.816  48.148  1.00  0.00     0.169 HD
HETATM   15  O   UNL     1      25.281  41.206  50.634  1.00  0.00    -0.267 OA
BRANCH  13  16
HETATM   16  C   UNL     1      27.036  40.833  48.267  1.00  0.00     0.035 A 
HETATM   17  C   UNL     1      26.571  40.001  47.248  1.00  0.00     0.032 A 
HETATM   18  C   UNL     1      27.279  38.848  46.892  1.00  0.00     0.039 A 
HETATM   19  C   UNL     1      28.461  38.503  47.545  1.00  0.00     0.068 A 
HETATM   20  C   UNL     1      28.934  39.327  48.563  1.00  0.00     0.039 A 
HETATM   21  C   UNL     1      28.227  40.486  48.918  1.00  0.00     0.032 A 
BRANCH  19  22
HETATM   22  O   UNL     1      29.041  37.348  47.102  1.00  0.00    -0.356 OA
HETATM   23  C   UNL     1      29.018  37.107  45.702  1.00  0.00     0.210 C 
ENDBRANCH  19  22
ENDBRANCH  13  16
ENDBRANCH  10  12
BRANCH   9  24
HETATM   24  C   UNL     1      27.245  44.112  51.701  1.00  0.00    -0.006 A 
HETATM   25  C   UNL     1      26.828  44.295  53.033  1.00  0.00     0.044 A 
HETATM   26 CL   UNL     1      25.240  44.827  53.454  1.00  0.00    -0.084 Cl
HETATM   27  C   UNL     1      27.696  44.034  54.100  1.00  0.00     0.048 A 
HETATM   28  C   UNL     1      28.983  43.569  53.854  1.00  0.00     0.035 A 
HETATM   29 CL   UNL     1      30.047  43.259  55.169  1.00  0.00    -0.084 Cl
HETATM   30  C   UNL     1      29.411  43.349  52.550  1.00  0.00     0.024 A 
HETATM   31  C   UNL     1      28.550  43.618  51.485  1.00  0.00     0.013 A 
ENDBRANCH   9  24
TORSDOF 4
ENDMDL
MODEL 2
REMARK VINA RESULT:      -7.6      5.501      8.870
REMARK  4 active torsions:
REMARK  status: ('A' for Active; 'I' for Inactive)
REMARK    1  A    between atoms: C_9  and  C_10 
REMARK    2  A    between atoms: C_18  and  C_19 
REMARK       I    between atoms: C_19  and  N_20 
REMARK    3  A    between atoms: N_20  and  C_21 
REMARK    4  A    between atoms: C_24  and  O_25 
ROOT
HETATM    1  C   UNL     1      23.509  50.878  48.069  1.00  0.00     0.070 C 
HETATM    2  C   UNL     1      22.124  50.393  48.413  1.00  0.00     0.037 C 
HETATM    3  N   UNL     1      21.166  51.395  48.557  1.00  0.00    -0.192 N 
HETATM    4  C   UNL     1      19.951  51.185  49.100  1.00  0.00     0.725 A 
HETATM    5  N   UNL     1      19.554  49.906  49.377  1.00  0.00    -0.084 N 
HETATM    6  N   UNL     1      18.358  49.887  50.003  1.00  0.00    -0.149 NA
HETATM    7  C   UNL     1      18.071  51.193  50.022  1.00  0.00     0.275 A 
HETATM    8  N   UNL     1      19.019  52.021  49.477  1.00  0.00    -0.054 NA
HETATM    9  C   UNL     1      20.391  48.721  49.150  1.00  0.00     0.204 C 
HETATM   10  C   UNL     1      21.789  49.101  48.666  1.00  0.00     0.062 C 
HETATM   11  H   UNL     1      21.467  52.358  48.432  1.00  0.00     0.184 HD
ENDROOT
BRANCH  10  12
HETATM   12  C   UNL     1      22.761  47.974  48.717  1.00  0.00     0.256 C 
HETATM   13  N   UNL     1      23.432  47.839  49.911  1.00  0.00    -0.323 N 
HETATM   14  H   UNL     1      23.283  48.555  50.611  1.00  0.00     0.169 HD
HETATM   15  O   UNL     1      22.912  47.297  47.705  1.00  0.00    -0.267 OA
BRANCH  13  16
HETATM   16  C   UNL     1      24.249  46.752  50.300  1.00  0.00     0.035 A 
HETATM   17  C   UNL     1      24.015  45.429  49.927  1.00  0.00     0.032 A 
HETATM   18  C   UNL     1      24.843  44.402  50.395  1.00  0.00     0.039 A 
HETATM   19  C   UNL     1      25.916  44.675  51.242  1.00  0.00     0.068 A 
HETATM   20  C   UNL     1      26.157  45.994  51.619  1.00  0.00     0.039 A 
HETATM   21  C   UNL     1      25.331  47.025  51.148  1.00  0.00     0.032 A 
BRANCH  19  22
HETATM   22  O   UNL     1      26.632  43.578  51.628  1.00  0.00    -0.356 OA
HETATM   23  C   UNL     1      28.034  43.743  51.784  1.00  0.00     0.210 C 
ENDBRANCH  19  22
ENDBRANCH  13  16
ENDBRANCH  10  12
BRANCH   9  24
HETATM   24  C   UNL     1      19.660  47.702  48.272  1.00  0.00    -0.006 A 
HETATM   25  C   UNL     1      19.071  47.991  47.028  1.00  0.00     0.044 A 
HETATM   26 CL   UNL     1      19.192  49.537  46.269  1.00  0.00    -0.084 Cl
HETATM   27  C   UNL     1      18.356  47.012  46.325  1.00  0.00     0.048 A 
HETATM   28  C   UNL     1      18.238  45.729  46.846  1.00  0.00     0.035 A 
HETATM   29 CL   UNL     1      17.352  44.534  45.983  1.00  0.00    -0.084 Cl
HETATM   30  C   UNL     1      18.836  45.406  48.058  1.00  0.00     0.024 A 
HETATM   31  C   UNL     1      19.541  46.383  48.764  1.00  0.00     0.013 A 
ENDBRANCH   9  24
TORSDOF 4
ENDMDL
MODEL 3
REMARK VINA RESULT:      -7.5      3.334      7.297
REMARK  4 active torsions:
REMARK  status: ('A' for Active; 'I' for Inactive)
REMARK    1  A    between atoms: C_9  and  C_10 
REMARK    2  A    between atoms: C_18  and  C_19 
REMARK       I    between atoms: C_19  and  N_20 
REMARK    3  A    between atoms: N_20  and  C_21 
REMARK    4  A    between atoms: C_24  and  O_25 
ROOT
HETATM    1  C   UNL     1      28.785  38.179  50.976  1.00  0.00     0.070 C 
HETATM    2  C   UNL     1      28.331  39.206  49.968  1.00  0.00     0.037 C 
HETATM    3  N   UNL     1      28.387  38.793  48.638  1.00  0.00    -0.192 N 
HETATM    4  C   UNL     1      28.265  39.638  47.596  1.00  0.00     0.725 A 
HETATM    5  N   UNL     1      27.902  40.936  47.826  1.00  0.00    -0.084 N 
HETATM    6  N   UNL     1      27.922  41.661  46.688  1.00  0.00    -0.149 NA
HETATM    7  C   UNL     1      28.256  40.717  45.802  1.00  0.00     0.275 A 
HETATM    8  N   UNL     1      28.473  39.464  46.317  1.00  0.00    -0.054 NA
HETATM    9  C   UNL     1      27.664  41.496  49.162  1.00  0.00     0.204 C 
HETATM   10  C   UNL     1      27.969  40.482  50.262  1.00  0.00     0.062 C 
HETATM   11  H   UNL     1      28.731  37.856  48.449  1.00  0.00     0.184 HD
ENDROOT
BRANCH  10  12
HETATM   12  C   UNL     1      28.042  41.085  51.622  1.00  0.00     0.256 C 
HETATM   13  N   UNL     1      29.042  42.014  51.794  1.00  0.00    -0.323 N 
HETATM   14  H   UNL     1      29.693  42.142  51.029  1.00  0.00     0.169 HD
HETATM   15  O   UNL     1      27.249  40.689  52.471  1.00  0.00    -0.267 OA
BRANCH  13  16
HETATM   16  C   UNL     1      29.211  42.876  52.901  1.00  0.00     0.035 A 
HETATM   17  C   UNL     1      28.386  43.968  53.172  1.00  0.00     0.032 A 
HETATM   18  C   UNL     1      28.649  44.805  54.263  1.00  0.00     0.039 A 
HETATM   19  C   UNL     1      29.737  44.570  55.100  1.00  0.00     0.068 A 
HETATM   20  C   UNL     1      30.567  43.482  54.838  1.00  0.00     0.039 A 
HETATM   21  C   UNL     1      30.302  42.639  53.748  1.00  0.00     0.032 A 
BRANCH  19  22
HETATM   22  O   UNL     1      29.879  45.470  56.118  1.00  0.00    -0.356 OA
HETATM   23  C   UNL     1      28.690  46.025  56.661  1.00  0.00     0.210 C 
ENDBRANCH  19  22
ENDBRANCH  13  16
ENDBRANCH  10  12
BRANCH   9  24
HETATM   24  C   UNL     1      26.274  42.134  49.242  1.00  0.00    -0.006 A 
HETATM   25  C   UNL     1      26.027  43.477  49.581  1.00  0.00     0.044 A 
HETATM   26 CL   UNL     1      27.288  44.625  49.848  1.00  0.00    -0.084 Cl
HETATM   27  C   UNL     1      24.717  43.958  49.704  1.00  0.00     0.048 A 
HETATM   28  C   UNL     1      23.639  43.111  49.472  1.00  0.00     0.035 A 
HETATM   29 CL   UNL     1      22.033  43.706  49.633  1.00  0.00    -0.084 Cl
HETATM   30  C   UNL     1      23.854  41.788  49.106  1.00  0.00     0.024 A 
HETATM   31  C   UNL     1      25.159  41.305  48.991  1.00  0.00     0.013 A 
ENDBRANCH   9  24
TORSDOF 4
ENDMDL
MODEL 4
REMARK VINA RESULT:      -7.3     18.340     20.928
REMARK  4 active torsions:
REMARK  status: ('A' for Active; 'I' for Inactive)
REMARK    1  A    between atoms: C_9  and  C_10 
REMARK    2  A    between atoms: C_18  and  C_19 
REMARK       I    between atoms: C_19  and  N_20 
REMARK    3  A    between atoms: N_20  and  C_21 
REMARK    4  A    between atoms: C_24  and  O_25 
ROOT
HETATM    1  C   UNL     1      40.794  43.542  63.264  1.00  0.00     0.070 C 
HETATM    2  C   UNL     1      41.356  44.717  64.026  1.00  0.00     0.037 C 
HETATM    3  N   UNL     1      42.610  45.150  63.600  1.00  0.00    -0.192 N 
HETATM    4  C   UNL     1      43.374  46.008  64.304  1.00  0.00     0.725 A 
HETATM    5  N   UNL     1      42.847  46.624  65.405  1.00  0.00    -0.084 N 
HETATM    6  N   UNL     1      43.775  47.370  66.042  1.00  0.00    -0.149 NA
HETATM    7  C   UNL     1      44.826  47.197  65.234  1.00  0.00     0.275 A 
HETATM    8  N   UNL     1      44.622  46.371  64.157  1.00  0.00    -0.054 NA
HETATM    9  C   UNL     1      41.489  46.386  65.906  1.00  0.00     0.204 C 
HETATM   10  C   UNL     1      40.776  45.295  65.110  1.00  0.00     0.062 C 
HETATM   11  H   UNL     1      43.048  44.649  62.832  1.00  0.00     0.184 HD
ENDROOT
BRANCH  10  12
HETATM   12  C   UNL     1      39.529  44.803  65.759  1.00  0.00     0.256 C 
HETATM   13  N   UNL     1      38.434  44.725  64.930  1.00  0.00    -0.323 N 
HETATM   14  H   UNL     1      38.536  45.087  63.990  1.00  0.00     0.169 HD
HETATM   15  O   UNL     1      39.566  44.550  66.959  1.00  0.00    -0.267 OA
BRANCH  13  16
HETATM   16  C   UNL     1      37.195  44.111  65.226  1.00  0.00     0.035 A 
HETATM   17  C   UNL     1      36.147  44.751  65.888  1.00  0.00     0.032 A 
HETATM   18  C   UNL     1      34.968  44.058  66.189  1.00  0.00     0.039 A 
HETATM   19  C   UNL     1      34.814  42.719  65.836  1.00  0.00     0.068 A 
HETATM   20  C   UNL     1      35.855  42.072  65.174  1.00  0.00     0.039 A 
HETATM   21  C   UNL     1      37.035  42.766  64.868  1.00  0.00     0.032 A 
BRANCH  19  22
HETATM   22  O   UNL     1      33.618  42.167  66.200  1.00  0.00    -0.356 OA
HETATM   23  C   UNL     1      33.077  42.563  67.452  1.00  0.00     0.210 C 
ENDBRANCH  19  22
ENDBRANCH  13  16
ENDBRANCH  10  12
BRANCH   9  24
HETATM   24  C   UNL     1      40.716  47.702  66.027  1.00  0.00    -0.006 A 
HETATM   25  C   UNL     1      40.413  48.346  67.241  1.00  0.00     0.044 A 
HETATM   26 CL   UNL     1      40.978  47.778  68.771  1.00  0.00    -0.084 Cl
HETATM   27  C   UNL     1      39.636  49.511  67.263  1.00  0.00     0.048 A 
HETATM   28  C   UNL     1      39.169  50.059  66.073  1.00  0.00     0.035 A 
HETATM   29 CL   UNL     1      38.208  51.485  66.108  1.00  0.00    -0.084 Cl
HETATM   30  C   UNL     1      39.479  49.462  64.858  1.00  0.00     0.024 A 
HETATM   31  C   UNL     1      40.246  48.296  64.835  1.00  0.00     0.013 A 
ENDBRANCH   9  24
TORSDOF 4
ENDMDL
MODEL 5
REMARK VINA RESULT:      -7.1      4.444      7.453
REMARK  4 active torsions:
REMARK  status: ('A' for Active; 'I' for Inactive)
REMARK    1  A    between atoms: C_9  and  C_10 
REMARK    2  A    between atoms: C_18  and  C_19 
REMARK       I    between atoms: C_19  and  N_20 
REMARK    3  A    between atoms: N_20  and  C_21 
REMARK    4  A    between atoms: C_24  and  O_25 
ROOT
HETATM    1  C   UNL     1      23.769  48.773  48.563  1.00  0.00     0.070 C 
HETATM    2  C   UNL     1      22.940  47.515  48.498  1.00  0.00     0.037 C 
HETATM    3  N   UNL     1      21.684  47.665  47.913  1.00  0.00    -0.192 N 
HETATM    4  C   UNL     1      20.717  46.731  47.990  1.00  0.00     0.725 A 
HETATM    5  N   UNL     1      21.011  45.503  48.515  1.00  0.00    -0.084 N 
HETATM    6  N   UNL     1      19.909  44.729  48.604  1.00  0.00    -0.149 NA
HETATM    7  C   UNL     1      18.995  45.541  48.063  1.00  0.00     0.275 A 
HETATM    8  N   UNL     1      19.449  46.775  47.672  1.00  0.00    -0.054 NA
HETATM    9  C   UNL     1      22.329  45.134  49.046  1.00  0.00     0.204 C 
HETATM   10  C   UNL     1      23.295  46.317  49.032  1.00  0.00     0.062 C 
HETATM   11  H   UNL     1      21.421  48.592  47.589  1.00  0.00     0.184 HD
ENDROOT
BRANCH  10  12
HETATM   12  C   UNL     1      24.530  46.085  49.832  1.00  0.00     0.256 C 
HETATM   13  N   UNL     1      24.395  46.302  51.184  1.00  0.00    -0.323 N 
HETATM   14  H   UNL     1      23.514  46.684  51.507  1.00  0.00     0.169 HD
HETATM   15  O   UNL     1      25.552  45.764  49.234  1.00  0.00    -0.267 OA
BRANCH  13  16
HETATM   16  C   UNL     1      25.332  45.969  52.189  1.00  0.00     0.035 A 
HETATM   17  C   UNL     1      25.656  44.661  52.549  1.00  0.00     0.032 A 
HETATM   18  C   UNL     1      26.559  44.414  53.590  1.00  0.00     0.039 A 
HETATM   19  C   UNL     1      27.152  45.463  54.289  1.00  0.00     0.068 A 
HETATM   20  C   UNL     1      26.835  46.773  53.936  1.00  0.00     0.039 A 
HETATM   21  C   UNL     1      25.933  47.022  52.890  1.00  0.00     0.032 A 
BRANCH  19  22
HETATM   22  O   UNL     1      28.003  45.076  55.285  1.00  0.00    -0.356 OA
HETATM   23  C   UNL     1      28.575  46.103  56.083  1.00  0.00     0.210 C 
ENDBRANCH  19  22
ENDBRANCH  13  16
ENDBRANCH  10  12
BRANCH   9  24
HETATM   24  C   UNL     1      22.852  43.867  48.364  1.00  0.00    -0.006 A 
HETATM   25  C   UNL     1      23.002  43.708  46.974  1.00  0.00     0.044 A 
HETATM   26 CL   UNL     1      22.712  44.983  45.847  1.00  0.00    -0.084 Cl
HETATM   27  C   UNL     1      23.419  42.485  46.431  1.00  0.00     0.048 A 
HETATM   28  C   UNL     1      23.709  41.414  47.269  1.00  0.00     0.035 A 
HETATM   29 CL   UNL     1      24.211  39.913  46.595  1.00  0.00    -0.084 Cl
HETATM   30  C   UNL     1      23.599  41.552  48.647  1.00  0.00     0.024 A 
HETATM   31  C   UNL     1      23.176  42.767  49.189  1.00  0.00     0.013 A 
ENDBRANCH   9  24
TORSDOF 4
ENDMDL
MODEL 6
REMARK VINA RESULT:      -7.1      3.243      5.667
REMARK  4 active torsions:
REMARK  status: ('A' for Active; 'I' for Inactive)
REMARK    1  A    between atoms: C_9  and  C_10 
REMARK    2  A    between atoms: C_18  and  C_19 
REMARK       I    between atoms: C_19  and  N_20 
REMARK    3  A    between atoms: N_20  and  C_21 
REMARK    4  A    between atoms: C_24  and  O_25 
ROOT
HETATM    1  C   UNL     1      26.350  40.099  50.101  1.00  0.00     0.070 C 
HETATM    2  C   UNL     1      26.680  41.308  50.941  1.00  0.00     0.037 C 
HETATM    3  N   UNL     1      27.825  41.187  51.726  1.00  0.00    -0.192 N 
HETATM    4  C   UNL     1      28.138  42.047  52.715  1.00  0.00     0.725 A 
HETATM    5  N   UNL     1      27.404  43.191  52.864  1.00  0.00    -0.084 N 
HETATM    6  N   UNL     1      27.790  43.884  53.956  1.00  0.00    -0.149 NA
HETATM    7  C   UNL     1      28.800  43.121  54.386  1.00  0.00     0.275 A 
HETATM    8  N   UNL     1      29.047  41.988  53.653  1.00  0.00    -0.054 NA
HETATM    9  C   UNL     1      26.251  43.540  52.026  1.00  0.00     0.204 C 
HETATM   10  C   UNL     1      25.912  42.425  51.038  1.00  0.00     0.062 C 
HETATM   11  H   UNL     1      28.336  40.310  51.684  1.00  0.00     0.184 HD
ENDROOT
BRANCH  10  12
HETATM   12  C   UNL     1      24.583  42.592  50.386  1.00  0.00     0.256 C 
HETATM   13  N   UNL     1      24.617  42.681  49.013  1.00  0.00    -0.323 N 
HETATM   14  H   UNL     1      25.528  42.719  48.572  1.00  0.00     0.169 HD
HETATM   15  O   UNL     1      23.595  42.674  51.107  1.00  0.00    -0.267 OA
BRANCH  13  16
HETATM   16  C   UNL     1      23.507  42.641  48.139  1.00  0.00     0.035 A 
HETATM   17  C   UNL     1      22.743  43.757  47.797  1.00  0.00     0.032 A 
HETATM   18  C   UNL     1      21.627  43.626  46.962  1.00  0.00     0.039 A 
HETATM   19  C   UNL     1      21.253  42.383  46.456  1.00  0.00     0.068 A 
HETATM   20  C   UNL     1      22.010  41.263  46.791  1.00  0.00     0.039 A 
HETATM   21  C   UNL     1      23.131  41.393  47.624  1.00  0.00     0.032 A 
BRANCH  19  22
HETATM   22  O   UNL     1      20.139  42.401  45.664  1.00  0.00    -0.356 OA
HETATM   23  C   UNL     1      19.439  43.633  45.561  1.00  0.00     0.210 C 
ENDBRANCH  19  22
ENDBRANCH  13  16
ENDBRANCH  10  12
BRANCH   9  24
HETATM   24  C   UNL     1      26.437  44.923  51.396  1.00  0.00    -0.006 A 
HETATM   25  C   UNL     1      26.004  46.131  51.971  1.00  0.00     0.044 A 
HETATM   26 CL   UNL     1      25.289  46.220  53.541  1.00  0.00    -0.084 Cl
HETATM   27  C   UNL     1      26.150  47.346  51.289  1.00  0.00     0.048 A 
HETATM   28  C   UNL     1      26.747  47.372  50.034  1.00  0.00     0.035 A 
HETATM   29 CL   UNL     1      26.915  48.866  49.198  1.00  0.00    -0.084 Cl
HETATM   30  C   UNL     1      27.212  46.198  49.455  1.00  0.00     0.024 A 
HETATM   31  C   UNL     1      27.060  44.986  50.130  1.00  0.00     0.013 A 
ENDBRANCH   9  24
TORSDOF 4
ENDMDL
MODEL 7
REMARK VINA RESULT:      -7.1     10.231     14.183
REMARK  4 active torsions:
REMARK  status: ('A' for Active; 'I' for Inactive)
REMARK    1  A    between atoms: C_9  and  C_10 
REMARK    2  A    between atoms: C_18  and  C_19 
REMARK       I    between atoms: C_19  and  N_20 
REMARK    3  A    between atoms: N_20  and  C_21 
REMARK    4  A    between atoms: C_24  and  O_25 
ROOT
HETATM    1  C   UNL     1      15.924  50.031  44.534  1.00  0.00     0.070 C 
HETATM    2  C   UNL     1      16.709  49.334  45.617  1.00  0.00     0.037 C 
HETATM    3  N   UNL     1      16.902  47.968  45.420  1.00  0.00    -0.192 N 
HETATM    4  C   UNL     1      17.352  47.139  46.381  1.00  0.00     0.725 A 
HETATM    5  N   UNL     1      17.805  47.663  47.560  1.00  0.00    -0.084 N 
HETATM    6  N   UNL     1      18.126  46.692  48.440  1.00  0.00    -0.149 NA
HETATM    7  C   UNL     1      17.889  45.603  47.700  1.00  0.00     0.275 A 
HETATM    8  N   UNL     1      17.416  45.833  46.433  1.00  0.00    -0.054 NA
HETATM    9  C   UNL     1      17.804  49.097  47.872  1.00  0.00     0.204 C 
HETATM   10  C   UNL     1      17.143  49.916  46.765  1.00  0.00     0.062 C 
HETATM   11  H   UNL     1      16.501  47.550  44.585  1.00  0.00     0.184 HD
ENDROOT
BRANCH  10  12
HETATM   12  C   UNL     1      16.841  51.319  47.164  1.00  0.00     0.256 C 
HETATM   13  N   UNL     1      15.774  51.463  48.021  1.00  0.00    -0.323 N 
HETATM   14  H   UNL     1      15.234  50.633  48.233  1.00  0.00     0.169 HD
HETATM   15  O   UNL     1      17.524  52.216  46.679  1.00  0.00    -0.267 OA
BRANCH  13  16
HETATM   16  C   UNL     1      15.398  52.639  48.709  1.00  0.00     0.035 A 
HETATM   17  C   UNL     1      15.740  52.911  50.033  1.00  0.00     0.032 A 
HETATM   18  C   UNL     1      15.287  54.078  50.660  1.00  0.00     0.039 A 
HETATM   19  C   UNL     1      14.485  54.992  49.979  1.00  0.00     0.068 A 
HETATM   20  C   UNL     1      14.138  54.729  48.656  1.00  0.00     0.039 A 
HETATM   21  C   UNL     1      14.596  53.562  48.025  1.00  0.00     0.032 A 
BRANCH  19  22
HETATM   22  O   UNL     1      14.108  56.079  50.715  1.00  0.00    -0.356 OA
HETATM   23  C   UNL     1      13.643  55.837  52.035  1.00  0.00     0.210 C 
ENDBRANCH  19  22
ENDBRANCH  13  16
ENDBRANCH  10  12
BRANCH   9  24
HETATM   24  C   UNL     1      19.205  49.567  48.271  1.00  0.00    -0.006 A 
HETATM   25  C   UNL     1      19.640  49.762  49.595  1.00  0.00     0.044 A 
HETATM   26 CL   UNL     1      18.663  49.386  50.968  1.00  0.00    -0.084 Cl
HETATM   27  C   UNL     1      20.918  50.266  49.866  1.00  0.00     0.048 A 
HETATM   28  C   UNL     1      21.785  50.564  48.820  1.00  0.00     0.035 A 
HETATM   29 CL   UNL     1      23.350  51.191  49.159  1.00  0.00    -0.084 Cl
HETATM   30  C   UNL     1      21.394  50.352  47.504  1.00  0.00     0.024 A 
HETATM   31  C   UNL     1      20.117  49.858  47.232  1.00  0.00     0.013 A 
ENDBRANCH   9  24
TORSDOF 4
ENDMDL
MODEL 8
REMARK VINA RESULT:      -7.0     18.275     21.467
REMARK  4 active torsions:
REMARK  status: ('A' for Active; 'I' for Inactive)
REMARK    1  A    between atoms: C_9  and  C_10 
REMARK    2  A    between atoms: C_18  and  C_19 
REMARK       I    between atoms: C_19  and  N_20 
REMARK    3  A    between atoms: N_20  and  C_21 
REMARK    4  A    between atoms: C_24  and  O_25 
ROOT
HETATM    1  C   UNL     1      37.405  44.154  63.184  1.00  0.00     0.070 C 
HETATM    2  C   UNL     1      38.674  43.588  63.772  1.00  0.00     0.037 C 
HETATM    3  N   UNL     1      39.006  42.307  63.335  1.00  0.00    -0.192 N 
HETATM    4  C   UNL     1      39.948  41.545  63.924  1.00  0.00     0.725 A 
HETATM    5  N   UNL     1      40.743  42.094  64.891  1.00  0.00    -0.084 N 
HETATM    6  N   UNL     1      41.561  41.170  65.439  1.00  0.00    -0.149 NA
HETATM    7  C   UNL     1      41.237  40.095  64.712  1.00  0.00     0.275 A 
HETATM    8  N   UNL     1      40.256  40.283  63.772  1.00  0.00    -0.054 NA
HETATM    9  C   UNL     1      40.618  43.476  65.368  1.00  0.00     0.204 C 
HETATM   10  C   UNL     1      39.430  44.190  64.726  1.00  0.00     0.062 C 
HETATM   11  H   UNL     1      38.379  41.856  62.674  1.00  0.00     0.184 HD
ENDROOT
BRANCH  10  12
HETATM   12  C   UNL     1      39.076  45.473  65.395  1.00  0.00     0.256 C 
HETATM   13  N   UNL     1      39.401  46.607  64.686  1.00  0.00    -0.323 N 
HETATM   14  H   UNL     1      39.927  46.484  63.830  1.00  0.00     0.169 HD
HETATM   15  O   UNL     1      38.570  45.420  66.512  1.00  0.00    -0.267 OA
BRANCH  13  16
HETATM   16  C   UNL     1      39.004  47.931  64.985  1.00  0.00     0.035 A 
HETATM   17  C   UNL     1      39.886  48.939  65.374  1.00  0.00     0.032 A 
HETATM   18  C   UNL     1      39.408  50.214  65.701  1.00  0.00     0.039 A 
HETATM   19  C   UNL     1      38.046  50.504  65.647  1.00  0.00     0.068 A 
HETATM   20  C   UNL     1      37.158  49.503  65.259  1.00  0.00     0.039 A 
HETATM   21  C   UNL     1      37.636  48.227  64.927  1.00  0.00     0.032 A 
BRANCH  19  22
HETATM   22  O   UNL     1      37.721  51.783  66.002  1.00  0.00    -0.356 OA
HETATM   23  C   UNL     1      37.687  52.080  67.390  1.00  0.00     0.210 C 
ENDBRANCH  19  22
ENDBRANCH  13  16
ENDBRANCH  10  12
BRANCH   9  24
HETATM   24  C   UNL     1      41.954  44.215  65.248  1.00  0.00    -0.006 A 
HETATM   25  C   UNL     1      42.884  44.365  66.292  1.00  0.00     0.044 A 
HETATM   26 CL   UNL     1      42.683  43.630  67.841  1.00  0.00    -0.084 Cl
HETATM   27  C   UNL     1      44.050  45.122  66.114  1.00  0.00     0.048 A 
HETATM   28  C   UNL     1      44.310  45.721  64.887  1.00  0.00     0.035 A 
HETATM   29 CL   UNL     1      45.738  46.657  64.678  1.00  0.00    -0.084 Cl
HETATM   30  C   UNL     1      43.424  45.564  63.828  1.00  0.00     0.024 A 
HETATM   31  C   UNL     1      42.258  44.817  64.007  1.00  0.00     0.013 A 
ENDBRANCH   9  24
TORSDOF 4
ENDMDL
MODEL 9
REMARK VINA RESULT:      -6.9     10.989     15.079
REMARK  4 active torsions:
REMARK  status: ('A' for Active; 'I' for Inactive)
REMARK    1  A    between atoms: C_9  and  C_10 
REMARK    2  A    between atoms: C_18  and  C_19 
REMARK       I    between atoms: C_19  and  N_20 
REMARK    3  A    between atoms: N_20  and  C_21 
REMARK    4  A    between atoms: C_24  and  O_25 
ROOT
HETATM    1  C   UNL     1      15.339  52.959  45.258  1.00  0.00     0.070 C 
HETATM    2  C   UNL     1      16.292  51.826  45.546  1.00  0.00     0.037 C 
HETATM    3  N   UNL     1      16.904  51.270  44.424  1.00  0.00    -0.192 N 
HETATM    4  C   UNL     1      17.582  50.107  44.451  1.00  0.00     0.725 A 
HETATM    5  N   UNL     1      17.837  49.509  45.654  1.00  0.00    -0.084 N 
HETATM    6  N   UNL     1      18.436  48.310  45.492  1.00  0.00    -0.149 NA
HETATM    7  C   UNL     1      18.558  48.277  44.160  1.00  0.00     0.275 A 
HETATM    8  N   UNL     1      18.050  49.358  43.486  1.00  0.00    -0.054 NA
HETATM    9  C   UNL     1      17.384  50.040  46.946  1.00  0.00     0.204 C 
HETATM   10  C   UNL     1      16.511  51.282  46.771  1.00  0.00     0.062 C 
HETATM   11  H   UNL     1      16.663  51.655  43.514  1.00  0.00     0.184 HD
ENDROOT
BRANCH  10  12
HETATM   12  C   UNL     1      15.781  51.674  48.009  1.00  0.00     0.256 C 
HETATM   13  N   UNL     1      15.794  53.021  48.288  1.00  0.00    -0.323 N 
HETATM   14  H   UNL     1      16.363  53.613  47.696  1.00  0.00     0.169 HD
HETATM   15  O   UNL     1      15.274  50.784  48.684  1.00  0.00    -0.267 OA
BRANCH  13  16
HETATM   16  C   UNL     1      15.025  53.685  49.271  1.00  0.00     0.035 A 
HETATM   17  C   UNL     1      15.387  53.773  50.616  1.00  0.00     0.032 A 
HETATM   18  C   UNL     1      14.545  54.406  51.539  1.00  0.00     0.039 A 
HETATM   19  C   UNL     1      13.331  54.960  51.139  1.00  0.00     0.068 A 
HETATM   20  C   UNL     1      12.961  54.877  49.798  1.00  0.00     0.039 A 
HETATM   21  C   UNL     1      13.806  54.247  48.871  1.00  0.00     0.032 A 
BRANCH  19  22
HETATM   22  O   UNL     1      12.608  55.536  52.144  1.00  0.00    -0.356 OA
HETATM   23  C   UNL     1      13.303  55.849  53.343  1.00  0.00     0.210 C 
ENDBRANCH  19  22
ENDBRANCH  13  16
ENDBRANCH  10  12
BRANCH   9  24
HETATM   24  C   UNL     1      18.564  50.213  47.905  1.00  0.00    -0.006 A 
HETATM   25  C   UNL     1      18.805  49.409  49.034  1.00  0.00     0.044 A 
HETATM   26 CL   UNL     1      17.841  48.032  49.428  1.00  0.00    -0.084 Cl
HETATM   27  C   UNL     1      19.870  49.686  49.901  1.00  0.00     0.048 A 
HETATM   28  C   UNL     1      20.719  50.756  49.640  1.00  0.00     0.035 A 
HETATM   29 CL   UNL     1      22.020  51.096  50.714  1.00  0.00    -0.084 Cl
HETATM   30  C   UNL     1      20.524  51.548  48.516  1.00  0.00     0.024 A 
HETATM   31  C   UNL     1      19.458  51.279  47.656  1.00  0.00     0.013 A 
ENDBRANCH   9  24
TORSDOF 4
ENDMDL
MODEL 10
REMARK VINA RESULT:      -6.8      9.308     13.283
REMARK  4 active torsions:
REMARK  status: ('A' for Active; 'I' for Inactive)
REMARK    1  A    between atoms: C_9  and  C_10 
REMARK    2  A    between atoms: C_18  and  C_19 
REMARK       I    between atoms: C_19  and  N_20 
REMARK    3  A    between atoms: N_20  and  C_21 
REMARK    4  A    between atoms: C_24  and  O_25 
ROOT
HETATM    1  C   UNL     1      15.367  47.828  45.079  1.00  0.00     0.070 C 
HETATM    2  C   UNL     1      16.553  47.360  45.885  1.00  0.00     0.037 C 
HETATM    3  N   UNL     1      17.229  46.261  45.357  1.00  0.00    -0.192 N 
HETATM    4  C   UNL     1      18.143  45.553  46.049  1.00  0.00     0.725 A 
HETATM    5  N   UNL     1      18.566  46.013  47.265  1.00  0.00    -0.084 N 
HETATM    6  N   UNL     1      19.404  45.137  47.859  1.00  0.00    -0.149 NA
HETATM    7  C   UNL     1      19.480  44.194  46.914  1.00  0.00     0.275 A 
HETATM    8  N   UNL     1      18.725  44.411  45.790  1.00  0.00    -0.054 NA
HETATM    9  C   UNL     1      18.057  47.235  47.901  1.00  0.00     0.204 C 
HETATM   10  C   UNL     1      16.931  47.869  47.087  1.00  0.00     0.062 C 
HETATM   11  H   UNL     1      16.876  45.860  44.493  1.00  0.00     0.184 HD
ENDROOT
BRANCH  10  12
HETATM   12  C   UNL     1      16.180  48.920  47.829  1.00  0.00     0.256 C 
HETATM   13  N   UNL     1      16.704  50.188  47.728  1.00  0.00    -0.323 N 
HETATM   14  H   UNL     1      17.589  50.288  47.246  1.00  0.00     0.169 HD
HETATM   15  O   UNL     1      15.203  48.574  48.486  1.00  0.00    -0.267 OA
BRANCH  13  16
HETATM   16  C   UNL     1      16.092  51.389  48.156  1.00  0.00     0.035 A 
HETATM   17  C   UNL     1      15.315  52.204  47.333  1.00  0.00     0.032 A 
HETATM   18  C   UNL     1      14.784  53.405  47.819  1.00  0.00     0.039 A 
HETATM   19  C   UNL     1      15.019  53.814  49.130  1.00  0.00     0.068 A 
HETATM   20  C   UNL     1      15.794  53.006  49.959  1.00  0.00     0.039 A 
HETATM   21  C   UNL     1      16.323  51.800  49.475  1.00  0.00     0.032 A 
BRANCH  19  22
HETATM   22  O   UNL     1      14.449  55.009  49.465  1.00  0.00    -0.356 OA
HETATM   23  C   UNL     1      15.159  55.830  50.382  1.00  0.00     0.210 C 
ENDBRANCH  19  22
ENDBRANCH  13  16
ENDBRANCH  10  12
BRANCH   9  24
HETATM   24  C   UNL     1      19.208  48.182  48.253  1.00  0.00    -0.006 A 
HETATM   25  C   UNL     1      19.418  48.750  49.523  1.00  0.00     0.044 A 
HETATM   26 CL   UNL     1      18.450  48.359  50.898  1.00  0.00    -0.084 Cl
HETATM   27  C   UNL     1      20.455  49.667  49.738  1.00  0.00     0.048 A 
HETATM   28  C   UNL     1      21.306  50.012  48.694  1.00  0.00     0.035 A 
HETATM   29 CL   UNL     1      22.572  51.146  48.962  1.00  0.00    -0.084 Cl
HETATM   30  C   UNL     1      21.141  49.443  47.438  1.00  0.00     0.024 A 
HETATM   31  C   UNL     1      20.102  48.536  47.220  1.00  0.00     0.013 A 
ENDBRANCH   9  24
TORSDOF 4
ENDMDL
