MODEL 1
REMARK VINA RESULT:     -10.8      0.000      0.000
REMARK  3 active torsions:
REMARK  status: ('A' for Active; 'I' for Inactive)
REMARK    1  A    between atoms: C_4  and  N_5 
REMARK       I    between atoms: N_5  and  C_6 
REMARK    2  A    between atoms: C_6  and  C_7 
REMARK    3  A    between atoms: C_7  and  N_8 
ROOT
HETATM    1  N   UNL     1      25.798  45.283  52.140  1.00  0.00    -0.224 N 
HETATM    2  N   UNL     1      25.614  46.169  53.219  1.00  0.00    -0.180 NA
HETATM    3  C   UNL     1      26.478  46.172  54.196  1.00  0.00     0.153 A 
HETATM    4  C   UNL     1      27.598  45.274  54.197  1.00  0.00     0.028 A 
HETATM    5  C   UNL     1      27.747  44.403  53.147  1.00  0.00     0.116 A 
HETATM    6  N   UNL     1      28.870  43.658  53.359  1.00  0.00    -0.350 N 
HETATM    7  H   UNL     1      29.217  42.945  52.731  1.00  0.00     0.166 HD
HETATM    8  C   UNL     1      29.458  44.038  54.548  1.00  0.00     0.044 A 
HETATM    9  C   UNL     1      28.675  45.062  55.095  1.00  0.00     0.005 A 
HETATM   10  C   UNL     1      30.613  43.559  55.172  1.00  0.00     0.031 A 
HETATM   11  C   UNL     1      30.986  44.145  56.387  1.00  0.00     0.009 A 
HETATM   12  C   UNL     1      30.241  45.181  56.959  1.00  0.00    -0.061 A 
HETATM   13  C   UNL     1      30.652  45.783  58.271  1.00  0.00     0.048 C 
HETATM   14  C   UNL     1      29.073  45.636  56.320  1.00  0.00     0.021 A 
HETATM   15  C   UNL     1      26.846  44.351  52.035  1.00  0.00     0.291 A 
HETATM   16  O   UNL     1      26.981  43.563  51.103  1.00  0.00    -0.264 OA
ENDROOT
BRANCH   1  17
HETATM   17  C   UNL     1      24.873  45.408  51.024  1.00  0.00     0.258 C 
BRANCH  17  18
HETATM   18  C   UNL     1      24.608  46.885  50.680  1.00  0.00     0.244 C 
HETATM   19  N   UNL     1      23.767  47.129  49.570  1.00  0.00    -0.321 N 
HETATM   20  C   UNL     1      22.953  46.065  48.976  1.00  0.00     0.159 C 
HETATM   21  O   UNL     1      25.096  47.777  51.381  1.00  0.00    -0.271 OA
BRANCH  19  22
HETATM   22  C   UNL     1      23.575  48.466  49.043  1.00  0.00     0.037 A 
HETATM   23  C   UNL     1      22.347  49.140  49.154  1.00  0.00     0.036 A 
HETATM   24  C   UNL     1      22.160  50.439  48.652  1.00  0.00    -0.060 A 
HETATM   25  C   UNL     1      20.833  51.128  48.783  1.00  0.00     0.048 C 
HETATM   26  C   UNL     1      23.229  51.095  48.040  1.00  0.00     0.007 A 
HETATM   27  C   UNL     1      24.460  50.461  47.932  1.00  0.00     0.003 A 
HETATM   28  C   UNL     1      24.631  49.163  48.430  1.00  0.00     0.030 A 
ENDBRANCH  19  22
ENDBRANCH  17  18
ENDBRANCH   1  17
TORSDOF 3
ENDMDL
MODEL 2
REMARK VINA RESULT:     -10.5      1.601      9.083
REMARK  3 active torsions:
REMARK  status: ('A' for Active; 'I' for Inactive)
REMARK    1  A    between atoms: C_4  and  N_5 
REMARK       I    between atoms: N_5  and  C_6 
REMARK    2  A    between atoms: C_6  and  C_7 
REMARK    3  A    between atoms: C_7  and  N_8 
ROOT
HETATM    1  N   UNL     1      25.808  44.387  51.545  1.00  0.00    -0.224 N 
HETATM    2  N   UNL     1      26.506  45.606  51.438  1.00  0.00    -0.180 NA
HETATM    3  C   UNL     1      25.971  46.591  50.774  1.00  0.00     0.153 A 
HETATM    4  C   UNL     1      24.693  46.447  50.135  1.00  0.00     0.028 A 
HETATM    5  C   UNL     1      24.039  45.245  50.233  1.00  0.00     0.116 A 
HETATM    6  N   UNL     1      22.857  45.341  49.558  1.00  0.00    -0.350 N 
HETATM    7  H   UNL     1      22.175  44.597  49.481  1.00  0.00     0.166 HD
HETATM    8  C   UNL     1      22.735  46.604  49.018  1.00  0.00     0.044 A 
HETATM    9  C   UNL     1      23.882  47.324  49.372  1.00  0.00     0.005 A 
HETATM   10  C   UNL     1      21.705  47.158  48.251  1.00  0.00     0.031 A 
HETATM   11  C   UNL     1      21.845  48.488  47.839  1.00  0.00     0.009 A 
HETATM   12  C   UNL     1      22.967  49.247  48.186  1.00  0.00    -0.061 A 
HETATM   13  C   UNL     1      23.101  50.667  47.718  1.00  0.00     0.048 C 
HETATM   14  C   UNL     1      23.998  48.663  48.944  1.00  0.00     0.021 A 
HETATM   15  C   UNL     1      24.559  44.123  50.954  1.00  0.00     0.291 A 
HETATM   16  O   UNL     1      23.972  43.048  51.030  1.00  0.00    -0.264 OA
ENDROOT
BRANCH   1  17
HETATM   17  C   UNL     1      26.397  43.366  52.398  1.00  0.00     0.258 C 
BRANCH  17  18
HETATM   18  C   UNL     1      27.074  43.991  53.632  1.00  0.00     0.244 C 
HETATM   19  N   UNL     1      28.483  43.888  53.693  1.00  0.00    -0.321 N 
HETATM   20  C   UNL     1      29.274  43.494  52.523  1.00  0.00     0.159 C 
HETATM   21  O   UNL     1      26.390  44.569  54.482  1.00  0.00    -0.271 OA
BRANCH  19  22
HETATM   22  C   UNL     1      29.222  44.284  54.875  1.00  0.00     0.037 A 
HETATM   23  C   UNL     1      30.233  43.477  55.425  1.00  0.00     0.036 A 
HETATM   24  C   UNL     1      30.956  43.862  56.567  1.00  0.00    -0.060 A 
HETATM   25  C   UNL     1      32.026  42.972  57.131  1.00  0.00     0.048 C 
HETATM   26  C   UNL     1      30.682  45.091  57.167  1.00  0.00     0.007 A 
HETATM   27  C   UNL     1      29.701  45.918  56.635  1.00  0.00     0.003 A 
HETATM   28  C   UNL     1      28.982  45.520  55.501  1.00  0.00     0.030 A 
ENDBRANCH  19  22
ENDBRANCH  17  18
ENDBRANCH   1  17
TORSDOF 3
ENDMDL
MODEL 3
REMARK VINA RESULT:     -10.3      2.216      9.441
REMARK  3 active torsions:
REMARK  status: ('A' for Active; 'I' for Inactive)
REMARK    1  A    between atoms: C_4  and  N_5 
REMARK       I    between atoms: N_5  and  C_6 
REMARK    2  A    between atoms: C_6  and  C_7 
REMARK    3  A    between atoms: C_7  and  N_8 
ROOT
HETATM    1  N   UNL     1      24.656  48.195  49.206  1.00  0.00    -0.224 N 
HETATM    2  N   UNL     1      24.687  49.600  49.121  1.00  0.00    -0.180 NA
HETATM    3  C   UNL     1      23.565  50.261  49.079  1.00  0.00     0.153 A 
HETATM    4  C   UNL     1      22.301  49.579  49.097  1.00  0.00     0.028 A 
HETATM    5  C   UNL     1      22.292  48.209  49.158  1.00  0.00     0.116 A 
HETATM    6  N   UNL     1      20.996  47.785  49.167  1.00  0.00    -0.350 N 
HETATM    7  H   UNL     1      20.705  46.818  49.218  1.00  0.00     0.166 HD
HETATM    8  C   UNL     1      20.154  48.876  49.112  1.00  0.00     0.044 A 
HETATM    9  C   UNL     1      20.955  50.023  49.071  1.00  0.00     0.005 A 
HETATM   10  C   UNL     1      18.757  48.933  49.097  1.00  0.00     0.031 A 
HETATM   11  C   UNL     1      18.158  50.197  49.047  1.00  0.00     0.009 A 
HETATM   12  C   UNL     1      18.923  51.368  49.022  1.00  0.00    -0.061 A 
HETATM   13  C   UNL     1      18.257  52.712  48.951  1.00  0.00     0.048 C 
HETATM   14  C   UNL     1      20.327  51.285  49.021  1.00  0.00     0.021 A 
HETATM   15  C   UNL     1      23.484  47.417  49.219  1.00  0.00     0.291 A 
HETATM   16  O   UNL     1      23.468  46.190  49.264  1.00  0.00    -0.264 OA
ENDROOT
BRANCH   1  17
HETATM   17  C   UNL     1      25.934  47.519  49.371  1.00  0.00     0.258 C 
BRANCH  17  18
HETATM   18  C   UNL     1      26.105  46.993  50.808  1.00  0.00     0.244 C 
HETATM   19  N   UNL     1      26.383  45.612  50.940  1.00  0.00    -0.321 N 
HETATM   20  C   UNL     1      26.788  44.798  49.791  1.00  0.00     0.159 C 
HETATM   21  O   UNL     1      26.029  47.772  51.762  1.00  0.00    -0.271 OA
BRANCH  19  22
HETATM   22  C   UNL     1      26.400  44.963  52.236  1.00  0.00     0.037 A 
HETATM   23  C   UNL     1      27.574  44.407  52.773  1.00  0.00     0.036 A 
HETATM   24  C   UNL     1      27.596  43.784  54.034  1.00  0.00    -0.060 A 
HETATM   25  C   UNL     1      28.866  43.194  54.574  1.00  0.00     0.048 C 
HETATM   26  C   UNL     1      26.424  43.731  54.789  1.00  0.00     0.007 A 
HETATM   27  C   UNL     1      25.253  44.289  54.292  1.00  0.00     0.003 A 
HETATM   28  C   UNL     1      25.243  44.900  53.032  1.00  0.00     0.030 A 
ENDBRANCH  19  22
ENDBRANCH  17  18
ENDBRANCH   1  17
TORSDOF 3
ENDMDL
MODEL 4
REMARK VINA RESULT:     -10.3      3.069      4.761
REMARK  3 active torsions:
REMARK  status: ('A' for Active; 'I' for Inactive)
REMARK    1  A    between atoms: C_4  and  N_5 
REMARK       I    between atoms: N_5  and  C_6 
REMARK    2  A    between atoms: C_6  and  C_7 
REMARK    3  A    between atoms: C_7  and  N_8 
ROOT
HETATM    1  N   UNL     1      26.402  46.014  53.071  1.00  0.00    -0.224 N 
HETATM    2  N   UNL     1      27.219  44.943  52.660  1.00  0.00    -0.180 NA
HETATM    3  C   UNL     1      28.179  44.537  53.443  1.00  0.00     0.153 A 
HETATM    4  C   UNL     1      28.427  45.176  54.705  1.00  0.00     0.028 A 
HETATM    5  C   UNL     1      27.633  46.232  55.077  1.00  0.00     0.116 A 
HETATM    6  N   UNL     1      28.047  46.674  56.300  1.00  0.00    -0.350 N 
HETATM    7  H   UNL     1      27.625  47.438  56.810  1.00  0.00     0.166 HD
HETATM    8  C   UNL     1      29.112  45.910  56.730  1.00  0.00     0.044 A 
HETATM    9  C   UNL     1      29.369  44.953  55.741  1.00  0.00     0.005 A 
HETATM   10  C   UNL     1      29.858  45.992  57.910  1.00  0.00     0.031 A 
HETATM   11  C   UNL     1      30.892  45.067  58.090  1.00  0.00     0.009 A 
HETATM   12  C   UNL     1      31.171  44.085  57.134  1.00  0.00    -0.061 A 
HETATM   13  C   UNL     1      32.296  43.114  57.343  1.00  0.00     0.048 C 
HETATM   14  C   UNL     1      30.417  44.032  55.948  1.00  0.00     0.021 A 
HETATM   15  C   UNL     1      26.555  46.725  54.275  1.00  0.00     0.291 A 
HETATM   16  O   UNL     1      25.854  47.676  54.611  1.00  0.00    -0.264 OA
ENDROOT
BRANCH   1  17
HETATM   17  C   UNL     1      25.274  46.345  52.213  1.00  0.00     0.258 C 
BRANCH  17  18
HETATM   18  C   UNL     1      24.741  45.097  51.486  1.00  0.00     0.244 C 
HETATM   19  N   UNL     1      25.003  45.020  50.098  1.00  0.00    -0.321 N 
HETATM   20  C   UNL     1      25.978  45.905  49.453  1.00  0.00     0.159 C 
HETATM   21  O   UNL     1      24.150  44.218  52.122  1.00  0.00    -0.271 OA
BRANCH  19  22
HETATM   22  C   UNL     1      24.415  43.986  49.271  1.00  0.00     0.037 A 
HETATM   23  C   UNL     1      25.066  42.764  49.033  1.00  0.00     0.036 A 
HETATM   24  C   UNL     1      24.495  41.755  48.238  1.00  0.00    -0.060 A 
HETATM   25  C   UNL     1      25.222  40.464  48.000  1.00  0.00     0.048 C 
HETATM   26  C   UNL     1      23.232  41.959  47.681  1.00  0.00     0.007 A 
HETATM   27  C   UNL     1      22.556  43.150  47.914  1.00  0.00     0.003 A 
HETATM   28  C   UNL     1      23.140  44.150  48.702  1.00  0.00     0.030 A 
ENDBRANCH  19  22
ENDBRANCH  17  18
ENDBRANCH   1  17
TORSDOF 3
ENDMDL
MODEL 5
REMARK VINA RESULT:      -9.7      1.646      2.247
REMARK  3 active torsions:
REMARK  status: ('A' for Active; 'I' for Inactive)
REMARK    1  A    between atoms: C_4  and  N_5 
REMARK       I    between atoms: N_5  and  C_6 
REMARK    2  A    between atoms: C_6  and  C_7 
REMARK    3  A    between atoms: C_7  and  N_8 
ROOT
HETATM    1  N   UNL     1      26.693  43.775  51.364  1.00  0.00    -0.224 N 
HETATM    2  N   UNL     1      26.294  44.885  52.133  1.00  0.00    -0.180 NA
HETATM    3  C   UNL     1      26.963  45.189  53.210  1.00  0.00     0.153 A 
HETATM    4  C   UNL     1      28.085  44.399  53.633  1.00  0.00     0.028 A 
HETATM    5  C   UNL     1      28.445  43.308  52.881  1.00  0.00     0.116 A 
HETATM    6  N   UNL     1      29.527  42.719  53.466  1.00  0.00    -0.350 N 
HETATM    7  H   UNL     1      30.000  41.899  53.110  1.00  0.00     0.166 HD
HETATM    8  C   UNL     1      29.878  43.421  54.601  1.00  0.00     0.044 A 
HETATM    9  C   UNL     1      28.984  44.491  54.726  1.00  0.00     0.005 A 
HETATM   10  C   UNL     1      30.910  43.192  55.516  1.00  0.00     0.031 A 
HETATM   11  C   UNL     1      31.040  44.084  56.585  1.00  0.00     0.009 A 
HETATM   12  C   UNL     1      30.178  45.175  56.737  1.00  0.00    -0.061 A 
HETATM   13  C   UNL     1      30.328  46.109  57.902  1.00  0.00     0.048 C 
HETATM   14  C   UNL     1      29.137  45.376  55.813  1.00  0.00     0.021 A 
HETATM   15  C   UNL     1      27.764  42.921  51.683  1.00  0.00     0.291 A 
HETATM   16  O   UNL     1      28.087  41.939  51.021  1.00  0.00    -0.264 OA
ENDROOT
BRANCH   1  17
HETATM   17  C   UNL     1      25.985  43.556  50.112  1.00  0.00     0.258 C 
BRANCH  17  18
HETATM   18  C   UNL     1      25.382  44.866  49.575  1.00  0.00     0.244 C 
HETATM   19  N   UNL     1      23.972  44.970  49.616  1.00  0.00    -0.321 N 
HETATM   20  C   UNL     1      23.157  44.034  50.395  1.00  0.00     0.159 C 
HETATM   21  O   UNL     1      26.125  45.766  49.171  1.00  0.00    -0.271 OA
BRANCH  19  22
HETATM   22  C   UNL     1      23.274  46.075  48.990  1.00  0.00     0.037 A 
HETATM   23  C   UNL     1      22.357  45.878  47.943  1.00  0.00     0.036 A 
HETATM   24  C   UNL     1      21.673  46.948  47.339  1.00  0.00    -0.060 A 
HETATM   25  C   UNL     1      20.704  46.702  46.219  1.00  0.00     0.048 C 
HETATM   26  C   UNL     1      21.891  48.246  47.801  1.00  0.00     0.007 A 
HETATM   27  C   UNL     1      22.778  48.469  48.847  1.00  0.00     0.003 A 
HETATM   28  C   UNL     1      23.459  47.396  49.435  1.00  0.00     0.030 A 
ENDBRANCH  19  22
ENDBRANCH  17  18
ENDBRANCH   1  17
TORSDOF 3
ENDMDL
MODEL 6
REMARK VINA RESULT:      -9.7      4.787      7.554
REMARK  3 active torsions:
REMARK  status: ('A' for Active; 'I' for Inactive)
REMARK    1  A    between atoms: C_4  and  N_5 
REMARK       I    between atoms: N_5  and  C_6 
REMARK    2  A    between atoms: C_6  and  C_7 
REMARK    3  A    between atoms: C_7  and  N_8 
ROOT
HETATM    1  N   UNL     1      27.417  42.801  51.100  1.00  0.00    -0.224 N 
HETATM    2  N   UNL     1      28.438  41.886  51.419  1.00  0.00    -0.180 NA
HETATM    3  C   UNL     1      29.166  42.089  52.482  1.00  0.00     0.153 A 
HETATM    4  C   UNL     1      28.955  43.238  53.317  1.00  0.00     0.028 A 
HETATM    5  C   UNL     1      27.969  44.129  52.976  1.00  0.00     0.116 A 
HETATM    6  N   UNL     1      27.950  45.128  53.905  1.00  0.00    -0.350 N 
HETATM    7  H   UNL     1      27.310  45.911  53.896  1.00  0.00     0.166 HD
HETATM    8  C   UNL     1      28.923  44.894  54.854  1.00  0.00     0.044 A 
HETATM    9  C   UNL     1      29.570  43.702  54.507  1.00  0.00     0.005 A 
HETATM   10  C   UNL     1      29.274  45.640  55.984  1.00  0.00     0.031 A 
HETATM   11  C   UNL     1      30.310  45.152  56.788  1.00  0.00     0.009 A 
HETATM   12  C   UNL     1      30.971  43.958  56.485  1.00  0.00    -0.061 A 
HETATM   13  C   UNL     1      32.091  43.464  57.354  1.00  0.00     0.048 C 
HETATM   14  C   UNL     1      30.611  43.233  55.335  1.00  0.00     0.021 A 
HETATM   15  C   UNL     1      27.124  43.966  51.832  1.00  0.00     0.291 A 
HETATM   16  O   UNL     1      26.249  44.773  51.529  1.00  0.00    -0.264 OA
ENDROOT
BRANCH   1  17
HETATM   17  C   UNL     1      26.560  42.461  49.974  1.00  0.00     0.258 C 
BRANCH  17  18
HETATM   18  C   UNL     1      26.344  40.940  49.876  1.00  0.00     0.244 C 
HETATM   19  N   UNL     1      26.885  40.302  48.736  1.00  0.00    -0.321 N 
HETATM   20  C   UNL     1      27.849  40.980  47.864  1.00  0.00     0.159 C 
HETATM   21  O   UNL     1      25.754  40.343  50.781  1.00  0.00    -0.271 OA
BRANCH  19  22
HETATM   22  C   UNL     1      26.608  38.910  48.442  1.00  0.00     0.037 A 
HETATM   23  C   UNL     1      25.825  38.525  47.341  1.00  0.00     0.036 A 
HETATM   24  C   UNL     1      25.560  37.175  47.049  1.00  0.00    -0.060 A 
HETATM   25  C   UNL     1      24.714  36.799  45.867  1.00  0.00     0.048 C 
HETATM   26  C   UNL     1      26.106  36.181  47.861  1.00  0.00     0.007 A 
HETATM   27  C   UNL     1      26.900  36.532  48.946  1.00  0.00     0.003 A 
HETATM   28  C   UNL     1      27.149  37.880  49.231  1.00  0.00     0.030 A 
ENDBRANCH  19  22
ENDBRANCH  17  18
ENDBRANCH   1  17
TORSDOF 3
ENDMDL
MODEL 7
REMARK VINA RESULT:      -9.6      2.142      9.980
REMARK  3 active torsions:
REMARK  status: ('A' for Active; 'I' for Inactive)
REMARK    1  A    between atoms: C_4  and  N_5 
REMARK       I    between atoms: N_5  and  C_6 
REMARK    2  A    between atoms: C_6  and  C_7 
REMARK    3  A    between atoms: C_7  and  N_8 
ROOT
HETATM    1  N   UNL     1      23.685  47.871  49.150  1.00  0.00    -0.224 N 
HETATM    2  N   UNL     1      22.567  47.021  49.039  1.00  0.00    -0.180 NA
HETATM    3  C   UNL     1      21.387  47.541  48.849  1.00  0.00     0.153 A 
HETATM    4  C   UNL     1      21.207  48.964  48.771  1.00  0.00     0.028 A 
HETATM    5  C   UNL     1      22.306  49.776  48.903  1.00  0.00     0.116 A 
HETATM    6  N   UNL     1      21.899  51.073  48.793  1.00  0.00    -0.350 N 
HETATM    7  H   UNL     1      22.513  51.876  48.844  1.00  0.00     0.166 HD
HETATM    8  C   UNL     1      20.536  51.114  48.590  1.00  0.00     0.044 A 
HETATM    9  C   UNL     1      20.075  49.792  48.568  1.00  0.00     0.005 A 
HETATM   10  C   UNL     1      19.684  52.211  48.424  1.00  0.00     0.031 A 
HETATM   11  C   UNL     1      18.324  51.953  48.222  1.00  0.00     0.009 A 
HETATM   12  C   UNL     1      17.826  50.647  48.176  1.00  0.00    -0.061 A 
HETATM   13  C   UNL     1      16.360  50.396  47.975  1.00  0.00     0.048 C 
HETATM   14  C   UNL     1      18.699  49.560  48.362  1.00  0.00     0.021 A 
HETATM   15  C   UNL     1      23.633  49.276  49.102  1.00  0.00     0.291 A 
HETATM   16  O   UNL     1      24.609  50.009  49.228  1.00  0.00    -0.264 OA
ENDROOT
BRANCH   1  17
HETATM   17  C   UNL     1      24.989  47.232  49.240  1.00  0.00     0.258 C 
BRANCH  17  18
HETATM   18  C   UNL     1      25.313  46.826  50.689  1.00  0.00     0.244 C 
HETATM   19  N   UNL     1      25.949  45.575  50.862  1.00  0.00    -0.321 N 
HETATM   20  C   UNL     1      26.539  44.852  49.731  1.00  0.00     0.159 C 
HETATM   21  O   UNL     1      25.046  47.595  51.618  1.00  0.00    -0.271 OA
BRANCH  19  22
HETATM   22  C   UNL     1      26.154  45.004  52.178  1.00  0.00     0.037 A 
HETATM   23  C   UNL     1      27.437  44.694  52.661  1.00  0.00     0.036 A 
HETATM   24  C   UNL     1      27.641  44.148  53.941  1.00  0.00    -0.060 A 
HETATM   25  C   UNL     1      29.025  43.822  54.423  1.00  0.00     0.048 C 
HETATM   26  C   UNL     1      26.542  43.923  54.770  1.00  0.00     0.007 A 
HETATM   27  C   UNL     1      25.264  44.238  54.327  1.00  0.00     0.003 A 
HETATM   28  C   UNL     1      25.073  44.774  53.047  1.00  0.00     0.030 A 
ENDBRANCH  19  22
ENDBRANCH  17  18
ENDBRANCH   1  17
TORSDOF 3
ENDMDL
MODEL 8
REMARK VINA RESULT:      -9.6      5.162      7.334
REMARK  3 active torsions:
REMARK  status: ('A' for Active; 'I' for Inactive)
REMARK    1  A    between atoms: C_4  and  N_5 
REMARK       I    between atoms: N_5  and  C_6 
REMARK    2  A    between atoms: C_6  and  C_7 
REMARK    3  A    between atoms: C_7  and  N_8 
ROOT
HETATM    1  N   UNL     1      27.395  41.563  51.238  1.00  0.00    -0.224 N 
HETATM    2  N   UNL     1      28.377  40.741  51.823  1.00  0.00    -0.180 NA
HETATM    3  C   UNL     1      29.073  41.194  52.827  1.00  0.00     0.153 A 
HETATM    4  C   UNL     1      28.868  42.523  53.332  1.00  0.00     0.028 A 
HETATM    5  C   UNL     1      27.921  43.316  52.734  1.00  0.00     0.116 A 
HETATM    6  N   UNL     1      27.899  44.520  53.375  1.00  0.00    -0.350 N 
HETATM    7  H   UNL     1      27.284  45.288  53.141  1.00  0.00     0.166 HD
HETATM    8  C   UNL     1      28.831  44.518  54.392  1.00  0.00     0.044 A 
HETATM    9  C   UNL     1      29.454  43.265  54.388  1.00  0.00     0.005 A 
HETATM   10  C   UNL     1      29.165  45.522  55.307  1.00  0.00     0.031 A 
HETATM   11  C   UNL     1      30.158  45.236  56.251  1.00  0.00     0.009 A 
HETATM   12  C   UNL     1      30.792  43.991  56.291  1.00  0.00    -0.061 A 
HETATM   13  C   UNL     1      31.866  43.715  57.303  1.00  0.00     0.048 C 
HETATM   14  C   UNL     1      30.452  43.003  55.350  1.00  0.00     0.021 A 
HETATM   15  C   UNL     1      27.112  42.882  51.636  1.00  0.00     0.291 A 
HETATM   16  O   UNL     1      26.272  43.601  51.101  1.00  0.00    -0.264 OA
ENDROOT
BRANCH   1  17
HETATM   17  C   UNL     1      26.568  40.963  50.202  1.00  0.00     0.258 C 
BRANCH  17  18
HETATM   18  C   UNL     1      27.401  40.616  48.954  1.00  0.00     0.244 C 
HETATM   19  N   UNL     1      26.673  40.245  47.799  1.00  0.00    -0.321 N 
HETATM   20  C   UNL     1      25.229  40.471  47.698  1.00  0.00     0.159 C 
HETATM   21  O   UNL     1      28.632  40.702  48.992  1.00  0.00    -0.271 OA
BRANCH  19  22
HETATM   22  C   UNL     1      27.338  39.735  46.616  1.00  0.00     0.037 A 
HETATM   23  C   UNL     1      27.743  40.581  45.570  1.00  0.00     0.036 A 
HETATM   24  C   UNL     1      28.394  40.092  44.424  1.00  0.00    -0.060 A 
HETATM   25  C   UNL     1      28.808  41.023  43.322  1.00  0.00     0.048 C 
HETATM   26  C   UNL     1      28.670  38.728  44.326  1.00  0.00     0.007 A 
HETATM   27  C   UNL     1      28.298  37.870  45.354  1.00  0.00     0.003 A 
HETATM   28  C   UNL     1      27.642  38.369  46.486  1.00  0.00     0.030 A 
ENDBRANCH  19  22
ENDBRANCH  17  18
ENDBRANCH   1  17
TORSDOF 3
ENDMDL
MODEL 9
REMARK VINA RESULT:      -9.5      2.184      9.518
REMARK  3 active torsions:
REMARK  status: ('A' for Active; 'I' for Inactive)
REMARK    1  A    between atoms: C_4  and  N_5 
REMARK       I    between atoms: N_5  and  C_6 
REMARK    2  A    between atoms: C_6  and  C_7 
REMARK    3  A    between atoms: C_7  and  N_8 
ROOT
HETATM    1  N   UNL     1      23.403  45.500  49.222  1.00  0.00    -0.224 N 
HETATM    2  N   UNL     1      23.963  46.764  49.489  1.00  0.00    -0.180 NA
HETATM    3  C   UNL     1      23.235  47.833  49.321  1.00  0.00     0.153 A 
HETATM    4  C   UNL     1      21.881  47.741  48.852  1.00  0.00     0.028 A 
HETATM    5  C   UNL     1      21.361  46.501  48.577  1.00  0.00     0.116 A 
HETATM    6  N   UNL     1      20.074  46.658  48.153  1.00  0.00    -0.350 N 
HETATM    7  H   UNL     1      19.456  45.900  47.893  1.00  0.00     0.166 HD
HETATM    8  C   UNL     1      19.749  47.998  48.148  1.00  0.00     0.044 A 
HETATM    9  C   UNL     1      20.874  48.704  48.590  1.00  0.00     0.005 A 
HETATM   10  C   UNL     1      18.555  48.632  47.791  1.00  0.00     0.031 A 
HETATM   11  C   UNL     1      18.504  50.027  47.894  1.00  0.00     0.009 A 
HETATM   12  C   UNL     1      19.600  50.768  48.347  1.00  0.00    -0.061 A 
HETATM   13  C   UNL     1      19.525  52.264  48.434  1.00  0.00     0.048 C 
HETATM   14  C   UNL     1      20.796  50.109  48.686  1.00  0.00     0.021 A 
HETATM   15  C   UNL     1      22.097  45.285  48.748  1.00  0.00     0.291 A 
HETATM   16  O   UNL     1      21.627  44.180  48.491  1.00  0.00    -0.264 OA
ENDROOT
BRANCH   1  17
HETATM   17  C   UNL     1      24.221  44.340  49.541  1.00  0.00     0.258 C 
BRANCH  17  18
HETATM   18  C   UNL     1      24.852  44.469  50.939  1.00  0.00     0.244 C 
HETATM   19  N   UNL     1      26.241  44.736  50.977  1.00  0.00    -0.321 N 
HETATM   20  C   UNL     1      26.971  45.168  49.782  1.00  0.00     0.159 C 
HETATM   21  O   UNL     1      24.144  44.371  51.946  1.00  0.00    -0.271 OA
BRANCH  19  22
HETATM   22  C   UNL     1      26.983  44.714  52.221  1.00  0.00     0.037 A 
HETATM   23  C   UNL     1      28.064  43.839  52.426  1.00  0.00     0.036 A 
HETATM   24  C   UNL     1      28.792  43.821  53.629  1.00  0.00    -0.060 A 
HETATM   25  C   UNL     1      29.937  42.869  53.817  1.00  0.00     0.048 C 
HETATM   26  C   UNL     1      28.449  44.710  54.648  1.00  0.00     0.007 A 
HETATM   27  C   UNL     1      27.397  45.599  54.466  1.00  0.00     0.003 A 
HETATM   28  C   UNL     1      26.675  45.602  53.267  1.00  0.00     0.030 A 
ENDBRANCH  19  22
ENDBRANCH  17  18
ENDBRANCH   1  17
TORSDOF 3
ENDMDL
MODEL 10
REMARK VINA RESULT:      -9.3      5.761      7.377
REMARK  3 active torsions:
REMARK  status: ('A' for Active; 'I' for Inactive)
REMARK    1  A    between atoms: C_4  and  N_5 
REMARK       I    between atoms: N_5  and  C_6 
REMARK    2  A    between atoms: C_6  and  C_7 
REMARK    3  A    between atoms: C_7  and  N_8 
ROOT
HETATM    1  N   UNL     1      26.957  40.940  49.835  1.00  0.00    -0.224 N 
HETATM    2  N   UNL     1      26.182  42.085  50.102  1.00  0.00    -0.180 NA
HETATM    3  C   UNL     1      26.530  42.877  51.077  1.00  0.00     0.153 A 
HETATM    4  C   UNL     1      27.676  42.590  51.893  1.00  0.00     0.028 A 
HETATM    5  C   UNL     1      28.406  41.458  51.630  1.00  0.00     0.116 A 
HETATM    6  N   UNL     1      29.438  41.392  52.520  1.00  0.00    -0.350 N 
HETATM    7  H   UNL     1      30.135  40.660  52.542  1.00  0.00     0.166 HD
HETATM    8  C   UNL     1      29.386  42.480  53.367  1.00  0.00     0.044 A 
HETATM    9  C   UNL     1      28.284  43.255  52.988  1.00  0.00     0.005 A 
HETATM   10  C   UNL     1      30.226  42.834  54.427  1.00  0.00     0.031 A 
HETATM   11  C   UNL     1      29.938  44.016  55.118  1.00  0.00     0.009 A 
HETATM   12  C   UNL     1      28.856  44.827  54.760  1.00  0.00    -0.061 A 
HETATM   13  C   UNL     1      28.558  46.082  55.528  1.00  0.00     0.048 C 
HETATM   14  C   UNL     1      28.015  44.443  53.700  1.00  0.00     0.021 A 
HETATM   15  C   UNL     1      28.090  40.548  50.570  1.00  0.00     0.291 A 
HETATM   16  O   UNL     1      28.743  39.532  50.347  1.00  0.00    -0.264 OA
ENDROOT
BRANCH   1  17
HETATM   17  C   UNL     1      26.592  40.160  48.663  1.00  0.00     0.258 C 
BRANCH  17  18
HETATM   18  C   UNL     1      27.206  40.755  47.383  1.00  0.00     0.244 C 
HETATM   19  N   UNL     1      26.658  40.308  46.158  1.00  0.00    -0.321 N 
HETATM   20  C   UNL     1      25.392  39.570  46.109  1.00  0.00     0.159 C 
HETATM   21  O   UNL     1      28.104  41.599  47.465  1.00  0.00    -0.271 OA
BRANCH  19  22
HETATM   22  C   UNL     1      27.255  40.661  44.886  1.00  0.00     0.037 A 
HETATM   23  C   UNL     1      28.460  40.086  44.445  1.00  0.00     0.036 A 
HETATM   24  C   UNL     1      29.038  40.421  43.208  1.00  0.00    -0.060 A 
HETATM   25  C   UNL     1      30.329  39.792  42.771  1.00  0.00     0.048 C 
HETATM   26  C   UNL     1      28.391  41.336  42.377  1.00  0.00     0.007 A 
HETATM   27  C   UNL     1      27.189  41.907  42.778  1.00  0.00     0.003 A 
HETATM   28  C   UNL     1      26.628  41.571  44.017  1.00  0.00     0.030 A 
ENDBRANCH  19  22
ENDBRANCH  17  18
ENDBRANCH   1  17
TORSDOF 3
ENDMDL
