MODEL 1
REMARK VINA RESULT:      -9.8      0.000      0.000
REMARK  7 active torsions:
REMARK  status: ('A' for Active; 'I' for Inactive)
REMARK    1  A    between atoms: C_4  and  N_5 
REMARK       I    between atoms: N_5  and  C_6 
REMARK       I    between atoms: C_6  and  N_7 
REMARK    2  A    between atoms: N_7  and  N_8 
REMARK       I    between atoms: N_8  and  C_9 
REMARK    3  A    between atoms: C_9  and  C_10 
REMARK    4  A    between atoms: C_10  and  N_11 
REMARK    5  A    between atoms: C_10  and  C_19 
REMARK       I    between atoms: N_11  and  C_12 
REMARK    6  A    between atoms: C_12  and  C_13 
REMARK    7  A    between atoms: C_19  and  C_20 
ROOT
HETATM    1  C   UNL     1      24.828  44.816  51.249  1.00  0.00     0.183 C 
ENDROOT
BRANCH   1   2
HETATM    2  C   UNL     1      23.551  44.177  50.661  1.00  0.00     0.259 C 
HETATM    3  N   UNL     1      22.739  45.022  49.929  1.00  0.00    -0.264 N 
HETATM    4  H   UNL     1      23.152  45.883  49.553  1.00  0.00     0.190 HD
HETATM    5  O   UNL     1      23.352  42.962  50.718  1.00  0.00    -0.269 OA
BRANCH   3   6
HETATM    6  N   UNL     1      21.707  44.447  49.173  1.00  0.00    -0.249 N 
HETATM    7  C   UNL     1      20.606  45.166  48.752  1.00  0.00     0.339 C 
HETATM    8  N   UNL     1      20.699  46.511  49.022  1.00  0.00    -0.308 N 
HETATM    9  O   UNL     1      19.678  44.584  48.201  1.00  0.00    -0.245 OA
HETATM   10  H   UNL     1      21.486  46.750  49.606  1.00  0.00     0.170 HD
HETATM   11  H   UNL     1      21.614  43.434  49.192  1.00  0.00     0.192 HD
BRANCH   8  12
HETATM   12  C   UNL     1      19.786  47.532  48.703  1.00  0.00     0.036 A 
HETATM   13  C   UNL     1      18.787  47.978  49.571  1.00  0.00     0.029 A 
HETATM   14  C   UNL     1      17.916  49.000  49.182  1.00  0.00     0.002 A 
HETATM   15  C   UNL     1      18.036  49.585  47.924  1.00  0.00     0.000 A 
HETATM   16  C   UNL     1      19.025  49.143  47.049  1.00  0.00     0.002 A 
HETATM   17  C   UNL     1      19.893  48.118  47.435  1.00  0.00     0.029 A 
ENDBRANCH   8  12
ENDBRANCH   3   6
ENDBRANCH   1   2
BRANCH   1  18
HETATM   18  N   UNL     1      25.377  45.929  50.458  1.00  0.00    -0.343 N 
HETATM   19  C   UNL     1      25.477  47.233  50.886  1.00  0.00     0.259 C 
HETATM   20  O   UNL     1      25.246  47.524  52.059  1.00  0.00    -0.267 OA
HETATM   21  H   UNL     1      25.444  45.784  49.456  1.00  0.00     0.163 HD
BRANCH  19  22
HETATM   22  C   UNL     1      25.915  48.213  49.906  1.00  0.00     0.072 A 
HETATM   23  S   UNL     1      24.821  49.048  48.885  1.00  0.00    -0.097 SA
HETATM   24  C   UNL     1      26.085  49.876  48.087  1.00  0.00     0.050 A 
HETATM   25  C   UNL     1      27.321  49.542  48.593  1.00  0.00     0.009 A 
HETATM   26  C   UNL     1      27.222  48.585  49.644  1.00  0.00     0.025 A 
ENDBRANCH  19  22
ENDBRANCH   1  18
BRANCH   1  27
HETATM   27  C   UNL     1      25.839  43.706  51.583  1.00  0.00     0.076 C 
BRANCH  27  28
HETATM   28  C   UNL     1      26.590  43.963  52.857  1.00  0.00    -0.028 A 
HETATM   29  C   UNL     1      27.944  43.599  53.153  1.00  0.00    -0.002 A 
HETATM   30  C   UNL     1      28.216  44.029  54.453  1.00  0.00     0.042 A 
HETATM   31  C   UNL     1      28.964  42.935  52.442  1.00  0.00     0.014 A 
HETATM   32  C   UNL     1      29.457  43.837  55.072  1.00  0.00     0.030 A 
HETATM   33  N   UNL     1      27.071  44.617  54.934  1.00  0.00    -0.365 N 
HETATM   34  C   UNL     1      30.453  43.187  54.339  1.00  0.00     0.002 A 
HETATM   35  C   UNL     1      30.213  42.740  53.043  1.00  0.00     0.001 A 
HETATM   36  H   UNL     1      26.972  45.005  55.863  1.00  0.00     0.165 HD
HETATM   37  C   UNL     1      26.088  44.586  53.983  1.00  0.00     0.096 A 
ENDBRANCH  27  28
ENDBRANCH   1  27
TORSDOF 7
ENDMDL
MODEL 2
REMARK VINA RESULT:      -9.8      4.933      8.507
REMARK  7 active torsions:
REMARK  status: ('A' for Active; 'I' for Inactive)
REMARK    1  A    between atoms: C_4  and  N_5 
REMARK       I    between atoms: N_5  and  C_6 
REMARK       I    between atoms: C_6  and  N_7 
REMARK    2  A    between atoms: N_7  and  N_8 
REMARK       I    between atoms: N_8  and  C_9 
REMARK    3  A    between atoms: C_9  and  C_10 
REMARK    4  A    between atoms: C_10  and  N_11 
REMARK    5  A    between atoms: C_10  and  C_19 
REMARK       I    between atoms: N_11  and  C_12 
REMARK    6  A    between atoms: C_12  and  C_13 
REMARK    7  A    between atoms: C_19  and  C_20 
ROOT
HETATM    1  C   UNL     1      27.583  42.518  52.731  1.00  0.00     0.183 C 
ENDROOT
BRANCH   1   2
HETATM    2  C   UNL     1      28.260  41.134  52.842  1.00  0.00     0.259 C 
HETATM    3  N   UNL     1      28.622  40.546  51.645  1.00  0.00    -0.264 N 
HETATM    4  H   UNL     1      28.724  41.149  50.821  1.00  0.00     0.190 HD
HETATM    5  O   UNL     1      28.589  40.662  53.932  1.00  0.00    -0.269 OA
BRANCH   3   6
HETATM    6  N   UNL     1      29.453  39.418  51.695  1.00  0.00    -0.249 N 
HETATM    7  C   UNL     1      29.301  38.345  50.839  1.00  0.00     0.339 C 
HETATM    8  N   UNL     1      28.362  38.561  49.858  1.00  0.00    -0.308 N 
HETATM    9  O   UNL     1      29.976  37.335  51.008  1.00  0.00    -0.245 OA
HETATM   10  H   UNL     1      27.829  39.406  49.992  1.00  0.00     0.170 HD
HETATM   11  H   UNL     1      29.972  39.250  52.554  1.00  0.00     0.192 HD
BRANCH   8  12
HETATM   12  C   UNL     1      27.982  37.706  48.808  1.00  0.00     0.036 A 
HETATM   13  C   UNL     1      26.894  36.834  48.873  1.00  0.00     0.029 A 
HETATM   14  C   UNL     1      26.578  36.014  47.786  1.00  0.00     0.002 A 
HETATM   15  C   UNL     1      27.345  36.060  46.625  1.00  0.00     0.000 A 
HETATM   16  C   UNL     1      28.436  36.922  46.552  1.00  0.00     0.002 A 
HETATM   17  C   UNL     1      28.755  37.738  47.641  1.00  0.00     0.029 A 
ENDBRANCH   8  12
ENDBRANCH   3   6
ENDBRANCH   1   2
BRANCH   1  18
HETATM   18  N   UNL     1      26.565  42.620  51.673  1.00  0.00    -0.343 N 
HETATM   19  C   UNL     1      25.353  43.258  51.797  1.00  0.00     0.259 C 
HETATM   20  O   UNL     1      25.105  43.941  52.791  1.00  0.00    -0.267 OA
HETATM   21  H   UNL     1      26.646  41.967  50.901  1.00  0.00     0.163 HD
BRANCH  19  22
HETATM   22  C   UNL     1      24.425  43.127  50.686  1.00  0.00     0.072 A 
HETATM   23  S   UNL     1      24.550  41.873  49.525  1.00  0.00    -0.097 SA
HETATM   24  C   UNL     1      23.219  42.468  48.633  1.00  0.00     0.050 A 
HETATM   25  C   UNL     1      22.672  43.591  49.211  1.00  0.00     0.009 A 
HETATM   26  C   UNL     1      23.366  43.969  50.396  1.00  0.00     0.025 A 
ENDBRANCH  19  22
ENDBRANCH   1  18
BRANCH   1  27
HETATM   27  C   UNL     1      28.667  43.608  52.687  1.00  0.00     0.076 C 
BRANCH  27  28
HETATM   28  C   UNL     1      28.739  44.414  53.950  1.00  0.00    -0.028 A 
HETATM   29  C   UNL     1      29.641  44.228  55.048  1.00  0.00    -0.002 A 
HETATM   30  C   UNL     1      29.340  45.198  56.004  1.00  0.00     0.042 A 
HETATM   31  C   UNL     1      30.682  43.318  55.323  1.00  0.00     0.014 A 
HETATM   32  C   UNL     1      30.033  45.310  57.216  1.00  0.00     0.030 A 
HETATM   33  N   UNL     1      28.288  45.937  55.517  1.00  0.00    -0.365 N 
HETATM   34  C   UNL     1      31.067  44.403  57.457  1.00  0.00     0.002 A 
HETATM   35  C   UNL     1      31.389  43.418  56.527  1.00  0.00     0.001 A 
HETATM   36  H   UNL     1      27.848  46.701  56.010  1.00  0.00     0.165 HD
HETATM   37  C   UNL     1      27.920  45.477  54.282  1.00  0.00     0.096 A 
ENDBRANCH  27  28
ENDBRANCH   1  27
TORSDOF 7
ENDMDL
MODEL 3
REMARK VINA RESULT:      -9.6      3.227      8.139
REMARK  7 active torsions:
REMARK  status: ('A' for Active; 'I' for Inactive)
REMARK    1  A    between atoms: C_4  and  N_5 
REMARK       I    between atoms: N_5  and  C_6 
REMARK       I    between atoms: C_6  and  N_7 
REMARK    2  A    between atoms: N_7  and  N_8 
REMARK       I    between atoms: N_8  and  C_9 
REMARK    3  A    between atoms: C_9  and  C_10 
REMARK    4  A    between atoms: C_10  and  N_11 
REMARK    5  A    between atoms: C_10  and  C_19 
REMARK       I    between atoms: N_11  and  C_12 
REMARK    6  A    between atoms: C_12  and  C_13 
REMARK    7  A    between atoms: C_19  and  C_20 
ROOT
HETATM    1  C   UNL     1      25.635  46.226  51.671  1.00  0.00     0.183 C 
ENDROOT
BRANCH   1   2
HETATM    2  C   UNL     1      25.758  46.874  53.068  1.00  0.00     0.259 C 
HETATM    3  N   UNL     1      26.725  46.337  53.896  1.00  0.00    -0.264 N 
HETATM    4  H   UNL     1      27.486  45.799  53.465  1.00  0.00     0.190 HD
HETATM    5  O   UNL     1      25.137  47.897  53.362  1.00  0.00    -0.269 OA
BRANCH   3   6
HETATM    6  N   UNL     1      27.047  47.036  55.067  1.00  0.00    -0.249 N 
HETATM    7  C   UNL     1      28.019  46.603  55.948  1.00  0.00     0.339 C 
HETATM    8  N   UNL     1      28.724  45.516  55.487  1.00  0.00    -0.308 N 
HETATM    9  O   UNL     1      28.172  47.186  57.015  1.00  0.00    -0.245 OA
HETATM   10  H   UNL     1      28.337  45.113  54.647  1.00  0.00     0.170 HD
HETATM   11  H   UNL     1      26.360  47.695  55.429  1.00  0.00     0.192 HD
BRANCH   8  12
HETATM   12  C   UNL     1      29.796  44.846  56.102  1.00  0.00     0.036 A 
HETATM   13  C   UNL     1      30.303  45.182  57.358  1.00  0.00     0.029 A 
HETATM   14  C   UNL     1      31.373  44.467  57.905  1.00  0.00     0.002 A 
HETATM   15  C   UNL     1      31.945  43.410  57.201  1.00  0.00     0.000 A 
HETATM   16  C   UNL     1      31.450  43.071  55.943  1.00  0.00     0.002 A 
HETATM   17  C   UNL     1      30.384  43.788  55.395  1.00  0.00     0.029 A 
ENDBRANCH   8  12
ENDBRANCH   3   6
ENDBRANCH   1   2
BRANCH   1  18
HETATM   18  N   UNL     1      24.917  47.042  50.678  1.00  0.00    -0.343 N 
HETATM   19  C   UNL     1      25.478  48.037  49.913  1.00  0.00     0.259 C 
HETATM   20  O   UNL     1      26.698  48.203  49.903  1.00  0.00    -0.267 OA
HETATM   21  H   UNL     1      23.904  47.051  50.746  1.00  0.00     0.163 HD
BRANCH  19  22
HETATM   22  C   UNL     1      24.573  48.824  49.092  1.00  0.00     0.072 A 
HETATM   23  S   UNL     1      22.909  48.446  48.934  1.00  0.00    -0.097 SA
HETATM   24  C   UNL     1      22.648  49.732  47.838  1.00  0.00     0.050 A 
HETATM   25  C   UNL     1      23.798  50.452  47.604  1.00  0.00     0.009 A 
HETATM   26  C   UNL     1      24.907  49.929  48.329  1.00  0.00     0.025 A 
ENDBRANCH  19  22
ENDBRANCH   1  18
BRANCH   1  27
HETATM   27  C   UNL     1      25.106  44.790  51.826  1.00  0.00     0.076 C 
BRANCH  27  28
HETATM   28  C   UNL     1      26.025  43.762  51.235  1.00  0.00    -0.028 A 
HETATM   29  C   UNL     1      26.916  42.889  51.940  1.00  0.00    -0.002 A 
HETATM   30  C   UNL     1      27.578  42.111  50.988  1.00  0.00     0.042 A 
HETATM   31  C   UNL     1      27.231  42.691  53.300  1.00  0.00     0.014 A 
HETATM   32  C   UNL     1      28.528  41.141  51.329  1.00  0.00     0.030 A 
HETATM   33  N   UNL     1      27.120  42.504  49.754  1.00  0.00    -0.365 N 
HETATM   34  C   UNL     1      28.812  40.958  52.684  1.00  0.00     0.002 A 
HETATM   35  C   UNL     1      28.175  41.722  53.659  1.00  0.00     0.001 A 
HETATM   36  H   UNL     1      27.440  42.120  48.875  1.00  0.00     0.165 HD
HETATM   37  C   UNL     1      26.184  43.493  49.889  1.00  0.00     0.096 A 
ENDBRANCH  27  28
ENDBRANCH   1  27
TORSDOF 7
ENDMDL
MODEL 4
REMARK VINA RESULT:      -9.6      4.264      7.114
REMARK  7 active torsions:
REMARK  status: ('A' for Active; 'I' for Inactive)
REMARK    1  A    between atoms: C_4  and  N_5 
REMARK       I    between atoms: N_5  and  C_6 
REMARK       I    between atoms: C_6  and  N_7 
REMARK    2  A    between atoms: N_7  and  N_8 
REMARK       I    between atoms: N_8  and  C_9 
REMARK    3  A    between atoms: C_9  and  C_10 
REMARK    4  A    between atoms: C_10  and  N_11 
REMARK    5  A    between atoms: C_10  and  C_19 
REMARK       I    between atoms: N_11  and  C_12 
REMARK    6  A    between atoms: C_12  and  C_13 
REMARK    7  A    between atoms: C_19  and  C_20 
ROOT
HETATM    1  C   UNL     1      27.696  43.238  53.141  1.00  0.00     0.183 C 
ENDROOT
BRANCH   1   2
HETATM    2  C   UNL     1      27.843  41.749  52.757  1.00  0.00     0.259 C 
HETATM    3  N   UNL     1      28.202  41.499  51.446  1.00  0.00    -0.264 N 
HETATM    4  H   UNL     1      28.648  42.255  50.915  1.00  0.00     0.190 HD
HETATM    5  O   UNL     1      27.792  40.856  53.605  1.00  0.00    -0.269 OA
BRANCH   3   6
HETATM    6  N   UNL     1      28.588  40.194  51.110  1.00  0.00    -0.249 N 
HETATM    7  C   UNL     1      28.336  39.641  49.870  1.00  0.00     0.339 C 
HETATM    8  N   UNL     1      27.809  40.539  48.972  1.00  0.00    -0.308 N 
HETATM    9  O   UNL     1      28.585  38.456  49.673  1.00  0.00    -0.245 OA
HETATM   10  H   UNL     1      27.557  41.422  49.388  1.00  0.00     0.170 HD
HETATM   11  H   UNL     1      28.780  39.546  51.872  1.00  0.00     0.192 HD
BRANCH   8  12
HETATM   12  C   UNL     1      27.471  40.329  47.623  1.00  0.00     0.036 A 
HETATM   13  C   UNL     1      26.402  39.534  47.207  1.00  0.00     0.029 A 
HETATM   14  C   UNL     1      26.126  39.374  45.845  1.00  0.00     0.002 A 
HETATM   15  C   UNL     1      26.916  40.008  44.890  1.00  0.00     0.000 A 
HETATM   16  C   UNL     1      27.989  40.798  45.294  1.00  0.00     0.002 A 
HETATM   17  C   UNL     1      28.267  40.954  46.655  1.00  0.00     0.029 A 
ENDBRANCH   8  12
ENDBRANCH   3   6
ENDBRANCH   1   2
BRANCH   1  18
HETATM   18  N   UNL     1      26.870  44.031  52.215  1.00  0.00    -0.343 N 
HETATM   19  C   UNL     1      25.548  44.353  52.410  1.00  0.00     0.259 C 
HETATM   20  O   UNL     1      25.000  44.119  53.487  1.00  0.00    -0.267 OA
HETATM   21  H   UNL     1      27.215  44.124  51.265  1.00  0.00     0.163 HD
BRANCH  19  22
HETATM   22  C   UNL     1      24.867  45.023  51.314  1.00  0.00     0.072 A 
HETATM   23  S   UNL     1      23.904  44.179  50.175  1.00  0.00    -0.097 SA
HETATM   24  C   UNL     1      23.574  45.604  49.290  1.00  0.00     0.050 A 
HETATM   25  C   UNL     1      24.169  46.710  49.854  1.00  0.00     0.009 A 
HETATM   26  C   UNL     1      24.912  46.375  51.022  1.00  0.00     0.025 A 
ENDBRANCH  19  22
ENDBRANCH   1  18
BRANCH   1  27
HETATM   27  C   UNL     1      29.089  43.826  53.423  1.00  0.00     0.076 C 
BRANCH  27  28
HETATM   28  C   UNL     1      29.127  44.671  54.662  1.00  0.00    -0.028 A 
HETATM   29  C   UNL     1      29.989  44.511  55.795  1.00  0.00    -0.002 A 
HETATM   30  C   UNL     1      29.667  45.514  56.710  1.00  0.00     0.042 A 
HETATM   31  C   UNL     1      31.010  43.601  56.134  1.00  0.00     0.014 A 
HETATM   32  C   UNL     1      30.320  45.659  57.940  1.00  0.00     0.030 A 
HETATM   33  N   UNL     1      28.640  46.247  56.164  1.00  0.00    -0.365 N 
HETATM   34  C   UNL     1      31.336  44.750  58.245  1.00  0.00     0.002 A 
HETATM   35  C   UNL     1      31.678  43.733  57.358  1.00  0.00     0.001 A 
HETATM   36  H   UNL     1      28.192  47.032  56.618  1.00  0.00     0.165 HD
HETATM   37  C   UNL     1      28.309  45.752  54.932  1.00  0.00     0.096 A 
ENDBRANCH  27  28
ENDBRANCH   1  27
TORSDOF 7
ENDMDL
MODEL 5
REMARK VINA RESULT:      -9.6      1.862      2.198
REMARK  7 active torsions:
REMARK  status: ('A' for Active; 'I' for Inactive)
REMARK    1  A    between atoms: C_4  and  N_5 
REMARK       I    between atoms: N_5  and  C_6 
REMARK       I    between atoms: C_6  and  N_7 
REMARK    2  A    between atoms: N_7  and  N_8 
REMARK       I    between atoms: N_8  and  C_9 
REMARK    3  A    between atoms: C_9  and  C_10 
REMARK    4  A    between atoms: C_10  and  N_11 
REMARK    5  A    between atoms: C_10  and  C_19 
REMARK       I    between atoms: N_11  and  C_12 
REMARK    6  A    between atoms: C_12  and  C_13 
REMARK    7  A    between atoms: C_19  and  C_20 
ROOT
HETATM    1  C   UNL     1      24.993  44.578  50.105  1.00  0.00     0.183 C 
ENDROOT
BRANCH   1   2
HETATM    2  C   UNL     1      23.452  44.540  50.014  1.00  0.00     0.259 C 
HETATM    3  N   UNL     1      22.866  45.575  49.309  1.00  0.00    -0.264 N 
HETATM    4  H   UNL     1      23.449  46.097  48.644  1.00  0.00     0.190 HD
HETATM    5  O   UNL     1      22.805  43.570  50.415  1.00  0.00    -0.269 OA
BRANCH   3   6
HETATM    6  N   UNL     1      21.507  45.461  48.986  1.00  0.00    -0.249 N 
HETATM    7  C   UNL     1      20.648  46.542  48.994  1.00  0.00     0.339 C 
HETATM    8  N   UNL     1      21.287  47.741  49.205  1.00  0.00    -0.308 N 
HETATM    9  O   UNL     1      19.447  46.362  48.824  1.00  0.00    -0.245 OA
HETATM   10  H   UNL     1      22.257  47.640  49.460  1.00  0.00     0.170 HD
HETATM   11  H   UNL     1      21.083  44.537  49.042  1.00  0.00     0.192 HD
BRANCH   8  12
HETATM   12  C   UNL     1      20.732  49.033  49.238  1.00  0.00     0.036 A 
HETATM   13  C   UNL     1      19.639  49.387  50.031  1.00  0.00     0.029 A 
HETATM   14  C   UNL     1      19.143  50.694  50.011  1.00  0.00     0.002 A 
HETATM   15  C   UNL     1      19.736  51.658  49.199  1.00  0.00     0.000 A 
HETATM   16  C   UNL     1      20.824  51.313  48.400  1.00  0.00     0.002 A 
HETATM   17  C   UNL     1      21.316  50.005  48.417  1.00  0.00     0.029 A 
ENDBRANCH   8  12
ENDBRANCH   3   6
ENDBRANCH   1   2
BRANCH   1  18
HETATM   18  N   UNL     1      25.604  45.840  49.657  1.00  0.00    -0.343 N 
HETATM   19  C   UNL     1      25.466  47.055  50.287  1.00  0.00     0.259 C 
HETATM   20  O   UNL     1      24.929  47.128  51.392  1.00  0.00    -0.267 OA
HETATM   21  H   UNL     1      25.927  45.872  48.696  1.00  0.00     0.163 HD
BRANCH  19  22
HETATM   22  C   UNL     1      26.029  48.213  49.610  1.00  0.00     0.072 A 
HETATM   23  S   UNL     1      25.072  49.301  48.696  1.00  0.00    -0.097 SA
HETATM   24  C   UNL     1      26.432  50.234  48.250  1.00  0.00     0.050 A 
HETATM   25  C   UNL     1      27.596  49.743  48.796  1.00  0.00     0.009 A 
HETATM   26  C   UNL     1      27.362  48.579  49.583  1.00  0.00     0.025 A 
ENDBRANCH  19  22
ENDBRANCH   1  18
BRANCH   1  27
HETATM   27  C   UNL     1      25.569  43.315  49.440  1.00  0.00     0.076 C 
BRANCH  27  28
HETATM   28  C   UNL     1      26.154  42.350  50.428  1.00  0.00    -0.028 A 
HETATM   29  C   UNL     1      27.209  42.600  51.365  1.00  0.00    -0.002 A 
HETATM   30  C   UNL     1      27.430  41.417  52.071  1.00  0.00     0.042 A 
HETATM   31  C   UNL     1      28.006  43.721  51.673  1.00  0.00     0.014 A 
HETATM   32  C   UNL     1      28.398  41.302  53.076  1.00  0.00     0.030 A 
HETATM   33  N   UNL     1      26.555  40.479  51.576  1.00  0.00    -0.365 N 
HETATM   34  C   UNL     1      29.166  42.432  53.369  1.00  0.00     0.002 A 
HETATM   35  C   UNL     1      28.976  43.626  52.679  1.00  0.00     0.001 A 
HETATM   36  H   UNL     1      26.504  39.520  51.892  1.00  0.00     0.165 HD
HETATM   37  C   UNL     1      25.781  41.029  50.590  1.00  0.00     0.096 A 
ENDBRANCH  27  28
ENDBRANCH   1  27
TORSDOF 7
ENDMDL
MODEL 6
REMARK VINA RESULT:      -9.5      2.891      4.464
REMARK  7 active torsions:
REMARK  status: ('A' for Active; 'I' for Inactive)
REMARK    1  A    between atoms: C_4  and  N_5 
REMARK       I    between atoms: N_5  and  C_6 
REMARK       I    between atoms: C_6  and  N_7 
REMARK    2  A    between atoms: N_7  and  N_8 
REMARK       I    between atoms: N_8  and  C_9 
REMARK    3  A    between atoms: C_9  and  C_10 
REMARK    4  A    between atoms: C_10  and  N_11 
REMARK    5  A    between atoms: C_10  and  C_19 
REMARK       I    between atoms: N_11  and  C_12 
REMARK    6  A    between atoms: C_12  and  C_13 
REMARK    7  A    between atoms: C_19  and  C_20 
ROOT
HETATM    1  C   UNL     1      25.715  43.920  51.739  1.00  0.00     0.183 C 
ENDROOT
BRANCH   1   2
HETATM    2  C   UNL     1      24.380  44.034  50.972  1.00  0.00     0.259 C 
HETATM    3  N   UNL     1      24.358  44.950  49.937  1.00  0.00    -0.264 N 
HETATM    4  H   UNL     1      25.254  45.248  49.537  1.00  0.00     0.190 HD
HETATM    5  O   UNL     1      23.450  43.251  51.176  1.00  0.00    -0.269 OA
BRANCH   3   6
HETATM    6  N   UNL     1      23.266  44.919  49.058  1.00  0.00    -0.249 N 
HETATM    7  C   UNL     1      22.576  46.057  48.691  1.00  0.00     0.339 C 
HETATM    8  N   UNL     1      23.154  47.216  49.153  1.00  0.00    -0.308 N 
HETATM    9  O   UNL     1      21.555  45.956  48.018  1.00  0.00    -0.245 OA
HETATM   10  H   UNL     1      23.909  47.057  49.803  1.00  0.00     0.170 HD
HETATM   11  H   UNL     1      22.787  44.030  48.928  1.00  0.00     0.192 HD
BRANCH   8  12
HETATM   12  C   UNL     1      22.743  48.544  48.939  1.00  0.00     0.036 A 
HETATM   13  C   UNL     1      21.469  49.021  49.252  1.00  0.00     0.029 A 
HETATM   14  C   UNL     1      21.135  50.357  49.010  1.00  0.00     0.002 A 
HETATM   15  C   UNL     1      22.070  51.226  48.454  1.00  0.00     0.000 A 
HETATM   16  C   UNL     1      23.342  50.758  48.132  1.00  0.00     0.002 A 
HETATM   17  C   UNL     1      23.674  49.421  48.369  1.00  0.00     0.029 A 
ENDBRANCH   8  12
ENDBRANCH   3   6
ENDBRANCH   1   2
BRANCH   1  18
HETATM   18  N   UNL     1      26.546  42.766  51.357  1.00  0.00    -0.343 N 
HETATM   19  C   UNL     1      27.111  42.571  50.119  1.00  0.00     0.259 C 
HETATM   20  O   UNL     1      27.081  43.463  49.271  1.00  0.00    -0.267 OA
HETATM   21  H   UNL     1      26.484  41.947  51.952  1.00  0.00     0.163 HD
BRANCH  19  22
HETATM   22  C   UNL     1      27.779  41.299  49.895  1.00  0.00     0.072 A 
HETATM   23  S   UNL     1      28.094  40.688  48.326  1.00  0.00    -0.097 SA
HETATM   24  C   UNL     1      28.785  39.253  48.945  1.00  0.00     0.050 A 
HETATM   25  C   UNL     1      28.795  39.237  50.322  1.00  0.00     0.009 A 
HETATM   26  C   UNL     1      28.216  40.419  50.869  1.00  0.00     0.025 A 
ENDBRANCH  19  22
ENDBRANCH   1  18
BRANCH   1  27
HETATM   27  C   UNL     1      25.442  44.044  53.248  1.00  0.00     0.076 C 
BRANCH  27  28
HETATM   28  C   UNL     1      26.523  44.784  53.979  1.00  0.00    -0.028 A 
HETATM   29  C   UNL     1      27.805  44.281  54.373  1.00  0.00    -0.002 A 
HETATM   30  C   UNL     1      28.474  45.313  55.033  1.00  0.00     0.042 A 
HETATM   31  C   UNL     1      28.459  43.039  54.240  1.00  0.00     0.014 A 
HETATM   32  C   UNL     1      29.765  45.169  55.555  1.00  0.00     0.030 A 
HETATM   33  N   UNL     1      27.629  46.397  55.053  1.00  0.00    -0.365 N 
HETATM   34  C   UNL     1      30.394  43.931  55.398  1.00  0.00     0.002 A 
HETATM   35  C   UNL     1      29.752  42.878  54.752  1.00  0.00     0.001 A 
HETATM   36  H   UNL     1      27.847  47.285  55.484  1.00  0.00     0.165 HD
HETATM   37  C   UNL     1      26.455  46.092  54.420  1.00  0.00     0.096 A 
ENDBRANCH  27  28
ENDBRANCH   1  27
TORSDOF 7
ENDMDL
MODEL 7
REMARK VINA RESULT:      -9.3      2.259      5.965
REMARK  7 active torsions:
REMARK  status: ('A' for Active; 'I' for Inactive)
REMARK    1  A    between atoms: C_4  and  N_5 
REMARK       I    between atoms: N_5  and  C_6 
REMARK       I    between atoms: C_6  and  N_7 
REMARK    2  A    between atoms: N_7  and  N_8 
REMARK       I    between atoms: N_8  and  C_9 
REMARK    3  A    between atoms: C_9  and  C_10 
REMARK    4  A    between atoms: C_10  and  N_11 
REMARK    5  A    between atoms: C_10  and  C_19 
REMARK       I    between atoms: N_11  and  C_12 
REMARK    6  A    between atoms: C_12  and  C_13 
REMARK    7  A    between atoms: C_19  and  C_20 
ROOT
HETATM    1  C   UNL     1      25.116  45.280  50.560  1.00  0.00     0.183 C 
ENDROOT
BRANCH   1   2
HETATM    2  C   UNL     1      23.717  44.643  50.410  1.00  0.00     0.259 C 
HETATM    3  N   UNL     1      22.880  45.242  49.488  1.00  0.00    -0.264 N 
HETATM    4  H   UNL     1      23.304  45.828  48.759  1.00  0.00     0.190 HD
HETATM    5  O   UNL     1      23.428  43.582  50.966  1.00  0.00    -0.269 OA
BRANCH   3   6
HETATM    6  N   UNL     1      21.704  44.566  49.134  1.00  0.00    -0.249 N 
HETATM    7  C   UNL     1      20.515  45.223  48.884  1.00  0.00     0.339 C 
HETATM    8  N   UNL     1      20.643  46.593  48.876  1.00  0.00    -0.308 N 
HETATM    9  O   UNL     1      19.492  44.574  48.700  1.00  0.00    -0.245 OA
HETATM   10  H   UNL     1      21.547  46.913  49.190  1.00  0.00     0.170 HD
HETATM   11  H   UNL     1      21.642  43.575  49.357  1.00  0.00     0.192 HD
BRANCH   8  12
HETATM   12  C   UNL     1      19.656  47.561  48.622  1.00  0.00     0.036 A 
HETATM   13  C   UNL     1      19.198  47.885  47.344  1.00  0.00     0.029 A 
HETATM   14  C   UNL     1      18.211  48.860  47.171  1.00  0.00     0.002 A 
HETATM   15  C   UNL     1      17.673  49.518  48.273  1.00  0.00     0.000 A 
HETATM   16  C   UNL     1      18.127  49.207  49.553  1.00  0.00     0.002 A 
HETATM   17  C   UNL     1      19.117  48.235  49.725  1.00  0.00     0.029 A 
ENDBRANCH   8  12
ENDBRANCH   3   6
ENDBRANCH   1   2
BRANCH   1  18
HETATM   18  N   UNL     1      26.098  44.445  51.270  1.00  0.00    -0.343 N 
HETATM   19  C   UNL     1      26.975  43.570  50.673  1.00  0.00     0.259 C 
HETATM   20  O   UNL     1      27.101  43.551  49.448  1.00  0.00    -0.267 OA
HETATM   21  H   UNL     1      25.944  44.310  52.264  1.00  0.00     0.163 HD
BRANCH  19  22
HETATM   22  C   UNL     1      27.768  42.730  51.556  1.00  0.00     0.072 A 
HETATM   23  S   UNL     1      27.986  41.053  51.280  1.00  0.00    -0.097 SA
HETATM   24  C   UNL     1      28.913  40.867  52.704  1.00  0.00     0.050 A 
HETATM   25  C   UNL     1      29.073  42.058  53.375  1.00  0.00     0.009 A 
HETATM   26  C   UNL     1      28.414  43.133  52.711  1.00  0.00     0.025 A 
ENDBRANCH  19  22
ENDBRANCH   1  18
BRANCH   1  27
HETATM   27  C   UNL     1      24.964  46.706  51.117  1.00  0.00     0.076 C 
BRANCH  27  28
HETATM   28  C   UNL     1      25.365  47.764  50.132  1.00  0.00    -0.028 A 
HETATM   29  C   UNL     1      24.501  48.658  49.420  1.00  0.00    -0.002 A 
HETATM   30  C   UNL     1      25.307  49.461  48.611  1.00  0.00     0.042 A 
HETATM   31  C   UNL     1      23.106  48.856  49.379  1.00  0.00     0.014 A 
HETATM   32  C   UNL     1      24.789  50.457  47.773  1.00  0.00     0.030 A 
HETATM   33  N   UNL     1      26.607  49.064  48.811  1.00  0.00    -0.365 N 
HETATM   34  C   UNL     1      23.404  50.638  47.761  1.00  0.00     0.002 A 
HETATM   35  C   UNL     1      22.571  49.850  48.551  1.00  0.00     0.001 A 
HETATM   36  H   UNL     1      27.408  49.462  48.339  1.00  0.00     0.165 HD
HETATM   37  C   UNL     1      26.656  48.047  49.725  1.00  0.00     0.096 A 
ENDBRANCH  27  28
ENDBRANCH   1  27
TORSDOF 7
ENDMDL
MODEL 8
REMARK VINA RESULT:      -9.3      2.736      9.301
REMARK  7 active torsions:
REMARK  status: ('A' for Active; 'I' for Inactive)
REMARK    1  A    between atoms: C_4  and  N_5 
REMARK       I    between atoms: N_5  and  C_6 
REMARK       I    between atoms: C_6  and  N_7 
REMARK    2  A    between atoms: N_7  and  N_8 
REMARK       I    between atoms: N_8  and  C_9 
REMARK    3  A    between atoms: C_9  and  C_10 
REMARK    4  A    between atoms: C_10  and  N_11 
REMARK    5  A    between atoms: C_10  and  C_19 
REMARK       I    between atoms: N_11  and  C_12 
REMARK    6  A    between atoms: C_12  and  C_13 
REMARK    7  A    between atoms: C_19  and  C_20 
ROOT
HETATM    1  C   UNL     1      25.155  45.672  50.645  1.00  0.00     0.183 C 
ENDROOT
BRANCH   1   2
HETATM    2  C   UNL     1      25.528  46.775  51.661  1.00  0.00     0.259 C 
HETATM    3  N   UNL     1      25.423  46.424  52.994  1.00  0.00    -0.264 N 
HETATM    4  H   UNL     1      25.426  45.425  53.232  1.00  0.00     0.190 HD
HETATM    5  O   UNL     1      26.028  47.842  51.301  1.00  0.00    -0.269 OA
BRANCH   3   6
HETATM    6  N   UNL     1      25.978  47.290  53.946  1.00  0.00    -0.249 N 
HETATM    7  C   UNL     1      27.063  46.941  54.725  1.00  0.00     0.339 C 
HETATM    8  N   UNL     1      27.620  45.735  54.372  1.00  0.00    -0.308 N 
HETATM    9  O   UNL     1      27.428  47.690  55.625  1.00  0.00    -0.245 OA
HETATM   10  H   UNL     1      27.074  45.223  53.696  1.00  0.00     0.170 HD
HETATM   11  H   UNL     1      25.399  48.058  54.281  1.00  0.00     0.192 HD
BRANCH   8  12
HETATM   12  C   UNL     1      28.746  45.097  54.923  1.00  0.00     0.036 A 
HETATM   13  C   UNL     1      29.455  45.587  56.021  1.00  0.00     0.029 A 
HETATM   14  C   UNL     1      30.566  44.896  56.513  1.00  0.00     0.002 A 
HETATM   15  C   UNL     1      30.976  43.708  55.912  1.00  0.00     0.000 A 
HETATM   16  C   UNL     1      30.280  43.214  54.812  1.00  0.00     0.002 A 
HETATM   17  C   UNL     1      29.172  43.908  54.318  1.00  0.00     0.029 A 
ENDBRANCH   8  12
ENDBRANCH   3   6
ENDBRANCH   1   2
BRANCH   1  18
HETATM   18  N   UNL     1      26.042  44.498  50.662  1.00  0.00    -0.343 N 
HETATM   19  C   UNL     1      25.643  43.206  50.916  1.00  0.00     0.259 C 
HETATM   20  O   UNL     1      24.447  42.926  50.993  1.00  0.00    -0.267 OA
HETATM   21  H   UNL     1      27.036  44.681  50.750  1.00  0.00     0.163 HD
BRANCH  19  22
HETATM   22  C   UNL     1      26.692  42.205  51.028  1.00  0.00     0.072 A 
HETATM   23  S   UNL     1      27.127  41.179  49.727  1.00  0.00    -0.097 SA
HETATM   24  C   UNL     1      28.289  40.355  50.672  1.00  0.00     0.050 A 
HETATM   25  C   UNL     1      28.363  40.857  51.951  1.00  0.00     0.009 A 
HETATM   26  C   UNL     1      27.443  41.926  52.155  1.00  0.00     0.025 A 
ENDBRANCH  19  22
ENDBRANCH   1  18
BRANCH   1  27
HETATM   27  C   UNL     1      24.959  46.310  49.259  1.00  0.00     0.076 C 
BRANCH  27  28
HETATM   28  C   UNL     1      23.593  46.902  49.076  1.00  0.00    -0.028 A 
HETATM   29  C   UNL     1      23.266  48.285  48.891  1.00  0.00    -0.002 A 
HETATM   30  C   UNL     1      21.878  48.373  48.772  1.00  0.00     0.042 A 
HETATM   31  C   UNL     1      24.019  49.475  48.823  1.00  0.00     0.014 A 
HETATM   32  C   UNL     1      21.208  49.587  48.578  1.00  0.00     0.030 A 
HETATM   33  N   UNL     1      21.379  47.098  48.894  1.00  0.00    -0.365 N 
HETATM   34  C   UNL     1      21.980  50.749  48.502  1.00  0.00     0.002 A 
HETATM   35  C   UNL     1      23.366  50.697  48.624  1.00  0.00     0.001 A 
HETATM   36  H   UNL     1      20.396  46.862  48.865  1.00  0.00     0.165 HD
HETATM   37  C   UNL     1      22.400  46.205  49.074  1.00  0.00     0.096 A 
ENDBRANCH  27  28
ENDBRANCH   1  27
TORSDOF 7
ENDMDL
MODEL 9
REMARK VINA RESULT:      -9.3      3.269      6.509
REMARK  7 active torsions:
REMARK  status: ('A' for Active; 'I' for Inactive)
REMARK    1  A    between atoms: C_4  and  N_5 
REMARK       I    between atoms: N_5  and  C_6 
REMARK       I    between atoms: C_6  and  N_7 
REMARK    2  A    between atoms: N_7  and  N_8 
REMARK       I    between atoms: N_8  and  C_9 
REMARK    3  A    between atoms: C_9  and  C_10 
REMARK    4  A    between atoms: C_10  and  N_11 
REMARK    5  A    between atoms: C_10  and  C_19 
REMARK       I    between atoms: N_11  and  C_12 
REMARK    6  A    between atoms: C_12  and  C_13 
REMARK    7  A    between atoms: C_19  and  C_20 
ROOT
HETATM    1  C   UNL     1      25.771  44.747  51.015  1.00  0.00     0.183 C 
ENDROOT
BRANCH   1   2
HETATM    2  C   UNL     1      24.882  43.680  50.338  1.00  0.00     0.259 C 
HETATM    3  N   UNL     1      25.220  43.353  49.039  1.00  0.00    -0.264 N 
HETATM    4  H   UNL     1      26.172  43.567  48.719  1.00  0.00     0.190 HD
HETATM    5  O   UNL     1      24.027  43.057  50.971  1.00  0.00    -0.269 OA
BRANCH   3   6
HETATM    6  N   UNL     1      24.612  42.227  48.467  1.00  0.00    -0.249 N 
HETATM    7  C   UNL     1      25.286  41.039  48.267  1.00  0.00     0.339 C 
HETATM    8  N   UNL     1      26.548  41.032  48.814  1.00  0.00    -0.308 N 
HETATM    9  O   UNL     1      24.741  40.129  47.652  1.00  0.00    -0.245 OA
HETATM   10  H   UNL     1      26.844  41.935  49.152  1.00  0.00     0.170 HD
HETATM   11  H   UNL     1      23.767  42.373  47.918  1.00  0.00     0.192 HD
BRANCH   8  12
HETATM   12  C   UNL     1      27.488  39.986  48.831  1.00  0.00     0.036 A 
HETATM   13  C   UNL     1      27.836  39.238  47.705  1.00  0.00     0.029 A 
HETATM   14  C   UNL     1      28.781  38.212  47.801  1.00  0.00     0.002 A 
HETATM   15  C   UNL     1      29.386  37.927  49.022  1.00  0.00     0.000 A 
HETATM   16  C   UNL     1      29.041  38.663  50.153  1.00  0.00     0.002 A 
HETATM   17  C   UNL     1      28.093  39.685  50.058  1.00  0.00     0.029 A 
ENDBRANCH   8  12
ENDBRANCH   3   6
ENDBRANCH   1   2
BRANCH   1  18
HETATM   18  N   UNL     1      25.962  45.976  50.228  1.00  0.00    -0.343 N 
HETATM   19  C   UNL     1      25.470  47.216  50.562  1.00  0.00     0.259 C 
HETATM   20  O   UNL     1      24.954  47.408  51.663  1.00  0.00    -0.267 OA
HETATM   21  H   UNL     1      26.244  45.855  49.261  1.00  0.00     0.163 HD
BRANCH  19  22
HETATM   22  C   UNL     1      25.644  48.277  49.582  1.00  0.00     0.072 A 
HETATM   23  S   UNL     1      27.189  48.849  49.110  1.00  0.00    -0.097 SA
HETATM   24  C   UNL     1      26.513  50.026  48.070  1.00  0.00     0.050 A 
HETATM   25  C   UNL     1      25.138  49.980  48.063  1.00  0.00     0.009 A 
HETATM   26  C   UNL     1      24.637  48.969  48.934  1.00  0.00     0.025 A 
ENDBRANCH  19  22
ENDBRANCH   1  18
BRANCH   1  27
HETATM   27  C   UNL     1      27.073  44.086  51.499  1.00  0.00     0.076 C 
BRANCH  27  28
HETATM   28  C   UNL     1      27.515  44.581  52.844  1.00  0.00    -0.028 A 
HETATM   29  C   UNL     1      28.651  44.142  53.599  1.00  0.00    -0.002 A 
HETATM   30  C   UNL     1      28.667  44.870  54.789  1.00  0.00     0.042 A 
HETATM   31  C   UNL     1      29.665  43.186  53.387  1.00  0.00     0.014 A 
HETATM   32  C   UNL     1      29.651  44.698  55.771  1.00  0.00     0.030 A 
HETATM   33  N   UNL     1      27.578  45.708  54.768  1.00  0.00    -0.365 N 
HETATM   34  C   UNL     1      30.650  43.752  55.529  1.00  0.00     0.002 A 
HETATM   35  C   UNL     1      30.659  43.004  54.355  1.00  0.00     0.001 A 
HETATM   36  H   UNL     1      27.329  46.343  55.515  1.00  0.00     0.165 HD
HETATM   37  C   UNL     1      26.879  45.546  53.603  1.00  0.00     0.096 A 
ENDBRANCH  27  28
ENDBRANCH   1  27
TORSDOF 7
ENDMDL
MODEL 10
REMARK VINA RESULT:      -9.1      2.793      4.334
REMARK  7 active torsions:
REMARK  status: ('A' for Active; 'I' for Inactive)
REMARK    1  A    between atoms: C_4  and  N_5 
REMARK       I    between atoms: N_5  and  C_6 
REMARK       I    between atoms: C_6  and  N_7 
REMARK    2  A    between atoms: N_7  and  N_8 
REMARK       I    between atoms: N_8  and  C_9 
REMARK    3  A    between atoms: C_9  and  C_10 
REMARK    4  A    between atoms: C_10  and  N_11 
REMARK    5  A    between atoms: C_10  and  C_19 
REMARK       I    between atoms: N_11  and  C_12 
REMARK    6  A    between atoms: C_12  and  C_13 
REMARK    7  A    between atoms: C_19  and  C_20 
ROOT
HETATM    1  C   UNL     1      25.897  46.377  51.079  1.00  0.00     0.183 C 
ENDROOT
BRANCH   1   2
HETATM    2  C   UNL     1      25.880  47.566  50.094  1.00  0.00     0.259 C 
HETATM    3  N   UNL     1      24.631  47.970  49.662  1.00  0.00    -0.264 N 
HETATM    4  H   UNL     1      23.816  47.705  50.226  1.00  0.00     0.190 HD
HETATM    5  O   UNL     1      26.903  48.203  49.833  1.00  0.00    -0.269 OA
BRANCH   3   6
HETATM    6  N   UNL     1      24.538  49.186  48.971  1.00  0.00    -0.249 N 
HETATM    7  C   UNL     1      23.346  49.867  48.821  1.00  0.00     0.339 C 
HETATM    8  N   UNL     1      22.310  49.310  49.533  1.00  0.00    -0.308 N 
HETATM    9  O   UNL     1      23.302  50.860  48.103  1.00  0.00    -0.245 OA
HETATM   10  H   UNL     1      22.538  48.417  49.943  1.00  0.00     0.170 HD
HETATM   11  H   UNL     1      25.284  49.418  48.318  1.00  0.00     0.192 HD
BRANCH   8  12
HETATM   12  C   UNL     1      20.982  49.760  49.639  1.00  0.00     0.036 A 
HETATM   13  C   UNL     1      20.630  51.088  49.885  1.00  0.00     0.029 A 
HETATM   14  C   UNL     1      19.285  51.459  49.977  1.00  0.00     0.002 A 
HETATM   15  C   UNL     1      18.281  50.506  49.821  1.00  0.00     0.000 A 
HETATM   16  C   UNL     1      18.622  49.177  49.582  1.00  0.00     0.002 A 
HETATM   17  C   UNL     1      19.966  48.805  49.496  1.00  0.00     0.029 A 
ENDBRANCH   8  12
ENDBRANCH   3   6
ENDBRANCH   1   2
BRANCH   1  18
HETATM   18  N   UNL     1      25.270  45.147  50.568  1.00  0.00    -0.343 N 
HETATM   19  C   UNL     1      25.878  44.231  49.742  1.00  0.00     0.259 C 
HETATM   20  O   UNL     1      27.083  44.312  49.499  1.00  0.00    -0.267 OA
HETATM   21  H   UNL     1      24.258  45.102  50.612  1.00  0.00     0.163 HD
BRANCH  19  22
HETATM   22  C   UNL     1      25.046  43.154  49.230  1.00  0.00     0.072 A 
HETATM   23  S   UNL     1      23.334  43.226  49.245  1.00  0.00    -0.097 SA
HETATM   24  C   UNL     1      23.191  41.660  48.577  1.00  0.00     0.050 A 
HETATM   25  C   UNL     1      24.419  41.090  48.329  1.00  0.00     0.009 A 
HETATM   26  C   UNL     1      25.489  41.954  48.703  1.00  0.00     0.025 A 
ENDBRANCH  19  22
ENDBRANCH   1  18
BRANCH   1  27
HETATM   27  C   UNL     1      25.370  46.846  52.445  1.00  0.00     0.076 C 
BRANCH  27  28
HETATM   28  C   UNL     1      26.407  46.780  53.527  1.00  0.00    -0.028 A 
HETATM   29  C   UNL     1      27.313  45.702  53.795  1.00  0.00    -0.002 A 
HETATM   30  C   UNL     1      28.087  46.073  54.896  1.00  0.00     0.042 A 
HETATM   31  C   UNL     1      27.541  44.440  53.212  1.00  0.00     0.014 A 
HETATM   32  C   UNL     1      29.085  45.250  55.434  1.00  0.00     0.030 A 
HETATM   33  N   UNL     1      27.662  47.319  55.291  1.00  0.00    -0.365 N 
HETATM   34  C   UNL     1      29.298  44.009  54.828  1.00  0.00     0.002 A 
HETATM   35  C   UNL     1      28.537  43.606  53.733  1.00  0.00     0.001 A 
HETATM   36  H   UNL     1      28.037  47.829  56.079  1.00  0.00     0.165 HD
HETATM   37  C   UNL     1      26.655  47.756  54.474  1.00  0.00     0.096 A 
ENDBRANCH  27  28
ENDBRANCH   1  27
TORSDOF 7
ENDMDL
