MODEL 1
REMARK VINA RESULT:     -10.7      0.000      0.000
REMARK  6 active torsions:
REMARK  status: ('A' for Active; 'I' for Inactive)
REMARK    1  A    between atoms: N_9  and  C_10 
REMARK    2  A    between atoms: C_10  and  C_11 
REMARK       I    between atoms: C_11  and  N_12 
REMARK    3  A    between atoms: N_12  and  C_13 
REMARK    4  A    between atoms: C_16  and  C_17 
REMARK       I    between atoms: C_17  and  N_18 
REMARK    5  A    between atoms: N_18  and  C_19 
REMARK    6  A    between atoms: C_20  and  O_21 
ROOT
HETATM    1  C   UNL     1      23.968  47.141  49.534  1.00  0.00     0.240 C 
HETATM    2  N   UNL     1      24.525  45.874  49.605  1.00  0.00    -0.326 N 
HETATM    3  O   UNL     1      24.251  48.083  50.273  1.00  0.00    -0.271 OA
HETATM    4  H   UNL     1      24.395  45.273  48.794  1.00  0.00     0.169 HD
ENDROOT
BRANCH   2   5
HETATM    5  C   UNL     1      25.320  45.347  50.643  1.00  0.00     0.034 A 
HETATM    6  C   UNL     1      26.667  45.007  50.498  1.00  0.00     0.030 A 
HETATM    7  C   UNL     1      27.407  44.529  51.587  1.00  0.00     0.019 A 
HETATM    8  C   UNL     1      26.802  44.386  52.840  1.00  0.00     0.032 A 
HETATM    9  C   UNL     1      25.456  44.730  52.993  1.00  0.00     0.019 A 
HETATM   10  C   UNL     1      24.718  45.201  51.900  1.00  0.00     0.030 A 
BRANCH   8  11
HETATM   11  C   UNL     1      27.577  43.936  54.032  1.00  0.00     0.256 C 
HETATM   12  N   UNL     1      28.847  44.478  54.136  1.00  0.00    -0.321 N 
HETATM   13  H   UNL     1      29.283  44.766  53.271  1.00  0.00     0.169 HD
HETATM   14  O   UNL     1      27.089  43.077  54.759  1.00  0.00    -0.267 OA
BRANCH  12  15
HETATM   15  C   UNL     1      29.691  44.369  55.266  1.00  0.00     0.068 A 
HETATM   16  C   UNL     1      29.695  45.282  56.335  1.00  0.00     0.095 A 
HETATM   17  C   UNL     1      30.567  45.086  57.415  1.00  0.00     0.039 A 
HETATM   18  C   UNL     1      31.434  43.992  57.433  1.00  0.00     0.003 A 
HETATM   19  C   UNL     1      31.461  43.109  56.358  1.00  0.00     0.002 A 
HETATM   20  C   UNL     1      30.604  43.305  55.272  1.00  0.00     0.032 A 
BRANCH  16  21
HETATM   21  O   UNL     1      28.980  46.448  56.210  1.00  0.00    -0.354 OA
HETATM   22  C   UNL     1      28.046  46.675  57.261  1.00  0.00     0.210 C 
ENDBRANCH  16  21
ENDBRANCH  12  15
ENDBRANCH   8  11
ENDBRANCH   2   5
BRANCH   1  23
HETATM   23  C   UNL     1      23.070  47.369  48.318  1.00  0.00     0.240 C 
BRANCH  23  24
HETATM   24  N   UNL     1      22.417  48.664  48.318  1.00  0.00    -0.259 N 
HETATM   25  C   UNL     1      22.989  49.817  47.897  1.00  0.00     0.326 A 
HETATM   26  N   UNL     1      22.125  50.853  48.130  1.00  0.00    -0.324 N 
HETATM   27  O   UNL     1      24.064  49.920  47.329  1.00  0.00    -0.247 OA
HETATM   28  C   UNL     1      20.825  50.402  48.596  1.00  0.00     0.116 A 
HETATM   29  H   UNL     1      22.342  51.792  47.819  1.00  0.00     0.165 HD
HETATM   30  C   UNL     1      19.769  50.671  47.519  1.00  0.00     0.041 C 
HETATM   31  C   UNL     1      21.132  48.891  48.723  1.00  0.00     0.256 A 
HETATM   32  C   UNL     1      20.490  51.018  49.956  1.00  0.00     0.041 C 
HETATM   33  C   UNL     1      18.339  50.421  47.998  1.00  0.00     0.007 C 
HETATM   34  C   UNL     1      18.012  51.116  49.324  1.00  0.00    -0.019 C 
HETATM   35  C   UNL     1      17.880  52.632  49.157  1.00  0.00     0.010 C 
HETATM   36  C   UNL     1      19.049  50.752  50.395  1.00  0.00     0.007 C 
HETATM   37  O   UNL     1      20.349  48.036  49.112  1.00  0.00    -0.270 OA
ENDBRANCH  23  24
ENDBRANCH   1  23
TORSDOF 6
ENDMDL
MODEL 2
REMARK VINA RESULT:     -10.5      2.484     11.093
REMARK  6 active torsions:
REMARK  status: ('A' for Active; 'I' for Inactive)
REMARK    1  A    between atoms: N_9  and  C_10 
REMARK    2  A    between atoms: C_10  and  C_11 
REMARK       I    between atoms: C_11  and  N_12 
REMARK    3  A    between atoms: N_12  and  C_13 
REMARK    4  A    between atoms: C_16  and  C_17 
REMARK       I    between atoms: C_17  and  N_18 
REMARK    5  A    between atoms: N_18  and  C_19 
REMARK    6  A    between atoms: C_20  and  O_21 
ROOT
HETATM    1  C   UNL     1      24.850  43.239  49.595  1.00  0.00     0.240 C 
HETATM    2  N   UNL     1      25.128  44.426  48.934  1.00  0.00    -0.326 N 
HETATM    3  O   UNL     1      23.784  42.965  50.143  1.00  0.00    -0.271 OA
HETATM    4  H   UNL     1      25.938  44.427  48.319  1.00  0.00     0.169 HD
ENDROOT
BRANCH   2   5
HETATM    5  C   UNL     1      24.370  45.614  48.958  1.00  0.00     0.034 A 
HETATM    6  C   UNL     1      23.180  45.793  48.250  1.00  0.00     0.030 A 
HETATM    7  C   UNL     1      22.456  46.988  48.355  1.00  0.00     0.019 A 
HETATM    8  C   UNL     1      22.919  48.020  49.176  1.00  0.00     0.032 A 
HETATM    9  C   UNL     1      24.107  47.845  49.893  1.00  0.00     0.019 A 
HETATM   10  C   UNL     1      24.830  46.652  49.779  1.00  0.00     0.030 A 
BRANCH   8  11
HETATM   11  C   UNL     1      22.142  49.281  49.356  1.00  0.00     0.256 C 
HETATM   12  N   UNL     1      20.892  49.281  48.759  1.00  0.00    -0.321 N 
HETATM   13  H   UNL     1      20.778  48.670  47.961  1.00  0.00     0.169 HD
HETATM   14  O   UNL     1      22.680  50.227  49.920  1.00  0.00    -0.267 OA
BRANCH  12  15
HETATM   15  C   UNL     1      19.895  50.265  48.953  1.00  0.00     0.068 A 
HETATM   16  C   UNL     1      18.722  50.058  49.700  1.00  0.00     0.095 A 
HETATM   17  C   UNL     1      17.793  51.099  49.839  1.00  0.00     0.039 A 
HETATM   18  C   UNL     1      18.023  52.336  49.237  1.00  0.00     0.003 A 
HETATM   19  C   UNL     1      19.163  52.532  48.464  1.00  0.00     0.002 A 
HETATM   20  C   UNL     1      20.088  51.496  48.310  1.00  0.00     0.032 A 
BRANCH  16  21
HETATM   21  O   UNL     1      18.422  48.786  50.119  1.00  0.00    -0.354 OA
HETATM   22  C   UNL     1      18.562  48.584  51.522  1.00  0.00     0.210 C 
ENDBRANCH  16  21
ENDBRANCH  12  15
ENDBRANCH   8  11
ENDBRANCH   2   5
BRANCH   1  23
HETATM   23  C   UNL     1      25.929  42.165  49.445  1.00  0.00     0.240 C 
BRANCH  23  24
HETATM   24  N   UNL     1      26.619  41.865  50.684  1.00  0.00    -0.259 N 
HETATM   25  C   UNL     1      26.590  40.667  51.313  1.00  0.00     0.326 A 
HETATM   26  N   UNL     1      27.267  40.770  52.499  1.00  0.00    -0.324 N 
HETATM   27  O   UNL     1      26.110  39.635  50.872  1.00  0.00    -0.247 OA
HETATM   28  C   UNL     1      27.936  42.050  52.650  1.00  0.00     0.116 A 
HETATM   29  H   UNL     1      27.418  39.957  53.084  1.00  0.00     0.165 HD
HETATM   30  C   UNL     1      29.454  41.850  52.593  1.00  0.00     0.041 C 
HETATM   31  C   UNL     1      27.408  42.744  51.371  1.00  0.00     0.256 A 
HETATM   32  C   UNL     1      27.455  42.770  53.913  1.00  0.00     0.041 C 
HETATM   33  C   UNL     1      30.244  43.109  52.950  1.00  0.00     0.007 C 
HETATM   34  C   UNL     1      29.788  43.761  54.261  1.00  0.00    -0.019 C 
HETATM   35  C   UNL     1      30.204  42.938  55.483  1.00  0.00     0.010 C 
HETATM   36  C   UNL     1      28.276  44.018  54.239  1.00  0.00     0.007 C 
HETATM   37  O   UNL     1      27.663  43.889  51.026  1.00  0.00    -0.270 OA
ENDBRANCH  23  24
ENDBRANCH   1  23
TORSDOF 6
ENDMDL
MODEL 3
REMARK VINA RESULT:     -10.3      1.676      2.312
REMARK  6 active torsions:
REMARK  status: ('A' for Active; 'I' for Inactive)
REMARK    1  A    between atoms: N_9  and  C_10 
REMARK    2  A    between atoms: C_10  and  C_11 
REMARK       I    between atoms: C_11  and  N_12 
REMARK    3  A    between atoms: N_12  and  C_13 
REMARK    4  A    between atoms: C_16  and  C_17 
REMARK       I    between atoms: C_17  and  N_18 
REMARK    5  A    between atoms: N_18  and  C_19 
REMARK    6  A    between atoms: C_20  and  O_21 
ROOT
HETATM    1  C   UNL     1      22.393  45.635  48.570  1.00  0.00     0.240 C 
HETATM    2  N   UNL     1      23.575  46.126  49.103  1.00  0.00    -0.326 N 
HETATM    3  O   UNL     1      21.648  44.827  49.122  1.00  0.00    -0.271 OA
HETATM    4  H   UNL     1      23.959  46.962  48.667  1.00  0.00     0.169 HD
ENDROOT
BRANCH   2   5
HETATM    5  C   UNL     1      24.269  45.645  50.231  1.00  0.00     0.034 A 
HETATM    6  C   UNL     1      24.391  44.291  50.553  1.00  0.00     0.030 A 
HETATM    7  C   UNL     1      25.133  43.884  51.668  1.00  0.00     0.019 A 
HETATM    8  C   UNL     1      25.766  44.833  52.477  1.00  0.00     0.032 A 
HETATM    9  C   UNL     1      25.654  46.189  52.157  1.00  0.00     0.019 A 
HETATM   10  C   UNL     1      24.904  46.592  51.045  1.00  0.00     0.030 A 
BRANCH   8  11
HETATM   11  C   UNL     1      26.613  44.428  53.636  1.00  0.00     0.256 C 
HETATM   12  N   UNL     1      27.973  44.619  53.456  1.00  0.00    -0.321 N 
HETATM   13  H   UNL     1      28.303  44.608  52.500  1.00  0.00     0.169 HD
HETATM   14  O   UNL     1      26.074  43.889  54.597  1.00  0.00    -0.267 OA
BRANCH  12  15
HETATM   15  C   UNL     1      28.954  44.506  54.468  1.00  0.00     0.068 A 
HETATM   16  C   UNL     1      29.300  45.547  55.347  1.00  0.00     0.095 A 
HETATM   17  C   UNL     1      30.284  45.336  56.323  1.00  0.00     0.039 A 
HETATM   18  C   UNL     1      30.926  44.101  56.423  1.00  0.00     0.003 A 
HETATM   19  C   UNL     1      30.615  43.081  55.529  1.00  0.00     0.002 A 
HETATM   20  C   UNL     1      29.644  43.287  54.546  1.00  0.00     0.032 A 
BRANCH  16  21
HETATM   21  O   UNL     1      28.801  46.804  55.110  1.00  0.00    -0.354 OA
HETATM   22  C   UNL     1      27.695  47.158  55.934  1.00  0.00     0.210 C 
ENDBRANCH  16  21
ENDBRANCH  12  15
ENDBRANCH   8  11
ENDBRANCH   2   5
BRANCH   1  23
HETATM   23  C   UNL     1      21.952  46.318  47.275  1.00  0.00     0.240 C 
BRANCH  23  24
HETATM   24  N   UNL     1      20.875  47.269  47.464  1.00  0.00    -0.259 N 
HETATM   25  C   UNL     1      19.637  47.152  46.928  1.00  0.00     0.326 A 
HETATM   26  N   UNL     1      18.912  48.274  47.230  1.00  0.00    -0.324 N 
HETATM   27  O   UNL     1      19.200  46.178  46.337  1.00  0.00    -0.247 OA
HETATM   28  C   UNL     1      19.610  49.159  48.147  1.00  0.00     0.116 A 
HETATM   29  H   UNL     1      17.934  48.345  46.977  1.00  0.00     0.165 HD
HETATM   30  C   UNL     1      18.893  49.168  49.501  1.00  0.00     0.041 C 
HETATM   31  C   UNL     1      20.958  48.402  48.225  1.00  0.00     0.256 A 
HETATM   32  C   UNL     1      19.787  50.549  47.532  1.00  0.00     0.041 C 
HETATM   33  C   UNL     1      19.432  50.227  50.463  1.00  0.00     0.007 C 
HETATM   34  C   UNL     1      19.524  51.624  49.839  1.00  0.00    -0.019 C 
HETATM   35  C   UNL     1      18.142  52.253  49.640  1.00  0.00     0.010 C 
HETATM   36  C   UNL     1      20.320  51.580  48.529  1.00  0.00     0.007 C 
HETATM   37  O   UNL     1      21.935  48.753  48.871  1.00  0.00    -0.270 OA
ENDBRANCH  23  24
ENDBRANCH   1  23
TORSDOF 6
ENDMDL
MODEL 4
REMARK VINA RESULT:     -10.1      1.744      2.739
REMARK  6 active torsions:
REMARK  status: ('A' for Active; 'I' for Inactive)
REMARK    1  A    between atoms: N_9  and  C_10 
REMARK    2  A    between atoms: C_10  and  C_11 
REMARK       I    between atoms: C_11  and  N_12 
REMARK    3  A    between atoms: N_12  and  C_13 
REMARK    4  A    between atoms: C_16  and  C_17 
REMARK       I    between atoms: C_17  and  N_18 
REMARK    5  A    between atoms: N_18  and  C_19 
REMARK    6  A    between atoms: C_20  and  O_21 
ROOT
HETATM    1  C   UNL     1      22.448  45.716  48.635  1.00  0.00     0.240 C 
HETATM    2  N   UNL     1      23.614  46.222  49.188  1.00  0.00    -0.326 N 
HETATM    3  O   UNL     1      21.695  44.912  49.181  1.00  0.00    -0.271 OA
HETATM    4  H   UNL     1      24.003  47.054  48.749  1.00  0.00     0.169 HD
ENDROOT
BRANCH   2   5
HETATM    5  C   UNL     1      24.284  45.762  50.339  1.00  0.00     0.034 A 
HETATM    6  C   UNL     1      24.380  44.415  50.699  1.00  0.00     0.030 A 
HETATM    7  C   UNL     1      25.100  44.027  51.836  1.00  0.00     0.019 A 
HETATM    8  C   UNL     1      25.737  44.989  52.627  1.00  0.00     0.032 A 
HETATM    9  C   UNL     1      25.650  46.337  52.269  1.00  0.00     0.019 A 
HETATM   10  C   UNL     1      24.923  46.721  51.136  1.00  0.00     0.030 A 
BRANCH   8  11
HETATM   11  C   UNL     1      26.560  44.603  53.810  1.00  0.00     0.256 C 
HETATM   12  N   UNL     1      27.901  44.937  53.717  1.00  0.00    -0.321 N 
HETATM   13  H   UNL     1      28.278  45.014  52.782  1.00  0.00     0.169 HD
HETATM   14  O   UNL     1      26.031  43.958  54.709  1.00  0.00    -0.267 OA
BRANCH  12  15
HETATM   15  C   UNL     1      28.836  44.862  54.774  1.00  0.00     0.068 A 
HETATM   16  C   UNL     1      29.706  43.776  54.979  1.00  0.00     0.095 A 
HETATM   17  C   UNL     1      30.603  43.796  56.057  1.00  0.00     0.039 A 
HETATM   18  C   UNL     1      30.633  44.884  56.930  1.00  0.00     0.003 A 
HETATM   19  C   UNL     1      29.746  45.942  56.754  1.00  0.00     0.002 A 
HETATM   20  C   UNL     1      28.841  45.924  55.690  1.00  0.00     0.032 A 
BRANCH  16  21
HETATM   21  O   UNL     1      29.529  42.639  54.231  1.00  0.00    -0.354 OA
HETATM   22  C   UNL     1      30.260  42.624  53.009  1.00  0.00     0.210 C 
ENDBRANCH  16  21
ENDBRANCH  12  15
ENDBRANCH   8  11
ENDBRANCH   2   5
BRANCH   1  23
HETATM   23  C   UNL     1      22.033  46.378  47.320  1.00  0.00     0.240 C 
BRANCH  23  24
HETATM   24  N   UNL     1      20.943  47.322  47.469  1.00  0.00    -0.259 N 
HETATM   25  C   UNL     1      19.732  47.204  46.875  1.00  0.00     0.326 A 
HETATM   26  N   UNL     1      18.988  48.318  47.156  1.00  0.00    -0.324 N 
HETATM   27  O   UNL     1      19.328  46.234  46.254  1.00  0.00    -0.247 OA
HETATM   28  C   UNL     1      19.637  49.197  48.113  1.00  0.00     0.116 A 
HETATM   29  H   UNL     1      18.022  48.388  46.858  1.00  0.00     0.165 HD
HETATM   30  C   UNL     1      18.859  49.188  49.433  1.00  0.00     0.041 C 
HETATM   31  C   UNL     1      20.984  48.446  48.245  1.00  0.00     0.256 A 
HETATM   32  C   UNL     1      19.835  50.595  47.522  1.00  0.00     0.041 C 
HETATM   33  C   UNL     1      19.346  50.239  50.430  1.00  0.00     0.007 C 
HETATM   34  C   UNL     1      19.459  51.643  49.825  1.00  0.00    -0.019 C 
HETATM   35  C   UNL     1      18.084  52.267  49.570  1.00  0.00     0.010 C 
HETATM   36  C   UNL     1      20.315  51.618  48.553  1.00  0.00     0.007 C 
HETATM   37  O   UNL     1      21.928  48.796  48.939  1.00  0.00    -0.270 OA
ENDBRANCH  23  24
ENDBRANCH   1  23
TORSDOF 6
ENDMDL
MODEL 5
REMARK VINA RESULT:      -9.7      2.311      3.386
REMARK  6 active torsions:
REMARK  status: ('A' for Active; 'I' for Inactive)
REMARK    1  A    between atoms: N_9  and  C_10 
REMARK    2  A    between atoms: C_10  and  C_11 
REMARK       I    between atoms: C_11  and  N_12 
REMARK    3  A    between atoms: N_12  and  C_13 
REMARK    4  A    between atoms: C_16  and  C_17 
REMARK       I    between atoms: C_17  and  N_18 
REMARK    5  A    between atoms: N_18  and  C_19 
REMARK    6  A    between atoms: C_20  and  O_21 
ROOT
HETATM    1  C   UNL     1      21.044  45.400  48.295  1.00  0.00     0.240 C 
HETATM    2  N   UNL     1      22.382  45.757  48.209  1.00  0.00    -0.326 N 
HETATM    3  O   UNL     1      20.540  44.751  49.209  1.00  0.00    -0.271 OA
HETATM    4  H   UNL     1      22.615  46.494  47.547  1.00  0.00     0.169 HD
ENDROOT
BRANCH   2   5
HETATM    5  C   UNL     1      23.448  45.268  48.990  1.00  0.00     0.034 A 
HETATM    6  C   UNL     1      24.012  45.965  50.062  1.00  0.00     0.030 A 
HETATM    7  C   UNL     1      25.042  45.398  50.822  1.00  0.00     0.019 A 
HETATM    8  C   UNL     1      25.519  44.119  50.517  1.00  0.00     0.032 A 
HETATM    9  C   UNL     1      24.954  43.414  49.451  1.00  0.00     0.019 A 
HETATM   10  C   UNL     1      23.930  43.988  48.689  1.00  0.00     0.030 A 
BRANCH   8  11
HETATM   11  C   UNL     1      26.574  43.464  51.344  1.00  0.00     0.256 C 
HETATM   12  N   UNL     1      27.491  44.334  51.910  1.00  0.00    -0.321 N 
HETATM   13  H   UNL     1      27.634  45.210  51.425  1.00  0.00     0.169 HD
HETATM   14  O   UNL     1      26.608  42.239  51.389  1.00  0.00    -0.267 OA
BRANCH  12  15
HETATM   15  C   UNL     1      28.452  43.984  52.886  1.00  0.00     0.068 A 
HETATM   16  C   UNL     1      28.484  44.522  54.185  1.00  0.00     0.095 A 
HETATM   17  C   UNL     1      29.476  44.109  55.085  1.00  0.00     0.039 A 
HETATM   18  C   UNL     1      30.435  43.172  54.699  1.00  0.00     0.003 A 
HETATM   19  C   UNL     1      30.430  42.667  53.402  1.00  0.00     0.002 A 
HETATM   20  C   UNL     1      29.453  43.083  52.495  1.00  0.00     0.032 A 
BRANCH  16  21
HETATM   21  O   UNL     1      27.659  45.578  54.482  1.00  0.00    -0.354 OA
HETATM   22  C   UNL     1      28.266  46.585  55.286  1.00  0.00     0.210 C 
ENDBRANCH  16  21
ENDBRANCH  12  15
ENDBRANCH   8  11
ENDBRANCH   2   5
BRANCH   1  23
HETATM   23  C   UNL     1      20.151  46.039  47.231  1.00  0.00     0.240 C 
BRANCH  23  24
HETATM   24  N   UNL     1      19.254  47.048  47.761  1.00  0.00    -0.259 N 
HETATM   25  C   UNL     1      17.975  46.821  48.140  1.00  0.00     0.326 A 
HETATM   26  N   UNL     1      17.398  48.011  48.496  1.00  0.00    -0.324 N 
HETATM   27  O   UNL     1      17.434  45.730  48.229  1.00  0.00    -0.247 OA
HETATM   28  C   UNL     1      18.350  49.108  48.518  1.00  0.00     0.116 A 
HETATM   29  H   UNL     1      16.460  48.041  48.878  1.00  0.00     0.165 HD
HETATM   30  C   UNL     1      18.570  49.572  49.961  1.00  0.00     0.041 C 
HETATM   31  C   UNL     1      19.587  48.357  47.970  1.00  0.00     0.256 A 
HETATM   32  C   UNL     1      17.913  50.226  47.569  1.00  0.00     0.041 C 
HETATM   33  C   UNL     1      19.395  50.855  50.065  1.00  0.00     0.007 C 
HETATM   34  C   UNL     1      18.883  51.981  49.159  1.00  0.00    -0.019 C 
HETATM   35  C   UNL     1      17.568  52.574  49.672  1.00  0.00     0.010 C 
HETATM   36  C   UNL     1      18.757  51.495  47.710  1.00  0.00     0.007 C 
HETATM   37  O   UNL     1      20.687  48.851  47.766  1.00  0.00    -0.270 OA
ENDBRANCH  23  24
ENDBRANCH   1  23
TORSDOF 6
ENDMDL
MODEL 6
REMARK VINA RESULT:      -9.6      2.629      4.149
REMARK  6 active torsions:
REMARK  status: ('A' for Active; 'I' for Inactive)
REMARK    1  A    between atoms: N_9  and  C_10 
REMARK    2  A    between atoms: C_10  and  C_11 
REMARK       I    between atoms: C_11  and  N_12 
REMARK    3  A    between atoms: N_12  and  C_13 
REMARK    4  A    between atoms: C_16  and  C_17 
REMARK       I    between atoms: C_17  and  N_18 
REMARK    5  A    between atoms: N_18  and  C_19 
REMARK    6  A    between atoms: C_20  and  O_21 
ROOT
HETATM    1  C   UNL     1      20.689  45.498  48.105  1.00  0.00     0.240 C 
HETATM    2  N   UNL     1      21.961  46.035  47.972  1.00  0.00    -0.326 N 
HETATM    3  O   UNL     1      20.336  44.720  48.988  1.00  0.00    -0.271 OA
HETATM    4  H   UNL     1      22.053  46.845  47.363  1.00  0.00     0.169 HD
ENDROOT
BRANCH   2   5
HETATM    5  C   UNL     1      23.132  45.634  48.646  1.00  0.00     0.034 A 
HETATM    6  C   UNL     1      23.775  44.413  48.431  1.00  0.00     0.030 A 
HETATM    7  C   UNL     1      24.962  44.100  49.107  1.00  0.00     0.019 A 
HETATM    8  C   UNL     1      25.520  45.012  50.008  1.00  0.00     0.032 A 
HETATM    9  C   UNL     1      24.885  46.238  50.222  1.00  0.00     0.019 A 
HETATM   10  C   UNL     1      23.695  46.544  49.550  1.00  0.00     0.030 A 
BRANCH   8  11
HETATM   11  C   UNL     1      26.813  44.733  50.698  1.00  0.00     0.256 C 
HETATM   12  N   UNL     1      26.696  44.408  52.039  1.00  0.00    -0.321 N 
HETATM   13  H   UNL     1      25.881  44.768  52.517  1.00  0.00     0.169 HD
HETATM   14  O   UNL     1      27.857  44.896  50.076  1.00  0.00    -0.267 OA
BRANCH  12  15
HETATM   15  C   UNL     1      27.740  43.910  52.852  1.00  0.00     0.068 A 
HETATM   16  C   UNL     1      28.315  42.636  52.699  1.00  0.00     0.095 A 
HETATM   17  C   UNL     1      29.352  42.233  53.554  1.00  0.00     0.039 A 
HETATM   18  C   UNL     1      29.811  43.087  54.558  1.00  0.00     0.003 A 
HETATM   19  C   UNL     1      29.217  44.332  54.737  1.00  0.00     0.002 A 
HETATM   20  C   UNL     1      28.176  44.736  53.898  1.00  0.00     0.032 A 
BRANCH  16  21
HETATM   21  O   UNL     1      27.724  41.743  51.840  1.00  0.00    -0.354 OA
HETATM   22  C   UNL     1      28.535  40.618  51.519  1.00  0.00     0.210 C 
ENDBRANCH  16  21
ENDBRANCH  12  15
ENDBRANCH   8  11
ENDBRANCH   2   5
BRANCH   1  23
HETATM   23  C   UNL     1      19.651  46.093  47.152  1.00  0.00     0.240 C 
BRANCH  23  24
HETATM   24  N   UNL     1      18.841  47.131  47.759  1.00  0.00    -0.259 N 
HETATM   25  C   UNL     1      17.602  46.943  48.272  1.00  0.00     0.326 A 
HETATM   26  N   UNL     1      17.097  48.152  48.670  1.00  0.00    -0.324 N 
HETATM   27  O   UNL     1      17.045  45.869  48.432  1.00  0.00    -0.247 OA
HETATM   28  C   UNL     1      18.073  49.223  48.577  1.00  0.00     0.116 A 
HETATM   29  H   UNL     1      16.204  48.212  49.146  1.00  0.00     0.165 HD
HETATM   30  C   UNL     1      18.454  49.697  49.983  1.00  0.00     0.041 C 
HETATM   31  C   UNL     1      19.227  48.433  47.914  1.00  0.00     0.256 A 
HETATM   32  C   UNL     1      17.569  50.343  47.663  1.00  0.00     0.041 C 
HETATM   33  C   UNL     1      19.318  50.959  49.983  1.00  0.00     0.007 C 
HETATM   34  C   UNL     1      18.744  52.088  49.120  1.00  0.00    -0.019 C 
HETATM   35  C   UNL     1      17.506  52.722  49.759  1.00  0.00     0.010 C 
HETATM   36  C   UNL     1      18.455  51.589  47.699  1.00  0.00     0.007 C 
HETATM   37  O   UNL     1      20.312  48.895  47.591  1.00  0.00    -0.270 OA
ENDBRANCH  23  24
ENDBRANCH   1  23
TORSDOF 6
ENDMDL
MODEL 7
REMARK VINA RESULT:      -9.5      3.667     12.660
REMARK  6 active torsions:
REMARK  status: ('A' for Active; 'I' for Inactive)
REMARK    1  A    between atoms: N_9  and  C_10 
REMARK    2  A    between atoms: C_10  and  C_11 
REMARK       I    between atoms: C_11  and  N_12 
REMARK    3  A    between atoms: N_12  and  C_13 
REMARK    4  A    between atoms: C_16  and  C_17 
REMARK       I    between atoms: C_17  and  N_18 
REMARK    5  A    between atoms: N_18  and  C_19 
REMARK    6  A    between atoms: C_20  and  O_21 
ROOT
HETATM    1  C   UNL     1      22.581  50.234  49.229  1.00  0.00     0.240 C 
HETATM    2  N   UNL     1      21.391  50.054  48.542  1.00  0.00    -0.326 N 
HETATM    3  O   UNL     1      22.698  50.813  50.307  1.00  0.00    -0.271 OA
HETATM    4  H   UNL     1      21.392  49.353  47.804  1.00  0.00     0.169 HD
ENDROOT
BRANCH   2   5
HETATM    5  C   UNL     1      20.153  50.676  48.799  1.00  0.00     0.034 A 
HETATM    6  C   UNL     1      19.874  52.012  48.499  1.00  0.00     0.030 A 
HETATM    7  C   UNL     1      18.606  52.552  48.744  1.00  0.00     0.019 A 
HETATM    8  C   UNL     1      17.596  51.755  49.293  1.00  0.00     0.032 A 
HETATM    9  C   UNL     1      17.866  50.416  49.590  1.00  0.00     0.019 A 
HETATM   10  C   UNL     1      19.139  49.883  49.350  1.00  0.00     0.030 A 
BRANCH   8  11
HETATM   11  C   UNL     1      16.218  52.283  49.511  1.00  0.00     0.256 C 
HETATM   12  N   UNL     1      16.112  53.664  49.459  1.00  0.00    -0.321 N 
HETATM   13  H   UNL     1      16.947  54.185  49.689  1.00  0.00     0.169 HD
HETATM   14  O   UNL     1      15.326  51.494  49.802  1.00  0.00    -0.267 OA
BRANCH  12  15
HETATM   15  C   UNL     1      14.898  54.388  49.432  1.00  0.00     0.068 A 
HETATM   16  C   UNL     1      14.301  54.963  50.568  1.00  0.00     0.095 A 
HETATM   17  C   UNL     1      13.096  55.668  50.439  1.00  0.00     0.039 A 
HETATM   18  C   UNL     1      12.482  55.796  49.192  1.00  0.00     0.003 A 
HETATM   19  C   UNL     1      13.049  55.194  48.073  1.00  0.00     0.002 A 
HETATM   20  C   UNL     1      14.244  54.480  48.195  1.00  0.00     0.032 A 
BRANCH  16  21
HETATM   21  O   UNL     1      14.813  54.663  51.806  1.00  0.00    -0.354 OA
HETATM   22  C   UNL     1      14.369  55.528  52.846  1.00  0.00     0.210 C 
ENDBRANCH  16  21
ENDBRANCH  12  15
ENDBRANCH   8  11
ENDBRANCH   2   5
BRANCH   1  23
HETATM   23  C   UNL     1      23.774  49.485  48.633  1.00  0.00     0.240 C 
BRANCH  23  24
HETATM   24  N   UNL     1      23.911  48.131  49.133  1.00  0.00    -0.259 N 
HETATM   25  C   UNL     1      22.980  47.158  48.995  1.00  0.00     0.326 A 
HETATM   26  N   UNL     1      23.397  46.042  49.669  1.00  0.00    -0.324 N 
HETATM   27  O   UNL     1      21.966  47.225  48.318  1.00  0.00    -0.247 OA
HETATM   28  C   UNL     1      24.750  46.173  50.181  1.00  0.00     0.116 A 
HETATM   29  H   UNL     1      22.868  45.180  49.627  1.00  0.00     0.165 HD
HETATM   30  C   UNL     1      25.683  45.222  49.424  1.00  0.00     0.041 C 
HETATM   31  C   UNL     1      25.008  47.649  49.791  1.00  0.00     0.256 A 
HETATM   32  C   UNL     1      24.778  45.986  51.700  1.00  0.00     0.041 C 
HETATM   33  C   UNL     1      27.083  45.138  50.031  1.00  0.00     0.007 C 
HETATM   34  C   UNL     1      27.076  44.872  51.540  1.00  0.00    -0.019 C 
HETATM   35  C   UNL     1      26.656  43.436  51.866  1.00  0.00     0.010 C 
HETATM   36  C   UNL     1      26.197  45.898  52.266  1.00  0.00     0.007 C 
HETATM   37  O   UNL     1      26.030  48.278  50.025  1.00  0.00    -0.270 OA
ENDBRANCH  23  24
ENDBRANCH   1  23
TORSDOF 6
ENDMDL
MODEL 8
REMARK VINA RESULT:      -9.2      3.636     11.283
REMARK  6 active torsions:
REMARK  status: ('A' for Active; 'I' for Inactive)
REMARK    1  A    between atoms: N_9  and  C_10 
REMARK    2  A    between atoms: C_10  and  C_11 
REMARK       I    between atoms: C_11  and  N_12 
REMARK    3  A    between atoms: N_12  and  C_13 
REMARK    4  A    between atoms: C_16  and  C_17 
REMARK       I    between atoms: C_17  and  N_18 
REMARK    5  A    between atoms: N_18  and  C_19 
REMARK    6  A    between atoms: C_20  and  O_21 
ROOT
HETATM    1  C   UNL     1      26.488  44.219  51.333  1.00  0.00     0.240 C 
HETATM    2  N   UNL     1      26.407  44.944  50.154  1.00  0.00    -0.326 N 
HETATM    3  O   UNL     1      25.550  43.998  52.097  1.00  0.00    -0.271 OA
HETATM    4  H   UNL     1      27.180  44.840  49.501  1.00  0.00     0.169 HD
ENDROOT
BRANCH   2   5
HETATM    5  C   UNL     1      25.336  45.752  49.720  1.00  0.00     0.034 A 
HETATM    6  C   UNL     1      24.143  45.248  49.195  1.00  0.00     0.030 A 
HETATM    7  C   UNL     1      23.104  46.110  48.825  1.00  0.00     0.019 A 
HETATM    8  C   UNL     1      23.248  47.493  48.978  1.00  0.00     0.032 A 
HETATM    9  C   UNL     1      24.436  48.003  49.510  1.00  0.00     0.019 A 
HETATM   10  C   UNL     1      25.475  47.137  49.872  1.00  0.00     0.030 A 
BRANCH   8  11
HETATM   11  C   UNL     1      22.138  48.433  48.649  1.00  0.00     0.256 C 
HETATM   12  N   UNL     1      21.121  48.482  49.588  1.00  0.00    -0.321 N 
HETATM   13  H   UNL     1      20.994  47.653  50.153  1.00  0.00     0.169 HD
HETATM   14  O   UNL     1      22.156  49.006  47.565  1.00  0.00    -0.267 OA
BRANCH  12  15
HETATM   15  C   UNL     1      20.072  49.430  49.606  1.00  0.00     0.068 A 
HETATM   16  C   UNL     1      18.712  49.099  49.469  1.00  0.00     0.095 A 
HETATM   17  C   UNL     1      17.742  50.111  49.504  1.00  0.00     0.039 A 
HETATM   18  C   UNL     1      18.119  51.445  49.669  1.00  0.00     0.003 A 
HETATM   19  C   UNL     1      19.466  51.779  49.766  1.00  0.00     0.002 A 
HETATM   20  C   UNL     1      20.440  50.778  49.720  1.00  0.00     0.032 A 
BRANCH  16  21
HETATM   21  O   UNL     1      18.378  47.815  49.114  1.00  0.00    -0.354 OA
HETATM   22  C   UNL     1      16.992  47.626  48.847  1.00  0.00     0.210 C 
ENDBRANCH  16  21
ENDBRANCH  12  15
ENDBRANCH   8  11
ENDBRANCH   2   5
BRANCH   1  23
HETATM   23  C   UNL     1      27.833  43.524  51.555  1.00  0.00     0.240 C 
BRANCH  23  24
HETATM   24  N   UNL     1      27.833  42.130  51.157  1.00  0.00    -0.259 N 
HETATM   25  C   UNL     1      28.040  41.087  51.996  1.00  0.00     0.326 A 
HETATM   26  N   UNL     1      28.069  39.929  51.267  1.00  0.00    -0.324 N 
HETATM   27  O   UNL     1      28.112  41.147  53.213  1.00  0.00    -0.247 OA
HETATM   28  C   UNL     1      27.717  40.137  49.873  1.00  0.00     0.116 A 
HETATM   29  H   UNL     1      28.144  39.028  51.724  1.00  0.00     0.165 HD
HETATM   30  C   UNL     1      26.367  39.478  49.577  1.00  0.00     0.041 C 
HETATM   31  C   UNL     1      27.603  41.681  49.887  1.00  0.00     0.256 A 
HETATM   32  C   UNL     1      28.847  39.672  48.951  1.00  0.00     0.041 C 
HETATM   33  C   UNL     1      26.012  39.465  48.090  1.00  0.00     0.007 C 
HETATM   34  C   UNL     1      27.136  38.920  47.202  1.00  0.00    -0.019 C 
HETATM   35  C   UNL     1      27.303  37.406  47.357  1.00  0.00     0.010 C 
HETATM   36  C   UNL     1      28.449  39.666  47.473  1.00  0.00     0.007 C 
HETATM   37  O   UNL     1      27.339  42.383  48.922  1.00  0.00    -0.270 OA
ENDBRANCH  23  24
ENDBRANCH   1  23
TORSDOF 6
ENDMDL
MODEL 9
REMARK VINA RESULT:      -9.0      2.739      4.162
REMARK  6 active torsions:
REMARK  status: ('A' for Active; 'I' for Inactive)
REMARK    1  A    between atoms: N_9  and  C_10 
REMARK    2  A    between atoms: C_10  and  C_11 
REMARK       I    between atoms: C_11  and  N_12 
REMARK    3  A    between atoms: N_12  and  C_13 
REMARK    4  A    between atoms: C_16  and  C_17 
REMARK       I    between atoms: C_17  and  N_18 
REMARK    5  A    between atoms: N_18  and  C_19 
REMARK    6  A    between atoms: C_20  and  O_21 
ROOT
HETATM    1  C   UNL     1      21.174  46.088  46.946  1.00  0.00     0.240 C 
HETATM    2  N   UNL     1      21.547  45.465  48.128  1.00  0.00    -0.326 N 
HETATM    3  O   UNL     1      21.949  46.488  46.079  1.00  0.00    -0.271 OA
HETATM    4  H   UNL     1      20.817  44.965  48.630  1.00  0.00     0.169 HD
ENDROOT
BRANCH   2   5
HETATM    5  C   UNL     1      22.843  45.379  48.676  1.00  0.00     0.034 A 
HETATM    6  C   UNL     1      23.492  46.440  49.311  1.00  0.00     0.030 A 
HETATM    7  C   UNL     1      24.764  46.269  49.872  1.00  0.00     0.019 A 
HETATM    8  C   UNL     1      25.402  45.026  49.803  1.00  0.00     0.032 A 
HETATM    9  C   UNL     1      24.754  43.958  49.175  1.00  0.00     0.019 A 
HETATM   10  C   UNL     1      23.486  44.137  48.609  1.00  0.00     0.030 A 
BRANCH   8  11
HETATM   11  C   UNL     1      26.730  44.796  50.442  1.00  0.00     0.256 C 
HETATM   12  N   UNL     1      26.675  44.250  51.714  1.00  0.00    -0.321 N 
HETATM   13  H   UNL     1      25.832  44.431  52.241  1.00  0.00     0.169 HD
HETATM   14  O   UNL     1      27.737  45.178  49.856  1.00  0.00    -0.267 OA
BRANCH  12  15
HETATM   15  C   UNL     1      27.784  43.757  52.438  1.00  0.00     0.068 A 
HETATM   16  C   UNL     1      28.467  42.570  52.117  1.00  0.00     0.095 A 
HETATM   17  C   UNL     1      29.561  42.164  52.894  1.00  0.00     0.039 A 
HETATM   18  C   UNL     1      29.972  42.928  53.988  1.00  0.00     0.003 A 
HETATM   19  C   UNL     1      29.274  44.081  54.333  1.00  0.00     0.002 A 
HETATM   20  C   UNL     1      28.175  44.486  53.570  1.00  0.00     0.032 A 
BRANCH  16  21
HETATM   21  O   UNL     1      27.933  41.738  51.164  1.00  0.00    -0.354 OA
HETATM   22  C   UNL     1      28.467  40.418  51.177  1.00  0.00     0.210 C 
ENDBRANCH  16  21
ENDBRANCH  12  15
ENDBRANCH   8  11
ENDBRANCH   2   5
BRANCH   1  23
HETATM   23  C   UNL     1      19.667  46.091  46.682  1.00  0.00     0.240 C 
BRANCH  23  24
HETATM   24  N   UNL     1      19.061  47.400  46.825  1.00  0.00    -0.259 N 
HETATM   25  C   UNL     1      18.122  47.910  45.993  1.00  0.00     0.326 A 
HETATM   26  N   UNL     1      17.849  49.199  46.368  1.00  0.00    -0.324 N 
HETATM   27  O   UNL     1      17.548  47.308  45.101  1.00  0.00    -0.247 OA
HETATM   28  C   UNL     1      18.507  49.571  47.608  1.00  0.00     0.116 A 
HETATM   29  H   UNL     1      17.119  49.731  45.910  1.00  0.00     0.165 HD
HETATM   30  C   UNL     1      17.461  49.758  48.711  1.00  0.00     0.041 C 
HETATM   31  C   UNL     1      19.339  48.285  47.828  1.00  0.00     0.256 A 
HETATM   32  C   UNL     1      19.411  50.789  47.401  1.00  0.00     0.041 C 
HETATM   33  C   UNL     1      18.037  50.351  49.997  1.00  0.00     0.007 C 
HETATM   34  C   UNL     1      18.872  51.615  49.762  1.00  0.00    -0.019 C 
HETATM   35  C   UNL     1      17.999  52.816  49.390  1.00  0.00     0.010 C 
HETATM   36  C   UNL     1      19.959  51.357  48.712  1.00  0.00     0.007 C 
HETATM   37  O   UNL     1      20.111  48.087  48.756  1.00  0.00    -0.270 OA
ENDBRANCH  23  24
ENDBRANCH   1  23
TORSDOF 6
ENDMDL
MODEL 10
REMARK VINA RESULT:      -8.8      2.486     11.134
REMARK  6 active torsions:
REMARK  status: ('A' for Active; 'I' for Inactive)
REMARK    1  A    between atoms: N_9  and  C_10 
REMARK    2  A    between atoms: C_10  and  C_11 
REMARK       I    between atoms: C_11  and  N_12 
REMARK    3  A    between atoms: N_12  and  C_13 
REMARK    4  A    between atoms: C_16  and  C_17 
REMARK       I    between atoms: C_17  and  N_18 
REMARK    5  A    between atoms: N_18  and  C_19 
REMARK    6  A    between atoms: C_20  and  O_21 
ROOT
HETATM    1  C   UNL     1      23.343  43.809  50.108  1.00  0.00     0.240 C 
HETATM    2  N   UNL     1      23.828  44.846  49.326  1.00  0.00    -0.326 N 
HETATM    3  O   UNL     1      22.154  43.570  50.312  1.00  0.00    -0.271 OA
HETATM    4  H   UNL     1      24.801  44.782  49.037  1.00  0.00     0.169 HD
ENDROOT
BRANCH   2   5
HETATM    5  C   UNL     1      23.104  45.944  48.819  1.00  0.00     0.034 A 
HETATM    6  C   UNL     1      22.108  45.838  47.845  1.00  0.00     0.030 A 
HETATM    7  C   UNL     1      21.400  46.969  47.419  1.00  0.00     0.019 A 
HETATM    8  C   UNL     1      21.681  48.223  47.969  1.00  0.00     0.032 A 
HETATM    9  C   UNL     1      22.672  48.335  48.949  1.00  0.00     0.019 A 
HETATM   10  C   UNL     1      23.383  47.203  49.366  1.00  0.00     0.030 A 
BRANCH   8  11
HETATM   11  C   UNL     1      20.904  49.436  47.580  1.00  0.00     0.256 C 
HETATM   12  N   UNL     1      19.665  49.175  47.018  1.00  0.00    -0.321 N 
HETATM   13  H   UNL     1      19.564  48.282  46.555  1.00  0.00     0.169 HD
HETATM   14  O   UNL     1      21.435  50.535  47.696  1.00  0.00    -0.267 OA
BRANCH  12  15
HETATM   15  C   UNL     1      18.668  50.143  46.756  1.00  0.00     0.068 A 
HETATM   16  C   UNL     1      17.731  50.582  47.708  1.00  0.00     0.095 A 
HETATM   17  C   UNL     1      16.782  51.551  47.354  1.00  0.00     0.039 A 
HETATM   18  C   UNL     1      16.757  52.077  46.062  1.00  0.00     0.003 A 
HETATM   19  C   UNL     1      17.657  51.616  45.106  1.00  0.00     0.002 A 
HETATM   20  C   UNL     1      18.599  50.641  45.447  1.00  0.00     0.032 A 
BRANCH  16  21
HETATM   21  O   UNL     1      17.647  49.918  48.907  1.00  0.00    -0.354 OA
HETATM   22  C   UNL     1      18.240  50.610  50.001  1.00  0.00     0.210 C 
ENDBRANCH  16  21
ENDBRANCH  12  15
ENDBRANCH   8  11
ENDBRANCH   2   5
BRANCH   1  23
HETATM   23  C   UNL     1      24.411  42.822  50.581  1.00  0.00     0.240 C 
BRANCH  23  24
HETATM   24  N   UNL     1      25.589  43.466  51.127  1.00  0.00    -0.259 N 
HETATM   25  C   UNL     1      26.753  43.642  50.458  1.00  0.00     0.326 A 
HETATM   26  N   UNL     1      27.675  44.194  51.307  1.00  0.00    -0.324 N 
HETATM   27  O   UNL     1      26.940  43.423  49.273  1.00  0.00    -0.247 OA
HETATM   28  C   UNL     1      27.101  44.567  52.589  1.00  0.00     0.116 A 
HETATM   29  H   UNL     1      28.591  44.468  50.973  1.00  0.00     0.165 HD
HETATM   30  C   UNL     1      27.085  46.093  52.722  1.00  0.00     0.041 C 
HETATM   31  C   UNL     1      25.676  44.000  52.382  1.00  0.00     0.256 A 
HETATM   32  C   UNL     1      27.823  43.854  53.735  1.00  0.00     0.041 C 
HETATM   33  C   UNL     1      26.691  46.573  54.119  1.00  0.00     0.007 C 
HETATM   34  C   UNL     1      27.488  45.896  55.241  1.00  0.00    -0.019 C 
HETATM   35  C   UNL     1      28.937  46.384  55.288  1.00  0.00     0.010 C 
HETATM   36  C   UNL     1      27.408  44.369  55.115  1.00  0.00     0.007 C 
HETATM   37  O   UNL     1      24.771  44.035  53.204  1.00  0.00    -0.270 OA
ENDBRANCH  23  24
ENDBRANCH   1  23
TORSDOF 6
ENDMDL
