MODEL 1
REMARK VINA RESULT:      -8.5      0.000      0.000
REMARK  8 active torsions:
REMARK  status: ('A' for Active; 'I' for Inactive)
REMARK    1  A    between atoms: C_2  and  O_3 
REMARK    2  A    between atoms: O_3  and  C_4 
REMARK    3  A    between atoms: C_5  and  O_6 
REMARK    4  A    between atoms: O_6  and  C_7 
REMARK    5  A    between atoms: C_10  and  C_11 
REMARK    6  A    between atoms: C_11  and  N_12 
REMARK    7  A    between atoms: N_12  and  C_13 
REMARK    8  A    between atoms: C_20  and  C_21 
REMARK       I    between atoms: C_21  and  N_22 
ROOT
HETATM    1  C   UNL     1      25.844  47.377  50.206  1.00  0.00     0.009 A 
HETATM    2  C   UNL     1      24.518  47.571  49.775  1.00  0.00     0.039 A 
HETATM    3  C   UNL     1      24.199  48.620  48.888  1.00  0.00     0.030 A 
HETATM    4  C   UNL     1      25.212  49.476  48.478  1.00  0.00     0.063 A 
HETATM    5  N   UNL     1      24.610  50.378  47.648  1.00  0.00    -0.277 N 
HETATM    6  H   UNL     1      25.047  51.157  47.167  1.00  0.00     0.189 HD
HETATM    7  N   UNL     1      23.292  50.184  47.475  1.00  0.00    -0.168 NA
HETATM    8  C   UNL     1      23.023  49.100  48.239  1.00  0.00     0.156 A 
HETATM    9  C   UNL     1      26.532  49.349  48.911  1.00  0.00     0.034 A 
HETATM   10  C   UNL     1      26.817  48.294  49.790  1.00  0.00     0.026 A 
ENDROOT
BRANCH   1  11
HETATM   11  N   UNL     1      26.091  46.364  51.141  1.00  0.00    -0.289 NA
HETATM   12  H   UNL     1      27.075  46.099  51.168  1.00  0.00     0.128 HD
BRANCH  11  13
HETATM   13  C   UNL     1      25.503  46.449  52.469  1.00  0.00     0.131 C 
BRANCH  13  14
HETATM   14  C   UNL     1      26.592  46.344  53.512  1.00  0.00    -0.042 A 
HETATM   15  C   UNL     1      27.351  45.171  53.644  1.00  0.00     0.048 A 
HETATM   16  C   UNL     1      28.368  45.080  54.603  1.00  0.00     0.102 A 
HETATM   17  C   UNL     1      28.635  46.180  55.443  1.00  0.00     0.102 A 
HETATM   18  C   UNL     1      27.864  47.340  55.327  1.00  0.00     0.040 A 
HETATM   19  C   UNL     1      26.850  47.420  54.370  1.00  0.00     0.011 A 
BRANCH  16  20
HETATM   20  O   UNL     1      29.164  43.976  54.788  1.00  0.00    -0.349 OA
BRANCH  20  21
HETATM   21  C   UNL     1      28.847  42.794  54.061  1.00  0.00     0.171 C 
HETATM   22  C   UNL     1      29.975  42.531  53.079  1.00  0.00     0.034 C 
ENDBRANCH  20  21
ENDBRANCH  16  20
BRANCH  17  23
HETATM   23  O   UNL     1      29.656  46.016  56.347  1.00  0.00    -0.349 OA
BRANCH  23  24
HETATM   24  C   UNL     1      29.319  46.011  57.731  1.00  0.00     0.171 C 
HETATM   25  C   UNL     1      30.493  45.429  58.497  1.00  0.00     0.034 C 
ENDBRANCH  23  24
ENDBRANCH  17  23
ENDBRANCH  13  14
ENDBRANCH  11  13
ENDBRANCH   1  11
BRANCH   8  26
HETATM   26  C   UNL     1      21.665  48.548  48.333  1.00  0.00     0.270 C 
HETATM   27  N   UNL     1      21.117  48.621  49.584  1.00  0.00    -0.365 N 
HETATM   28  H   UNL     1      21.666  49.035  50.330  1.00  0.00     0.159 HD
HETATM   29  H   UNL     1      20.189  48.267  49.747  1.00  0.00     0.159 HD
HETATM   30  O   UNL     1      21.045  48.058  47.394  1.00  0.00    -0.266 OA
ENDBRANCH   8  26
TORSDOF 8
ENDMDL
MODEL 2
REMARK VINA RESULT:      -8.3      2.562      4.233
REMARK  8 active torsions:
REMARK  status: ('A' for Active; 'I' for Inactive)
REMARK    1  A    between atoms: C_2  and  O_3 
REMARK    2  A    between atoms: O_3  and  C_4 
REMARK    3  A    between atoms: C_5  and  O_6 
REMARK    4  A    between atoms: O_6  and  C_7 
REMARK    5  A    between atoms: C_10  and  C_11 
REMARK    6  A    between atoms: C_11  and  N_12 
REMARK    7  A    between atoms: N_12  and  C_13 
REMARK    8  A    between atoms: C_20  and  C_21 
REMARK       I    between atoms: C_21  and  N_22 
ROOT
HETATM    1  C   UNL     1      26.546  43.972  51.154  1.00  0.00     0.009 A 
HETATM    2  C   UNL     1      26.957  45.142  50.487  1.00  0.00     0.039 A 
HETATM    3  C   UNL     1      26.077  46.236  50.350  1.00  0.00     0.030 A 
HETATM    4  C   UNL     1      24.789  46.121  50.854  1.00  0.00     0.063 A 
HETATM    5  N   UNL     1      24.181  47.311  50.569  1.00  0.00    -0.277 N 
HETATM    6  H   UNL     1      23.228  47.580  50.786  1.00  0.00     0.189 HD
HETATM    7  N   UNL     1      24.962  48.195  49.926  1.00  0.00    -0.168 NA
HETATM    8  C   UNL     1      26.138  47.543  49.782  1.00  0.00     0.156 A 
HETATM    9  C   UNL     1      24.324  44.967  51.485  1.00  0.00     0.034 A 
HETATM   10  C   UNL     1      25.224  43.898  51.608  1.00  0.00     0.026 A 
ENDROOT
BRANCH   1  11
HETATM   11  N   UNL     1      27.436  42.893  51.199  1.00  0.00    -0.289 NA
HETATM   12  H   UNL     1      28.336  43.119  50.778  1.00  0.00     0.128 HD
BRANCH  11  13
HETATM   13  C   UNL     1      27.576  42.124  52.427  1.00  0.00     0.131 C 
BRANCH  13  14
HETATM   14  C   UNL     1      28.448  42.882  53.401  1.00  0.00    -0.042 A 
HETATM   15  C   UNL     1      27.958  44.007  54.082  1.00  0.00     0.048 A 
HETATM   16  C   UNL     1      28.765  44.699  54.994  1.00  0.00     0.102 A 
HETATM   17  C   UNL     1      30.081  44.260  55.235  1.00  0.00     0.102 A 
HETATM   18  C   UNL     1      30.578  43.154  54.540  1.00  0.00     0.040 A 
HETATM   19  C   UNL     1      29.767  42.471  53.630  1.00  0.00     0.011 A 
BRANCH  16  20
HETATM   20  O   UNL     1      28.358  45.799  55.710  1.00  0.00    -0.349 OA
BRANCH  20  21
HETATM   21  C   UNL     1      27.288  46.580  55.187  1.00  0.00     0.171 C 
HETATM   22  C   UNL     1      27.868  47.888  54.681  1.00  0.00     0.034 C 
ENDBRANCH  20  21
ENDBRANCH  16  20
BRANCH  17  23
HETATM   23  O   UNL     1      30.802  44.986  56.153  1.00  0.00    -0.349 OA
BRANCH  23  24
HETATM   24  C   UNL     1      31.065  44.380  57.415  1.00  0.00     0.171 C 
HETATM   25  C   UNL     1      30.486  45.279  58.493  1.00  0.00     0.034 C 
ENDBRANCH  23  24
ENDBRANCH  17  23
ENDBRANCH  13  14
ENDBRANCH  11  13
ENDBRANCH   1  11
BRANCH   8  26
HETATM   26  C   UNL     1      27.285  48.172  49.114  1.00  0.00     0.270 C 
HETATM   27  N   UNL     1      27.159  49.524  48.943  1.00  0.00    -0.365 N 
HETATM   28  H   UNL     1      26.315  49.978  49.275  1.00  0.00     0.159 HD
HETATM   29  H   UNL     1      27.895  50.044  48.493  1.00  0.00     0.159 HD
HETATM   30  O   UNL     1      28.285  47.572  48.732  1.00  0.00    -0.266 OA
ENDBRANCH   8  26
TORSDOF 8
ENDMDL
MODEL 3
REMARK VINA RESULT:      -8.0      1.783      2.372
REMARK  8 active torsions:
REMARK  status: ('A' for Active; 'I' for Inactive)
REMARK    1  A    between atoms: C_2  and  O_3 
REMARK    2  A    between atoms: O_3  and  C_4 
REMARK    3  A    between atoms: C_5  and  O_6 
REMARK    4  A    between atoms: O_6  and  C_7 
REMARK    5  A    between atoms: C_10  and  C_11 
REMARK    6  A    between atoms: C_11  and  N_12 
REMARK    7  A    between atoms: N_12  and  C_13 
REMARK    8  A    between atoms: C_20  and  C_21 
REMARK       I    between atoms: C_21  and  N_22 
ROOT
HETATM    1  C   UNL     1      25.027  46.984  51.041  1.00  0.00     0.009 A 
HETATM    2  C   UNL     1      24.499  47.959  50.174  1.00  0.00     0.039 A 
HETATM    3  C   UNL     1      23.590  47.598  49.158  1.00  0.00     0.030 A 
HETATM    4  C   UNL     1      23.255  46.259  49.009  1.00  0.00     0.063 A 
HETATM    5  N   UNL     1      22.382  46.219  47.959  1.00  0.00    -0.277 N 
HETATM    6  H   UNL     1      21.935  45.399  47.565  1.00  0.00     0.189 HD
HETATM    7  N   UNL     1      22.113  47.416  47.411  1.00  0.00    -0.168 NA
HETATM    8  C   UNL     1      22.856  48.279  48.141  1.00  0.00     0.156 A 
HETATM    9  C   UNL     1      23.784  45.253  49.817  1.00  0.00     0.034 A 
HETATM   10  C   UNL     1      24.683  45.644  50.820  1.00  0.00     0.026 A 
ENDROOT
BRANCH   1  11
HETATM   11  N   UNL     1      25.978  47.388  51.986  1.00  0.00    -0.289 NA
HETATM   12  H   UNL     1      26.314  48.334  51.812  1.00  0.00     0.128 HD
BRANCH  11  13
HETATM   13  C   UNL     1      25.743  47.134  53.399  1.00  0.00     0.131 C 
BRANCH  13  14
HETATM   14  C   UNL     1      26.897  46.343  53.970  1.00  0.00    -0.042 A 
HETATM   15  C   UNL     1      27.123  45.015  53.578  1.00  0.00     0.048 A 
HETATM   16  C   UNL     1      28.202  44.288  54.098  1.00  0.00     0.102 A 
HETATM   17  C   UNL     1      29.072  44.897  55.024  1.00  0.00     0.102 A 
HETATM   18  C   UNL     1      28.833  46.213  55.433  1.00  0.00     0.040 A 
HETATM   19  C   UNL     1      27.753  46.928  54.911  1.00  0.00     0.011 A 
BRANCH  16  20
HETATM   20  O   UNL     1      28.501  42.992  53.756  1.00  0.00    -0.349 OA
BRANCH  20  21
HETATM   21  C   UNL     1      27.805  42.412  52.657  1.00  0.00     0.171 C 
HETATM   22  C   UNL     1      28.387  41.032  52.411  1.00  0.00     0.034 C 
ENDBRANCH  20  21
ENDBRANCH  16  20
BRANCH  17  23
HETATM   23  O   UNL     1      30.112  44.122  55.478  1.00  0.00    -0.349 OA
BRANCH  23  24
HETATM   24  C   UNL     1      30.831  44.582  56.618  1.00  0.00     0.171 C 
HETATM   25  C   UNL     1      31.700  43.441  57.114  1.00  0.00     0.034 C 
ENDBRANCH  23  24
ENDBRANCH  17  23
ENDBRANCH  13  14
ENDBRANCH  11  13
ENDBRANCH   1  11
BRANCH   8  26
HETATM   26  C   UNL     1      22.850  49.720  47.860  1.00  0.00     0.270 C 
HETATM   27  N   UNL     1      21.784  50.389  48.397  1.00  0.00    -0.365 N 
HETATM   28  H   UNL     1      21.099  49.863  48.928  1.00  0.00     0.159 HD
HETATM   29  H   UNL     1      21.692  51.383  48.256  1.00  0.00     0.159 HD
HETATM   30  O   UNL     1      23.708  50.308  47.209  1.00  0.00    -0.266 OA
ENDBRANCH   8  26
TORSDOF 8
ENDMDL
MODEL 4
REMARK VINA RESULT:      -8.0      1.206      2.396
REMARK  8 active torsions:
REMARK  status: ('A' for Active; 'I' for Inactive)
REMARK    1  A    between atoms: C_2  and  O_3 
REMARK    2  A    between atoms: O_3  and  C_4 
REMARK    3  A    between atoms: C_5  and  O_6 
REMARK    4  A    between atoms: O_6  and  C_7 
REMARK    5  A    between atoms: C_10  and  C_11 
REMARK    6  A    between atoms: C_11  and  N_12 
REMARK    7  A    between atoms: N_12  and  C_13 
REMARK    8  A    between atoms: C_20  and  C_21 
REMARK       I    between atoms: C_21  and  N_22 
ROOT
HETATM    1  C   UNL     1      25.510  47.059  51.010  1.00  0.00     0.009 A 
HETATM    2  C   UNL     1      24.313  47.425  50.366  1.00  0.00     0.039 A 
HETATM    3  C   UNL     1      24.325  48.357  49.307  1.00  0.00     0.030 A 
HETATM    4  C   UNL     1      25.533  48.932  48.939  1.00  0.00     0.063 A 
HETATM    5  N   UNL     1      25.232  49.783  47.915  1.00  0.00    -0.277 N 
HETATM    6  H   UNL     1      25.875  50.378  47.403  1.00  0.00     0.189 HD
HETATM    7  N   UNL     1      23.932  49.812  47.577  1.00  0.00    -0.168 NA
HETATM    8  C   UNL     1      23.358  48.936  48.433  1.00  0.00     0.156 A 
HETATM    9  C   UNL     1      26.738  48.632  49.576  1.00  0.00     0.034 A 
HETATM   10  C   UNL     1      26.694  47.699  50.622  1.00  0.00     0.026 A 
ENDROOT
BRANCH   1  11
HETATM   11  N   UNL     1      25.431  46.183  52.100  1.00  0.00    -0.289 NA
HETATM   12  H   UNL     1      24.520  46.217  52.554  1.00  0.00     0.128 HD
BRANCH  11  13
HETATM   13  C   UNL     1      25.937  44.825  51.971  1.00  0.00     0.131 C 
BRANCH  13  14
HETATM   14  C   UNL     1      27.172  44.663  52.826  1.00  0.00    -0.042 A 
HETATM   15  C   UNL     1      27.485  45.597  53.825  1.00  0.00     0.048 A 
HETATM   16  C   UNL     1      28.624  45.437  54.625  1.00  0.00     0.102 A 
HETATM   17  C   UNL     1      29.464  44.323  54.427  1.00  0.00     0.102 A 
HETATM   18  C   UNL     1      29.166  43.405  53.416  1.00  0.00     0.040 A 
HETATM   19  C   UNL     1      28.030  43.574  52.622  1.00  0.00     0.011 A 
BRANCH  16  20
HETATM   20  O   UNL     1      28.993  46.296  55.630  1.00  0.00    -0.349 OA
BRANCH  20  21
HETATM   21  C   UNL     1      28.271  46.240  56.857  1.00  0.00     0.171 C 
HETATM   22  C   UNL     1      29.269  46.011  57.977  1.00  0.00     0.034 C 
ENDBRANCH  20  21
ENDBRANCH  16  20
BRANCH  17  23
HETATM   23  O   UNL     1      30.553  44.232  55.259  1.00  0.00    -0.349 OA
BRANCH  23  24
HETATM   24  C   UNL     1      30.679  43.059  56.058  1.00  0.00     0.171 C 
HETATM   25  C   UNL     1      31.770  43.307  57.083  1.00  0.00     0.034 C 
ENDBRANCH  23  24
ENDBRANCH  17  23
ENDBRANCH  13  14
ENDBRANCH  11  13
ENDBRANCH   1  11
BRANCH   8  26
HETATM   26  C   UNL     1      21.914  48.668  48.399  1.00  0.00     0.270 C 
HETATM   27  N   UNL     1      21.281  48.861  49.597  1.00  0.00    -0.365 N 
HETATM   28  H   UNL     1      21.833  49.162  50.393  1.00  0.00     0.159 HD
HETATM   29  H   UNL     1      20.290  48.702  49.672  1.00  0.00     0.159 HD
HETATM   30  O   UNL     1      21.295  48.305  47.403  1.00  0.00    -0.266 OA
ENDBRANCH   8  26
TORSDOF 8
ENDMDL
MODEL 5
REMARK VINA RESULT:      -8.0      3.482      8.679
REMARK  8 active torsions:
REMARK  status: ('A' for Active; 'I' for Inactive)
REMARK    1  A    between atoms: C_2  and  O_3 
REMARK    2  A    between atoms: O_3  and  C_4 
REMARK    3  A    between atoms: C_5  and  O_6 
REMARK    4  A    between atoms: O_6  and  C_7 
REMARK    5  A    between atoms: C_10  and  C_11 
REMARK    6  A    between atoms: C_11  and  N_12 
REMARK    7  A    between atoms: N_12  and  C_13 
REMARK    8  A    between atoms: C_20  and  C_21 
REMARK       I    between atoms: C_21  and  N_22 
ROOT
HETATM    1  C   UNL     1      28.078  43.311  52.632  1.00  0.00     0.009 A 
HETATM    2  C   UNL     1      28.047  44.213  53.713  1.00  0.00     0.039 A 
HETATM    3  C   UNL     1      29.135  44.298  54.607  1.00  0.00     0.030 A 
HETATM    4  C   UNL     1      30.218  43.451  54.419  1.00  0.00     0.063 A 
HETATM    5  N   UNL     1      31.092  43.752  55.425  1.00  0.00    -0.277 N 
HETATM    6  H   UNL     1      31.993  43.324  55.604  1.00  0.00     0.189 HD
HETATM    7  N   UNL     1      30.676  44.727  56.251  1.00  0.00    -0.168 NA
HETATM    8  C   UNL     1      29.465  45.072  55.758  1.00  0.00     0.156 A 
HETATM    9  C   UNL     1      30.276  42.513  53.389  1.00  0.00     0.034 A 
HETATM   10  C   UNL     1      29.180  42.455  52.515  1.00  0.00     0.026 A 
ENDROOT
BRANCH   1  11
HETATM   11  N   UNL     1      26.943  43.219  51.818  1.00  0.00    -0.289 NA
HETATM   12  H   UNL     1      26.101  43.538  52.296  1.00  0.00     0.128 HD
BRANCH  11  13
HETATM   13  C   UNL     1      27.006  43.679  50.439  1.00  0.00     0.131 C 
BRANCH  13  14
HETATM   14  C   UNL     1      26.167  44.926  50.283  1.00  0.00    -0.042 A 
HETATM   15  C   UNL     1      26.761  46.198  50.285  1.00  0.00     0.048 A 
HETATM   16  C   UNL     1      25.982  47.352  50.127  1.00  0.00     0.102 A 
HETATM   17  C   UNL     1      24.588  47.236  49.961  1.00  0.00     0.102 A 
HETATM   18  C   UNL     1      23.993  45.971  49.982  1.00  0.00     0.040 A 
HETATM   19  C   UNL     1      24.777  44.826  50.143  1.00  0.00     0.011 A 
BRANCH  16  20
HETATM   20  O   UNL     1      26.486  48.630  50.104  1.00  0.00    -0.349 OA
BRANCH  20  21
HETATM   21  C   UNL     1      27.358  48.986  49.037  1.00  0.00     0.171 C 
HETATM   22  C   UNL     1      26.669  50.052  48.205  1.00  0.00     0.034 C 
ENDBRANCH  20  21
ENDBRANCH  16  20
BRANCH  17  23
HETATM   23  O   UNL     1      23.898  48.413  49.800  1.00  0.00    -0.349 OA
BRANCH  23  24
HETATM   24  C   UNL     1      23.171  48.593  48.588  1.00  0.00     0.171 C 
HETATM   25  C   UNL     1      23.054  50.084  48.330  1.00  0.00     0.034 C 
ENDBRANCH  23  24
ENDBRANCH  17  23
ENDBRANCH  13  14
ENDBRANCH  11  13
ENDBRANCH   1  11
BRANCH   8  26
HETATM   26  C   UNL     1      28.655  46.125  56.386  1.00  0.00     0.270 C 
HETATM   27  N   UNL     1      28.087  46.998  55.499  1.00  0.00    -0.365 N 
HETATM   28  H   UNL     1      28.260  46.863  54.509  1.00  0.00     0.159 HD
HETATM   29  H   UNL     1      27.515  47.755  55.836  1.00  0.00     0.159 HD
HETATM   30  O   UNL     1      28.479  46.241  57.595  1.00  0.00    -0.266 OA
ENDBRANCH   8  26
TORSDOF 8
ENDMDL
MODEL 6
REMARK VINA RESULT:      -7.7      4.261      6.127
REMARK  8 active torsions:
REMARK  status: ('A' for Active; 'I' for Inactive)
REMARK    1  A    between atoms: C_2  and  O_3 
REMARK    2  A    between atoms: O_3  and  C_4 
REMARK    3  A    between atoms: C_5  and  O_6 
REMARK    4  A    between atoms: O_6  and  C_7 
REMARK    5  A    between atoms: C_10  and  C_11 
REMARK    6  A    between atoms: C_11  and  N_12 
REMARK    7  A    between atoms: N_12  and  C_13 
REMARK    8  A    between atoms: C_20  and  C_21 
REMARK       I    between atoms: C_21  and  N_22 
ROOT
HETATM    1  C   UNL     1      27.876  40.859  50.928  1.00  0.00     0.009 A 
HETATM    2  C   UNL     1      26.731  41.665  50.789  1.00  0.00     0.039 A 
HETATM    3  C   UNL     1      25.729  41.332  49.854  1.00  0.00     0.030 A 
HETATM    4  C   UNL     1      25.913  40.216  49.050  1.00  0.00     0.063 A 
HETATM    5  N   UNL     1      24.805  40.155  48.254  1.00  0.00    -0.277 N 
HETATM    6  H   UNL     1      24.601  39.467  47.537  1.00  0.00     0.189 HD
HETATM    7  N   UNL     1      23.908  41.132  48.472  1.00  0.00    -0.168 NA
HETATM    8  C   UNL     1      24.469  41.870  49.457  1.00  0.00     0.156 A 
HETATM    9  C   UNL     1      27.051  39.411  49.122  1.00  0.00     0.034 A 
HETATM   10  C   UNL     1      28.027  39.767  50.064  1.00  0.00     0.026 A 
ENDROOT
BRANCH   1  11
HETATM   11  N   UNL     1      28.870  41.275  51.822  1.00  0.00    -0.289 NA
HETATM   12  H   UNL     1      29.227  42.203  51.595  1.00  0.00     0.128 HD
BRANCH  11  13
HETATM   13  C   UNL     1      28.678  41.090  53.252  1.00  0.00     0.131 C 
BRANCH  13  14
HETATM   14  C   UNL     1      28.578  42.438  53.928  1.00  0.00    -0.042 A 
HETATM   15  C   UNL     1      29.685  42.999  54.582  1.00  0.00     0.048 A 
HETATM   16  C   UNL     1      29.593  44.255  55.197  1.00  0.00     0.102 A 
HETATM   17  C   UNL     1      28.376  44.964  55.156  1.00  0.00     0.102 A 
HETATM   18  C   UNL     1      27.266  44.395  54.524  1.00  0.00     0.040 A 
HETATM   19  C   UNL     1      27.367  43.141  53.917  1.00  0.00     0.011 A 
BRANCH  16  20
HETATM   20  O   UNL     1      30.631  44.879  55.844  1.00  0.00    -0.349 OA
BRANCH  20  21
HETATM   21  C   UNL     1      30.905  44.501  57.189  1.00  0.00     0.171 C 
HETATM   22  C   UNL     1      31.941  43.392  57.161  1.00  0.00     0.034 C 
ENDBRANCH  20  21
ENDBRANCH  16  20
BRANCH  17  23
HETATM   23  O   UNL     1      28.372  46.193  55.771  1.00  0.00    -0.349 OA
BRANCH  23  24
HETATM   24  C   UNL     1      28.137  47.339  54.957  1.00  0.00     0.171 C 
HETATM   25  C   UNL     1      26.799  47.931  55.362  1.00  0.00     0.034 C 
ENDBRANCH  23  24
ENDBRANCH  17  23
ENDBRANCH  13  14
ENDBRANCH  11  13
ENDBRANCH   1  11
BRANCH   8  26
HETATM   26  C   UNL     1      23.797  43.059  49.998  1.00  0.00     0.270 C 
HETATM   27  N   UNL     1      24.423  44.239  49.699  1.00  0.00    -0.365 N 
HETATM   28  H   UNL     1      25.274  44.210  49.148  1.00  0.00     0.159 HD
HETATM   29  H   UNL     1      24.038  45.109  50.028  1.00  0.00     0.159 HD
HETATM   30  O   UNL     1      22.765  43.037  50.661  1.00  0.00    -0.266 OA
ENDBRANCH   8  26
TORSDOF 8
ENDMDL
MODEL 7
REMARK VINA RESULT:      -7.6      1.589      2.241
REMARK  8 active torsions:
REMARK  status: ('A' for Active; 'I' for Inactive)
REMARK    1  A    between atoms: C_2  and  O_3 
REMARK    2  A    between atoms: O_3  and  C_4 
REMARK    3  A    between atoms: C_5  and  O_6 
REMARK    4  A    between atoms: O_6  and  C_7 
REMARK    5  A    between atoms: C_10  and  C_11 
REMARK    6  A    between atoms: C_11  and  N_12 
REMARK    7  A    between atoms: N_12  and  C_13 
REMARK    8  A    between atoms: C_20  and  C_21 
REMARK       I    between atoms: C_21  and  N_22 
ROOT
HETATM    1  C   UNL     1      24.549  48.460  49.201  1.00  0.00     0.009 A 
HETATM    2  C   UNL     1      23.215  48.037  49.349  1.00  0.00     0.039 A 
HETATM    3  C   UNL     1      22.161  48.772  48.765  1.00  0.00     0.030 A 
HETATM    4  C   UNL     1      22.465  49.937  48.074  1.00  0.00     0.063 A 
HETATM    5  N   UNL     1      21.265  50.424  47.641  1.00  0.00    -0.277 N 
HETATM    6  H   UNL     1      21.104  51.270  47.105  1.00  0.00     0.189 HD
HETATM    7  N   UNL     1      20.203  49.676  47.984  1.00  0.00    -0.168 NA
HETATM    8  C   UNL     1      20.743  48.651  48.683  1.00  0.00     0.156 A 
HETATM    9  C   UNL     1      23.767  50.418  47.937  1.00  0.00     0.034 A 
HETATM   10  C   UNL     1      24.793  49.663  48.526  1.00  0.00     0.026 A 
ENDROOT
BRANCH   1  11
HETATM   11  N   UNL     1      25.548  47.732  49.859  1.00  0.00    -0.289 NA
HETATM   12  H   UNL     1      26.004  48.279  50.588  1.00  0.00     0.128 HD
BRANCH  11  13
HETATM   13  C   UNL     1      25.286  46.363  50.275  1.00  0.00     0.131 C 
BRANCH  13  14
HETATM   14  C   UNL     1      25.896  46.122  51.637  1.00  0.00    -0.042 A 
HETATM   15  C   UNL     1      26.643  44.964  51.897  1.00  0.00     0.048 A 
HETATM   16  C   UNL     1      27.218  44.750  53.157  1.00  0.00     0.102 A 
HETATM   17  C   UNL     1      27.047  45.710  54.174  1.00  0.00     0.102 A 
HETATM   18  C   UNL     1      26.282  46.853  53.922  1.00  0.00     0.040 A 
HETATM   19  C   UNL     1      25.711  47.056  52.664  1.00  0.00     0.011 A 
BRANCH  16  20
HETATM   20  O   UNL     1      27.974  43.652  53.488  1.00  0.00    -0.349 OA
BRANCH  20  21
HETATM   21  C   UNL     1      28.754  43.043  52.464  1.00  0.00     0.171 C 
HETATM   22  C   UNL     1      30.167  42.872  52.991  1.00  0.00     0.034 C 
ENDBRANCH  20  21
ENDBRANCH  16  20
BRANCH  17  23
HETATM   23  O   UNL     1      27.652  45.432  55.376  1.00  0.00    -0.349 OA
BRANCH  23  24
HETATM   24  C   UNL     1      28.797  46.200  55.733  1.00  0.00     0.171 C 
HETATM   25  C   UNL     1      29.064  45.981  57.211  1.00  0.00     0.034 C 
ENDBRANCH  23  24
ENDBRANCH  17  23
ENDBRANCH  13  14
ENDBRANCH  11  13
ENDBRANCH   1  11
BRANCH   8  26
HETATM   26  C   UNL     1      19.904  47.587  49.250  1.00  0.00     0.270 C 
HETATM   27  N   UNL     1      19.240  47.947  50.391  1.00  0.00    -0.365 N 
HETATM   28  H   UNL     1      19.369  48.886  50.751  1.00  0.00     0.159 HD
HETATM   29  H   UNL     1      18.640  47.283  50.853  1.00  0.00     0.159 HD
HETATM   30  O   UNL     1      19.783  46.464  48.770  1.00  0.00    -0.266 OA
ENDBRANCH   8  26
TORSDOF 8
ENDMDL
MODEL 8
REMARK VINA RESULT:      -7.6      2.039      3.527
REMARK  8 active torsions:
REMARK  status: ('A' for Active; 'I' for Inactive)
REMARK    1  A    between atoms: C_2  and  O_3 
REMARK    2  A    between atoms: O_3  and  C_4 
REMARK    3  A    between atoms: C_5  and  O_6 
REMARK    4  A    between atoms: O_6  and  C_7 
REMARK    5  A    between atoms: C_10  and  C_11 
REMARK    6  A    between atoms: C_11  and  N_12 
REMARK    7  A    between atoms: N_12  and  C_13 
REMARK    8  A    between atoms: C_20  and  C_21 
REMARK       I    between atoms: C_21  and  N_22 
ROOT
HETATM    1  C   UNL     1      24.161  48.626  49.046  1.00  0.00     0.009 A 
HETATM    2  C   UNL     1      22.848  48.144  49.204  1.00  0.00     0.039 A 
HETATM    3  C   UNL     1      21.753  48.862  48.680  1.00  0.00     0.030 A 
HETATM    4  C   UNL     1      21.993  50.069  48.038  1.00  0.00     0.063 A 
HETATM    5  N   UNL     1      20.765  50.527  47.655  1.00  0.00    -0.277 N 
HETATM    6  H   UNL     1      20.558  51.389  47.163  1.00  0.00     0.189 HD
HETATM    7  N   UNL     1      19.741  49.721  47.987  1.00  0.00    -0.168 NA
HETATM    8  C   UNL     1      20.338  48.688  48.624  1.00  0.00     0.156 A 
HETATM    9  C   UNL     1      23.272  50.607  47.894  1.00  0.00     0.034 A 
HETATM   10  C   UNL     1      24.340  49.868  48.423  1.00  0.00     0.026 A 
ENDROOT
BRANCH   1  11
HETATM   11  N   UNL     1      25.203  47.910  49.647  1.00  0.00    -0.289 NA
HETATM   12  H   UNL     1      25.425  48.262  50.577  1.00  0.00     0.128 HD
BRANCH  11  13
HETATM   13  C   UNL     1      25.205  46.456  49.590  1.00  0.00     0.131 C 
BRANCH  13  14
HETATM   14  C   UNL     1      25.823  45.901  50.852  1.00  0.00    -0.042 A 
HETATM   15  C   UNL     1      25.534  46.467  52.104  1.00  0.00     0.048 A 
HETATM   16  C   UNL     1      26.098  45.942  53.274  1.00  0.00     0.102 A 
HETATM   17  C   UNL     1      26.962  44.832  53.196  1.00  0.00     0.102 A 
HETATM   18  C   UNL     1      27.269  44.284  51.947  1.00  0.00     0.040 A 
HETATM   19  C   UNL     1      26.704  44.815  50.785  1.00  0.00     0.011 A 
BRANCH  16  20
HETATM   20  O   UNL     1      25.856  46.427  54.536  1.00  0.00    -0.349 OA
BRANCH  20  21
HETATM   21  C   UNL     1      26.148  47.796  54.795  1.00  0.00     0.171 C 
HETATM   22  C   UNL     1      27.651  47.929  54.965  1.00  0.00     0.034 C 
ENDBRANCH  20  21
ENDBRANCH  16  20
BRANCH  17  23
HETATM   23  O   UNL     1      27.463  44.370  54.389  1.00  0.00    -0.349 OA
BRANCH  23  24
HETATM   24  C   UNL     1      28.862  44.513  54.618  1.00  0.00     0.171 C 
HETATM   25  C   UNL     1      29.471  43.124  54.670  1.00  0.00     0.034 C 
ENDBRANCH  23  24
ENDBRANCH  17  23
ENDBRANCH  13  14
ENDBRANCH  11  13
ENDBRANCH   1  11
BRANCH   8  26
HETATM   26  C   UNL     1      19.556  47.566  49.159  1.00  0.00     0.270 C 
HETATM   27  N   UNL     1      18.973  47.819  50.372  1.00  0.00    -0.365 N 
HETATM   28  H   UNL     1      19.118  48.727  50.799  1.00  0.00     0.159 HD
HETATM   29  H   UNL     1      18.418  47.108  50.820  1.00  0.00     0.159 HD
HETATM   30  O   UNL     1      19.413  46.484  48.598  1.00  0.00    -0.266 OA
ENDBRANCH   8  26
TORSDOF 8
ENDMDL
MODEL 9
REMARK VINA RESULT:      -7.5      3.781      5.844
REMARK  8 active torsions:
REMARK  status: ('A' for Active; 'I' for Inactive)
REMARK    1  A    between atoms: C_2  and  O_3 
REMARK    2  A    between atoms: O_3  and  C_4 
REMARK    3  A    between atoms: C_5  and  O_6 
REMARK    4  A    between atoms: O_6  and  C_7 
REMARK    5  A    between atoms: C_10  and  C_11 
REMARK    6  A    between atoms: C_11  and  N_12 
REMARK    7  A    between atoms: N_12  and  C_13 
REMARK    8  A    between atoms: C_20  and  C_21 
REMARK       I    between atoms: C_21  and  N_22 
ROOT
HETATM    1  C   UNL     1      27.811  41.230  50.990  1.00  0.00     0.009 A 
HETATM    2  C   UNL     1      26.701  42.091  50.895  1.00  0.00     0.039 A 
HETATM    3  C   UNL     1      25.617  41.772  50.050  1.00  0.00     0.030 A 
HETATM    4  C   UNL     1      25.685  40.614  49.289  1.00  0.00     0.063 A 
HETATM    5  N   UNL     1      24.519  40.580  48.578  1.00  0.00    -0.277 N 
HETATM    6  H   UNL     1      24.228  39.874  47.911  1.00  0.00     0.189 HD
HETATM    7  N   UNL     1      23.692  41.613  48.812  1.00  0.00    -0.168 NA
HETATM    8  C   UNL     1      24.361  42.361  49.720  1.00  0.00     0.156 A 
HETATM    9  C   UNL     1      26.781  39.753  49.317  1.00  0.00     0.034 A 
HETATM   10  C   UNL     1      27.841  40.095  50.170  1.00  0.00     0.026 A 
ENDROOT
BRANCH   1  11
HETATM   11  N   UNL     1      28.888  41.629  51.790  1.00  0.00    -0.289 NA
HETATM   12  H   UNL     1      29.172  42.590  51.600  1.00  0.00     0.128 HD
BRANCH  11  13
HETATM   13  C   UNL     1      28.882  41.324  53.212  1.00  0.00     0.131 C 
BRANCH  13  14
HETATM   14  C   UNL     1      29.055  42.600  54.004  1.00  0.00    -0.042 A 
HETATM   15  C   UNL     1      28.010  43.531  54.107  1.00  0.00     0.048 A 
HETATM   16  C   UNL     1      28.169  44.707  54.852  1.00  0.00     0.102 A 
HETATM   17  C   UNL     1      29.390  44.957  55.509  1.00  0.00     0.102 A 
HETATM   18  C   UNL     1      30.439  44.041  55.387  1.00  0.00     0.040 A 
HETATM   19  C   UNL     1      30.273  42.874  54.640  1.00  0.00     0.011 A 
BRANCH  16  20
HETATM   20  O   UNL     1      27.193  45.660  55.014  1.00  0.00    -0.349 OA
BRANCH  20  21
HETATM   21  C   UNL     1      26.996  46.601  53.964  1.00  0.00     0.171 C 
HETATM   22  C   UNL     1      25.715  46.233  53.239  1.00  0.00     0.034 C 
ENDBRANCH  20  21
ENDBRANCH  16  20
BRANCH  17  23
HETATM   23  O   UNL     1      29.461  46.125  56.229  1.00  0.00    -0.349 OA
BRANCH  23  24
HETATM   24  C   UNL     1      29.200  46.057  57.628  1.00  0.00     0.171 C 
HETATM   25  C   UNL     1      30.522  45.830  58.338  1.00  0.00     0.034 C 
ENDBRANCH  23  24
ENDBRANCH  17  23
ENDBRANCH  13  14
ENDBRANCH  11  13
ENDBRANCH   1  11
BRANCH   8  26
HETATM   26  C   UNL     1      23.793  43.607  50.250  1.00  0.00     0.270 C 
HETATM   27  N   UNL     1      23.326  44.463  49.289  1.00  0.00    -0.365 N 
HETATM   28  H   UNL     1      23.404  44.187  48.316  1.00  0.00     0.159 HD
HETATM   29  H   UNL     1      22.920  45.344  49.556  1.00  0.00     0.159 HD
HETATM   30  O   UNL     1      23.724  43.891  51.442  1.00  0.00    -0.266 OA
ENDBRANCH   8  26
TORSDOF 8
ENDMDL
MODEL 10
REMARK VINA RESULT:      -7.5      3.288      8.854
REMARK  8 active torsions:
REMARK  status: ('A' for Active; 'I' for Inactive)
REMARK    1  A    between atoms: C_2  and  O_3 
REMARK    2  A    between atoms: O_3  and  C_4 
REMARK    3  A    between atoms: C_5  and  O_6 
REMARK    4  A    between atoms: O_6  and  C_7 
REMARK    5  A    between atoms: C_10  and  C_11 
REMARK    6  A    between atoms: C_11  and  N_12 
REMARK    7  A    between atoms: N_12  and  C_13 
REMARK    8  A    between atoms: C_20  and  C_21 
REMARK       I    between atoms: C_21  and  N_22 
ROOT
HETATM    1  C   UNL     1      28.053  43.775  52.458  1.00  0.00     0.009 A 
HETATM    2  C   UNL     1      28.022  44.577  53.614  1.00  0.00     0.039 A 
HETATM    3  C   UNL     1      29.039  44.473  54.586  1.00  0.00     0.030 A 
HETATM    4  C   UNL     1      30.049  43.540  54.395  1.00  0.00     0.063 A 
HETATM    5  N   UNL     1      30.865  43.663  55.484  1.00  0.00    -0.277 N 
HETATM    6  H   UNL     1      31.705  43.131  55.683  1.00  0.00     0.189 HD
HETATM    7  N   UNL     1      30.480  44.598  56.367  1.00  0.00    -0.168 NA
HETATM    8  C   UNL     1      29.349  45.106  55.826  1.00  0.00     0.156 A 
HETATM    9  C   UNL     1      30.099  42.695  53.287  1.00  0.00     0.034 A 
HETATM   10  C   UNL     1      29.075  42.825  52.337  1.00  0.00     0.026 A 
ENDROOT
BRANCH   1  11
HETATM   11  N   UNL     1      26.981  43.870  51.561  1.00  0.00    -0.289 NA
HETATM   12  H   UNL     1      26.135  44.218  52.010  1.00  0.00     0.128 HD
BRANCH  11  13
HETATM   13  C   UNL     1      27.192  44.454  50.246  1.00  0.00     0.131 C 
BRANCH  13  14
HETATM   14  C   UNL     1      26.156  45.525  49.996  1.00  0.00    -0.042 A 
HETATM   15  C   UNL     1      24.862  45.189  49.569  1.00  0.00     0.048 A 
HETATM   16  C   UNL     1      23.899  46.183  49.350  1.00  0.00     0.102 A 
HETATM   17  C   UNL     1      24.231  47.536  49.565  1.00  0.00     0.102 A 
HETATM   18  C   UNL     1      25.527  47.872  49.967  1.00  0.00     0.040 A 
HETATM   19  C   UNL     1      26.481  46.874  50.179  1.00  0.00     0.011 A 
BRANCH  16  20
HETATM   20  O   UNL     1      22.609  45.939  48.947  1.00  0.00    -0.349 OA
BRANCH  20  21
HETATM   21  C   UNL     1      22.397  45.513  47.604  1.00  0.00     0.171 C 
HETATM   22  C   UNL     1      21.277  44.489  47.609  1.00  0.00     0.034 C 
ENDBRANCH  20  21
ENDBRANCH  16  20
BRANCH  17  23
HETATM   23  O   UNL     1      23.229  48.448  49.341  1.00  0.00    -0.349 OA
BRANCH  23  24
HETATM   24  C   UNL     1      23.384  49.345  48.245  1.00  0.00     0.171 C 
HETATM   25  C   UNL     1      23.284  50.761  48.784  1.00  0.00     0.034 C 
ENDBRANCH  23  24
ENDBRANCH  17  23
ENDBRANCH  13  14
ENDBRANCH  11  13
ENDBRANCH   1  11
BRANCH   8  26
HETATM   26  C   UNL     1      28.595  46.176  56.493  1.00  0.00     0.270 C 
HETATM   27  N   UNL     1      28.743  46.199  57.853  1.00  0.00    -0.365 N 
HETATM   28  H   UNL     1      29.338  45.502  58.288  1.00  0.00     0.159 HD
HETATM   29  H   UNL     1      28.264  46.897  58.399  1.00  0.00     0.159 HD
HETATM   30  O   UNL     1      27.888  46.996  55.916  1.00  0.00    -0.266 OA
ENDBRANCH   8  26
TORSDOF 8
ENDMDL
