MODEL 1
REMARK VINA RESULT:     -10.6      0.000      0.000
REMARK  6 active torsions:
REMARK  status: ('A' for Active; 'I' for Inactive)
REMARK    1  A    between atoms: C_4  and  C_5 
REMARK    2  A    between atoms: C_5  and  N_6 
REMARK    3  A    between atoms: C_14  and  C_15 
REMARK    4  A    between atoms: C_18  and  O_19 
REMARK    5  A    between atoms: O_19  and  C_20 
REMARK    6  A    between atoms: C_20  and  C_21 
ROOT
HETATM    1  N   UNL     1      19.889  47.928  47.814  1.00  0.00    -0.063 N 
HETATM    2  H   UNL     1      20.338  47.727  46.912  1.00  0.00     0.280 HD
HETATM    3  C   UNL     1      20.888  48.796  48.565  1.00  0.00     0.282 C 
HETATM    4  C   UNL     1      22.131  48.013  48.823  1.00  0.00     0.018 A 
HETATM    5  C   UNL     1      22.216  46.632  48.784  1.00  0.00    -0.023 A 
HETATM    6  C   UNL     1      23.554  46.192  49.042  1.00  0.00     0.073 A 
HETATM    7  C   UNL     1      24.398  47.246  49.298  1.00  0.00     0.088 A 
HETATM    8  N   UNL     1      25.709  47.098  49.566  1.00  0.00    -0.358 N 
HETATM    9  C   UNL     1      26.255  45.787  49.843  1.00  0.00     0.219 C 
HETATM   10  N   UNL     1      25.417  44.736  49.322  1.00  0.00    -0.332 N 
HETATM   11  C   UNL     1      24.085  44.844  49.050  1.00  0.00     0.256 C 
HETATM   12  O   UNL     1      23.393  43.862  48.805  1.00  0.00    -0.267 OA
HETATM   13  S   UNL     1      23.609  48.751  49.225  1.00  0.00    -0.074 SA
HETATM   14  C   UNL     1      21.028  45.776  48.452  1.00  0.00     0.068 C 
HETATM   15  C   UNL     1      19.712  46.579  48.502  1.00  0.00     0.240 C 
HETATM   16  H   UNL     1      26.245  47.874  49.945  1.00  0.00     0.162 HD
HETATM   17  H   UNL     1      25.764  43.789  49.384  1.00  0.00     0.165 HD
ENDROOT
BRANCH   9  18
HETATM   18  C   UNL     1      26.532  45.611  51.322  1.00  0.00    -0.016 A 
HETATM   19  C   UNL     1      26.920  44.375  51.868  1.00  0.00     0.014 A 
HETATM   20  C   UNL     1      27.200  44.242  53.234  1.00  0.00     0.037 A 
HETATM   21  C   UNL     1      27.097  45.345  54.079  1.00  0.00     0.069 A 
HETATM   22  C   UNL     1      26.686  46.570  53.554  1.00  0.00     0.037 A 
HETATM   23  C   UNL     1      26.407  46.706  52.191  1.00  0.00     0.014 A 
BRANCH  21  24
HETATM   24  O   UNL     1      27.357  45.359  55.420  1.00  0.00    -0.347 OA
BRANCH  24  25
HETATM   25  C   UNL     1      28.385  46.238  55.874  1.00  0.00     0.214 C 
BRANCH  25  26
HETATM   26  C   UNL     1      29.518  45.401  56.416  1.00  0.00    -0.034 A 
HETATM   27  C   UNL     1      30.061  44.361  55.648  1.00  0.00     0.009 A 
HETATM   28  C   UNL     1      31.104  43.580  56.149  1.00  0.00     0.001 A 
HETATM   29  C   UNL     1      31.610  43.829  57.424  1.00  0.00     0.000 A 
HETATM   30  C   UNL     1      31.072  44.853  58.200  1.00  0.00     0.001 A 
HETATM   31  C   UNL     1      30.029  45.635  57.700  1.00  0.00     0.009 A 
ENDBRANCH  25  26
ENDBRANCH  24  25
ENDBRANCH  21  24
ENDBRANCH   9  18
BRANCH   1  32
HETATM   32  C   UNL     1      18.604  48.634  47.472  1.00  0.00     0.273 C 
BRANCH  32  33
HETATM   33  C   UNL     1      18.401  49.977  48.117  1.00  0.00    -0.033 A 
HETATM   34  C   UNL     1      17.749  50.078  49.357  1.00  0.00     0.009 A 
HETATM   35  C   UNL     1      17.541  51.324  49.949  1.00  0.00     0.001 A 
HETATM   36  C   UNL     1      17.985  52.481  49.314  1.00  0.00     0.000 A 
HETATM   37  C   UNL     1      18.644  52.394  48.091  1.00  0.00     0.001 A 
HETATM   38  C   UNL     1      18.854  51.150  47.494  1.00  0.00     0.009 A 
ENDBRANCH  32  33
ENDBRANCH   1  32
TORSDOF 6
ENDMDL
MODEL 2
REMARK VINA RESULT:     -10.1      2.066      2.737
REMARK  6 active torsions:
REMARK  status: ('A' for Active; 'I' for Inactive)
REMARK    1  A    between atoms: C_4  and  C_5 
REMARK    2  A    between atoms: C_5  and  N_6 
REMARK    3  A    between atoms: C_14  and  C_15 
REMARK    4  A    between atoms: C_18  and  O_19 
REMARK    5  A    between atoms: O_19  and  C_20 
REMARK    6  A    between atoms: C_20  and  C_21 
ROOT
HETATM    1  N   UNL     1      18.285  50.592  48.910  1.00  0.00    -0.063 N 
HETATM    2  H   UNL     1      18.534  50.519  47.916  1.00  0.00     0.280 HD
HETATM    3  C   UNL     1      19.538  51.123  49.591  1.00  0.00     0.282 C 
HETATM    4  C   UNL     1      20.637  50.123  49.455  1.00  0.00     0.018 A 
HETATM    5  C   UNL     1      20.454  48.785  49.155  1.00  0.00    -0.023 A 
HETATM    6  C   UNL     1      21.710  48.102  49.061  1.00  0.00     0.073 A 
HETATM    7  C   UNL     1      22.768  48.939  49.328  1.00  0.00     0.088 A 
HETATM    8  N   UNL     1      24.053  48.541  49.300  1.00  0.00    -0.358 N 
HETATM    9  C   UNL     1      24.381  47.134  49.226  1.00  0.00     0.219 C 
HETATM   10  N   UNL     1      23.287  46.354  48.703  1.00  0.00    -0.332 N 
HETATM   11  C   UNL     1      21.973  46.718  48.724  1.00  0.00     0.256 C 
HETATM   12  O   UNL     1      21.078  45.925  48.450  1.00  0.00    -0.267 OA
HETATM   13  S   UNL     1      22.273  50.528  49.681  1.00  0.00    -0.074 SA
HETATM   14  C   UNL     1      19.089  48.208  48.918  1.00  0.00     0.068 C 
HETATM   15  C   UNL     1      17.974  49.172  49.369  1.00  0.00     0.240 C 
HETATM   16  H   UNL     1      24.780  49.130  49.698  1.00  0.00     0.162 HD
HETATM   17  H   UNL     1      23.456  45.375  48.526  1.00  0.00     0.165 HD
ENDROOT
BRANCH   9  18
HETATM   18  C   UNL     1      24.859  46.612  50.566  1.00  0.00    -0.016 A 
HETATM   19  C   UNL     1      24.465  45.358  51.063  1.00  0.00     0.014 A 
HETATM   20  C   UNL     1      24.942  44.883  52.291  1.00  0.00     0.037 A 
HETATM   21  C   UNL     1      25.825  45.655  53.044  1.00  0.00     0.069 A 
HETATM   22  C   UNL     1      26.202  46.913  52.574  1.00  0.00     0.037 A 
HETATM   23  C   UNL     1      25.728  47.389  51.348  1.00  0.00     0.014 A 
BRANCH  21  24
HETATM   24  O   UNL     1      26.380  45.307  54.244  1.00  0.00    -0.347 OA
BRANCH  24  25
HETATM   25  C   UNL     1      27.467  46.100  54.712  1.00  0.00     0.214 C 
BRANCH  25  26
HETATM   26  C   UNL     1      28.628  45.184  55.011  1.00  0.00    -0.034 A 
HETATM   27  C   UNL     1      28.746  43.951  54.353  1.00  0.00     0.009 A 
HETATM   28  C   UNL     1      29.814  43.098  54.633  1.00  0.00     0.001 A 
HETATM   29  C   UNL     1      30.772  43.466  55.577  1.00  0.00     0.000 A 
HETATM   30  C   UNL     1      30.660  44.684  56.244  1.00  0.00     0.001 A 
HETATM   31  C   UNL     1      29.593  45.539  55.965  1.00  0.00     0.009 A 
ENDBRANCH  25  26
ENDBRANCH  24  25
ENDBRANCH  21  24
ENDBRANCH   9  18
BRANCH   1  32
HETATM   32  C   UNL     1      17.116  51.540  48.961  1.00  0.00     0.273 C 
BRANCH  32  33
HETATM   33  C   UNL     1      16.465  51.851  47.641  1.00  0.00    -0.033 A 
HETATM   34  C   UNL     1      15.352  52.706  47.583  1.00  0.00     0.009 A 
HETATM   35  C   UNL     1      14.732  52.980  46.364  1.00  0.00     0.001 A 
HETATM   36  C   UNL     1      15.218  52.411  45.190  1.00  0.00     0.000 A 
HETATM   37  C   UNL     1      16.328  51.572  45.232  1.00  0.00     0.001 A 
HETATM   38  C   UNL     1      16.952  51.293  46.449  1.00  0.00     0.009 A 
ENDBRANCH  32  33
ENDBRANCH   1  32
TORSDOF 6
ENDMDL
MODEL 3
REMARK VINA RESULT:     -10.0      2.667     11.534
REMARK  6 active torsions:
REMARK  status: ('A' for Active; 'I' for Inactive)
REMARK    1  A    between atoms: C_4  and  C_5 
REMARK    2  A    between atoms: C_5  and  N_6 
REMARK    3  A    between atoms: C_14  and  C_15 
REMARK    4  A    between atoms: C_18  and  O_19 
REMARK    5  A    between atoms: O_19  and  C_20 
REMARK    6  A    between atoms: C_20  and  C_21 
ROOT
HETATM    1  N   UNL     1      26.202  43.892  51.803  1.00  0.00    -0.063 N 
HETATM    2  H   UNL     1      26.759  43.920  50.941  1.00  0.00     0.280 HD
HETATM    3  C   UNL     1      24.769  43.675  51.339  1.00  0.00     0.282 C 
HETATM    4  C   UNL     1      24.326  44.849  50.533  1.00  0.00     0.018 A 
HETATM    5  C   UNL     1      24.927  46.095  50.556  1.00  0.00    -0.023 A 
HETATM    6  C   UNL     1      24.285  46.993  49.643  1.00  0.00     0.073 A 
HETATM    7  C   UNL     1      23.219  46.402  49.009  1.00  0.00     0.088 A 
HETATM    8  N   UNL     1      22.454  47.033  48.100  1.00  0.00    -0.358 N 
HETATM    9  C   UNL     1      22.564  48.464  47.918  1.00  0.00     0.219 C 
HETATM   10  N   UNL     1      23.827  48.970  48.397  1.00  0.00    -0.332 N 
HETATM   11  C   UNL     1      24.623  48.365  49.325  1.00  0.00     0.256 C 
HETATM   12  O   UNL     1      25.577  48.944  49.834  1.00  0.00    -0.267 OA
HETATM   13  S   UNL     1      22.985  44.786  49.489  1.00  0.00    -0.074 SA
HETATM   14  C   UNL     1      26.128  46.377  51.411  1.00  0.00     0.068 C 
HETATM   15  C   UNL     1      26.365  45.263  52.451  1.00  0.00     0.240 C 
HETATM   16  H   UNL     1      21.565  46.632  47.811  1.00  0.00     0.162 HD
HETATM   17  H   UNL     1      24.034  49.943  48.226  1.00  0.00     0.165 HD
ENDROOT
BRANCH   9  18
HETATM   18  C   UNL     1      21.390  49.187  48.546  1.00  0.00    -0.016 A 
HETATM   19  C   UNL     1      20.255  48.503  49.014  1.00  0.00     0.014 A 
HETATM   20  C   UNL     1      19.194  49.189  49.618  1.00  0.00     0.037 A 
HETATM   21  C   UNL     1      19.249  50.574  49.765  1.00  0.00     0.069 A 
HETATM   22  C   UNL     1      20.358  51.266  49.280  1.00  0.00     0.037 A 
HETATM   23  C   UNL     1      21.419  50.585  48.678  1.00  0.00     0.014 A 
BRANCH  21  24
HETATM   24  O   UNL     1      18.297  51.361  50.350  1.00  0.00    -0.347 OA
BRANCH  24  25
HETATM   25  C   UNL     1      17.761  52.424  49.565  1.00  0.00     0.214 C 
BRANCH  25  26
HETATM   26  C   UNL     1      17.107  51.827  48.343  1.00  0.00    -0.034 A 
HETATM   27  C   UNL     1      16.027  50.944  48.478  1.00  0.00     0.009 A 
HETATM   28  C   UNL     1      15.424  50.384  47.349  1.00  0.00     0.001 A 
HETATM   29  C   UNL     1      15.899  50.699  46.077  1.00  0.00     0.000 A 
HETATM   30  C   UNL     1      16.979  51.567  45.932  1.00  0.00     0.001 A 
HETATM   31  C   UNL     1      17.582  52.128  47.059  1.00  0.00     0.009 A 
ENDBRANCH  25  26
ENDBRANCH  24  25
ENDBRANCH  21  24
ENDBRANCH   9  18
BRANCH   1  32
HETATM   32  C   UNL     1      26.764  42.747  52.604  1.00  0.00     0.273 C 
BRANCH  32  33
HETATM   33  C   UNL     1      28.083  43.002  53.278  1.00  0.00    -0.033 A 
HETATM   34  C   UNL     1      29.280  42.569  52.684  1.00  0.00     0.009 A 
HETATM   35  C   UNL     1      30.504  42.786  53.316  1.00  0.00     0.001 A 
HETATM   36  C   UNL     1      30.550  43.442  54.544  1.00  0.00     0.000 A 
HETATM   37  C   UNL     1      29.372  43.888  55.138  1.00  0.00     0.001 A 
HETATM   38  C   UNL     1      28.144  43.672  54.510  1.00  0.00     0.009 A 
ENDBRANCH  32  33
ENDBRANCH   1  32
TORSDOF 6
ENDMDL
MODEL 4
REMARK VINA RESULT:     -10.0      2.492     11.087
REMARK  6 active torsions:
REMARK  status: ('A' for Active; 'I' for Inactive)
REMARK    1  A    between atoms: C_4  and  C_5 
REMARK    2  A    between atoms: C_5  and  N_6 
REMARK    3  A    between atoms: C_14  and  C_15 
REMARK    4  A    between atoms: C_18  and  O_19 
REMARK    5  A    between atoms: O_19  and  C_20 
REMARK    6  A    between atoms: C_20  and  C_21 
ROOT
HETATM    1  N   UNL     1      29.232  42.967  54.045  1.00  0.00    -0.063 N 
HETATM    2  H   UNL     1      28.805  42.043  53.911  1.00  0.00     0.280 HD
HETATM    3  C   UNL     1      28.086  43.871  54.476  1.00  0.00     0.282 C 
HETATM    4  C   UNL     1      27.090  43.970  53.371  1.00  0.00     0.018 A 
HETATM    5  C   UNL     1      27.348  43.664  52.046  1.00  0.00    -0.023 A 
HETATM    6  C   UNL     1      26.174  43.830  51.242  1.00  0.00     0.073 A 
HETATM    7  C   UNL     1      25.108  44.284  51.981  1.00  0.00     0.088 A 
HETATM    8  N   UNL     1      23.889  44.515  51.460  1.00  0.00    -0.358 N 
HETATM    9  C   UNL     1      23.698  44.532  50.025  1.00  0.00     0.219 C 
HETATM   10  N   UNL     1      24.745  43.820  49.337  1.00  0.00    -0.332 N 
HETATM   11  C   UNL     1      25.994  43.576  49.827  1.00  0.00     0.256 C 
HETATM   12  O   UNL     1      26.896  43.146  49.115  1.00  0.00    -0.267 OA
HETATM   13  S   UNL     1      25.496  44.505  53.623  1.00  0.00    -0.074 SA
HETATM   14  C   UNL     1      28.693  43.175  51.595  1.00  0.00     0.068 C 
HETATM   15  C   UNL     1      29.770  43.382  52.680  1.00  0.00     0.240 C 
HETATM   16  H   UNL     1      23.195  45.037  51.990  1.00  0.00     0.162 HD
HETATM   17  H   UNL     1      24.646  43.696  48.340  1.00  0.00     0.165 HD
ENDROOT
BRANCH   9  18
HETATM   18  C   UNL     1      23.544  45.949  49.511  1.00  0.00    -0.016 A 
HETATM   19  C   UNL     1      24.356  47.002  49.966  1.00  0.00     0.014 A 
HETATM   20  C   UNL     1      24.216  48.298  49.455  1.00  0.00     0.037 A 
HETATM   21  C   UNL     1      23.259  48.565  48.477  1.00  0.00     0.069 A 
HETATM   22  C   UNL     1      22.429  47.534  48.037  1.00  0.00     0.037 A 
HETATM   23  C   UNL     1      22.567  46.239  48.545  1.00  0.00     0.014 A 
BRANCH  21  24
HETATM   24  O   UNL     1      23.030  49.773  47.882  1.00  0.00    -0.347 OA
BRANCH  24  25
HETATM   25  C   UNL     1      22.665  50.858  48.732  1.00  0.00     0.214 C 
BRANCH  25  26
HETATM   26  C   UNL     1      21.160  50.965  48.743  1.00  0.00    -0.034 A 
HETATM   27  C   UNL     1      20.479  51.258  49.933  1.00  0.00     0.009 A 
HETATM   28  C   UNL     1      19.086  51.350  49.948  1.00  0.00     0.001 A 
HETATM   29  C   UNL     1      18.361  51.145  48.774  1.00  0.00     0.000 A 
HETATM   30  C   UNL     1      19.026  50.844  47.588  1.00  0.00     0.001 A 
HETATM   31  C   UNL     1      20.419  50.751  47.572  1.00  0.00     0.009 A 
ENDBRANCH  25  26
ENDBRANCH  24  25
ENDBRANCH  21  24
ENDBRANCH   9  18
BRANCH   1  32
HETATM   32  C   UNL     1      30.285  42.771  55.103  1.00  0.00     0.273 C 
BRANCH  32  33
HETATM   33  C   UNL     1      30.405  43.871  56.121  1.00  0.00    -0.033 A 
HETATM   34  C   UNL     1      29.731  45.089  55.933  1.00  0.00     0.009 A 
HETATM   35  C   UNL     1      29.856  46.119  56.865  1.00  0.00     0.001 A 
HETATM   36  C   UNL     1      30.648  45.944  57.997  1.00  0.00     0.000 A 
HETATM   37  C   UNL     1      31.311  44.738  58.202  1.00  0.00     0.001 A 
HETATM   38  C   UNL     1      31.191  43.704  57.272  1.00  0.00     0.009 A 
ENDBRANCH  32  33
ENDBRANCH   1  32
TORSDOF 6
ENDMDL
MODEL 5
REMARK VINA RESULT:      -9.8      3.055     11.948
REMARK  6 active torsions:
REMARK  status: ('A' for Active; 'I' for Inactive)
REMARK    1  A    between atoms: C_4  and  C_5 
REMARK    2  A    between atoms: C_5  and  N_6 
REMARK    3  A    between atoms: C_14  and  C_15 
REMARK    4  A    between atoms: C_18  and  O_19 
REMARK    5  A    between atoms: O_19  and  C_20 
REMARK    6  A    between atoms: C_20  and  C_21 
ROOT
HETATM    1  N   UNL     1      25.571  44.797  50.466  1.00  0.00    -0.063 N 
HETATM    2  H   UNL     1      26.068  44.951  49.580  1.00  0.00     0.280 HD
HETATM    3  C   UNL     1      24.120  44.568  50.067  1.00  0.00     0.282 C 
HETATM    4  C   UNL     1      23.578  45.806  49.435  1.00  0.00     0.018 A 
HETATM    5  C   UNL     1      24.131  47.067  49.570  1.00  0.00    -0.023 A 
HETATM    6  C   UNL     1      23.396  48.035  48.812  1.00  0.00     0.073 A 
HETATM    7  C   UNL     1      22.314  47.473  48.178  1.00  0.00     0.088 A 
HETATM    8  N   UNL     1      21.466  48.169  47.399  1.00  0.00    -0.358 N 
HETATM    9  C   UNL     1      21.508  49.616  47.383  1.00  0.00     0.219 C 
HETATM   10  N   UNL     1      22.779  50.120  47.840  1.00  0.00    -0.332 N 
HETATM   11  C   UNL     1      23.658  49.450  48.639  1.00  0.00     0.256 C 
HETATM   12  O   UNL     1      24.620  50.009  49.155  1.00  0.00    -0.267 OA
HETATM   13  S   UNL     1      22.175  45.803  48.475  1.00  0.00    -0.074 SA
HETATM   14  C   UNL     1      25.373  47.304  50.378  1.00  0.00     0.068 C 
HETATM   15  C   UNL     1      25.722  46.088  51.261  1.00  0.00     0.240 C 
HETATM   16  H   UNL     1      20.576  47.764  47.119  1.00  0.00     0.162 HD
HETATM   17  H   UNL     1      22.936  51.115  47.775  1.00  0.00     0.165 HD
ENDROOT
BRANCH   9  18
HETATM   18  C   UNL     1      20.350  50.205  48.163  1.00  0.00    -0.016 A 
HETATM   19  C   UNL     1      20.518  51.283  49.049  1.00  0.00     0.014 A 
HETATM   20  C   UNL     1      19.429  51.832  49.737  1.00  0.00     0.037 A 
HETATM   21  C   UNL     1      18.150  51.311  49.550  1.00  0.00     0.069 A 
HETATM   22  C   UNL     1      17.975  50.224  48.694  1.00  0.00     0.037 A 
HETATM   23  C   UNL     1      19.060  49.674  48.005  1.00  0.00     0.014 A 
BRANCH  21  24
HETATM   24  O   UNL     1      17.002  51.760  50.140  1.00  0.00    -0.347 OA
BRANCH  24  25
HETATM   25  C   UNL     1      15.773  51.467  49.480  1.00  0.00     0.214 C 
BRANCH  25  26
HETATM   26  C   UNL     1      14.926  52.716  49.480  1.00  0.00    -0.034 A 
HETATM   27  C   UNL     1      14.235  53.103  50.638  1.00  0.00     0.009 A 
HETATM   28  C   UNL     1      13.444  54.254  50.639  1.00  0.00     0.001 A 
HETATM   29  C   UNL     1      13.333  55.025  49.482  1.00  0.00     0.000 A 
HETATM   30  C   UNL     1      14.007  54.644  48.324  1.00  0.00     0.001 A 
HETATM   31  C   UNL     1      14.798  53.494  48.321  1.00  0.00     0.009 A 
ENDBRANCH  25  26
ENDBRANCH  24  25
ENDBRANCH  21  24
ENDBRANCH   9  18
BRANCH   1  32
HETATM   32  C   UNL     1      26.228  43.593  51.088  1.00  0.00     0.273 C 
BRANCH  32  33
HETATM   33  C   UNL     1      26.943  43.835  52.389  1.00  0.00    -0.033 A 
HETATM   34  C   UNL     1      28.346  43.794  52.446  1.00  0.00     0.009 A 
HETATM   35  C   UNL     1      29.013  43.998  53.654  1.00  0.00     0.001 A 
HETATM   36  C   UNL     1      28.288  44.250  54.817  1.00  0.00     0.000 A 
HETATM   37  C   UNL     1      26.898  44.306  54.772  1.00  0.00     0.001 A 
HETATM   38  C   UNL     1      26.226  44.102  53.565  1.00  0.00     0.009 A 
ENDBRANCH  32  33
ENDBRANCH   1  32
TORSDOF 6
ENDMDL
MODEL 6
REMARK VINA RESULT:      -9.7      1.316      2.346
REMARK  6 active torsions:
REMARK  status: ('A' for Active; 'I' for Inactive)
REMARK    1  A    between atoms: C_4  and  C_5 
REMARK    2  A    between atoms: C_5  and  N_6 
REMARK    3  A    between atoms: C_14  and  C_15 
REMARK    4  A    between atoms: C_18  and  O_19 
REMARK    5  A    between atoms: O_19  and  C_20 
REMARK    6  A    between atoms: C_20  and  C_21 
ROOT
HETATM    1  N   UNL     1      19.788  48.094  47.888  1.00  0.00    -0.063 N 
HETATM    2  H   UNL     1      20.218  47.929  46.970  1.00  0.00     0.280 HD
HETATM    3  C   UNL     1      20.796  48.946  48.646  1.00  0.00     0.282 C 
HETATM    4  C   UNL     1      22.052  48.167  48.849  1.00  0.00     0.018 A 
HETATM    5  C   UNL     1      22.149  46.790  48.759  1.00  0.00    -0.023 A 
HETATM    6  C   UNL     1      23.497  46.355  48.972  1.00  0.00     0.073 A 
HETATM    7  C   UNL     1      24.337  47.408  49.246  1.00  0.00     0.088 A 
HETATM    8  N   UNL     1      25.655  47.265  49.478  1.00  0.00    -0.358 N 
HETATM    9  C   UNL     1      26.220  45.950  49.696  1.00  0.00     0.219 C 
HETATM   10  N   UNL     1      25.381  44.909  49.159  1.00  0.00    -0.332 N 
HETATM   11  C   UNL     1      24.041  45.013  48.921  1.00  0.00     0.256 C 
HETATM   12  O   UNL     1      23.353  44.033  48.657  1.00  0.00    -0.267 OA
HETATM   13  S   UNL     1      23.531  48.907  49.243  1.00  0.00    -0.074 SA
HETATM   14  C   UNL     1      20.963  45.934  48.425  1.00  0.00     0.068 C 
HETATM   15  C   UNL     1      19.640  46.720  48.533  1.00  0.00     0.240 C 
HETATM   16  H   UNL     1      26.192  48.033  49.872  1.00  0.00     0.162 HD
HETATM   17  H   UNL     1      25.738  43.965  49.179  1.00  0.00     0.165 HD
ENDROOT
BRANCH   9  18
HETATM   18  C   UNL     1      26.533  45.726  51.162  1.00  0.00    -0.016 A 
HETATM   19  C   UNL     1      27.119  44.537  51.627  1.00  0.00     0.014 A 
HETATM   20  C   UNL     1      27.426  44.363  52.983  1.00  0.00     0.037 A 
HETATM   21  C   UNL     1      27.153  45.378  53.898  1.00  0.00     0.069 A 
HETATM   22  C   UNL     1      26.547  46.552  53.452  1.00  0.00     0.037 A 
HETATM   23  C   UNL     1      26.239  46.729  52.100  1.00  0.00     0.014 A 
BRANCH  21  24
HETATM   24  O   UNL     1      27.418  45.348  55.238  1.00  0.00    -0.347 OA
BRANCH  24  25
HETATM   25  C   UNL     1      28.456  46.200  55.715  1.00  0.00     0.214 C 
BRANCH  25  26
HETATM   26  C   UNL     1      29.543  45.337  56.307  1.00  0.00    -0.034 A 
HETATM   27  C   UNL     1      30.039  45.603  57.592  1.00  0.00     0.009 A 
HETATM   28  C   UNL     1      31.050  44.811  58.138  1.00  0.00     0.001 A 
HETATM   29  C   UNL     1      31.578  43.750  57.405  1.00  0.00     0.000 A 
HETATM   30  C   UNL     1      31.101  43.483  56.124  1.00  0.00     0.001 A 
HETATM   31  C   UNL     1      30.090  44.273  55.575  1.00  0.00     0.009 A 
ENDBRANCH  25  26
ENDBRANCH  24  25
ENDBRANCH  21  24
ENDBRANCH   9  18
BRANCH   1  32
HETATM   32  C   UNL     1      18.488  48.797  47.601  1.00  0.00     0.273 C 
BRANCH  32  33
HETATM   33  C   UNL     1      17.744  48.329  46.382  1.00  0.00    -0.033 A 
HETATM   34  C   UNL     1      16.389  47.967  46.472  1.00  0.00     0.009 A 
HETATM   35  C   UNL     1      15.700  47.512  45.348  1.00  0.00     0.001 A 
HETATM   36  C   UNL     1      16.351  47.420  44.121  1.00  0.00     0.000 A 
HETATM   37  C   UNL     1      17.690  47.787  44.014  1.00  0.00     0.001 A 
HETATM   38  C   UNL     1      18.384  48.242  45.136  1.00  0.00     0.009 A 
ENDBRANCH  32  33
ENDBRANCH   1  32
TORSDOF 6
ENDMDL
MODEL 7
REMARK VINA RESULT:      -9.5      4.564      6.606
REMARK  6 active torsions:
REMARK  status: ('A' for Active; 'I' for Inactive)
REMARK    1  A    between atoms: C_4  and  C_5 
REMARK    2  A    between atoms: C_5  and  N_6 
REMARK    3  A    between atoms: C_14  and  C_15 
REMARK    4  A    between atoms: C_18  and  O_19 
REMARK    5  A    between atoms: O_19  and  C_20 
REMARK    6  A    between atoms: C_20  and  C_21 
ROOT
HETATM    1  N   UNL     1      22.447  48.791  48.590  1.00  0.00    -0.063 N 
HETATM    2  H   UNL     1      21.971  48.749  49.498  1.00  0.00     0.280 HD
HETATM    3  C   UNL     1      22.216  47.426  47.959  1.00  0.00     0.282 C 
HETATM    4  C   UNL     1      22.879  46.378  48.788  1.00  0.00     0.018 A 
HETATM    5  C   UNL     1      23.881  46.619  49.711  1.00  0.00    -0.023 A 
HETATM    6  C   UNL     1      24.281  45.409  50.365  1.00  0.00     0.073 A 
HETATM    7  C   UNL     1      23.596  44.318  49.884  1.00  0.00     0.088 A 
HETATM    8  N   UNL     1      23.784  43.066  50.338  1.00  0.00    -0.358 N 
HETATM    9  C   UNL     1      24.908  42.760  51.198  1.00  0.00     0.219 C 
HETATM   10  N   UNL     1      25.416  43.938  51.855  1.00  0.00    -0.332 N 
HETATM   11  C   UNL     1      25.256  45.221  51.420  1.00  0.00     0.256 C 
HETATM   12  O   UNL     1      25.883  46.154  51.912  1.00  0.00    -0.267 OA
HETATM   13  S   UNL     1      22.479  44.730  48.668  1.00  0.00    -0.074 SA
HETATM   14  C   UNL     1      24.394  48.004  49.978  1.00  0.00     0.068 C 
HETATM   15  C   UNL     1      23.924  49.005  48.902  1.00  0.00     0.240 C 
HETATM   16  H   UNL     1      23.412  42.272  49.823  1.00  0.00     0.162 HD
HETATM   17  H   UNL     1      26.139  43.810  52.548  1.00  0.00     0.165 HD
ENDROOT
BRANCH   9  18
HETATM   18  C   UNL     1      25.992  42.022  50.439  1.00  0.00    -0.016 A 
HETATM   19  C   UNL     1      26.031  41.989  49.035  1.00  0.00     0.014 A 
HETATM   20  C   UNL     1      27.059  41.326  48.354  1.00  0.00     0.037 A 
HETATM   21  C   UNL     1      28.069  40.683  49.067  1.00  0.00     0.069 A 
HETATM   22  C   UNL     1      28.026  40.686  50.461  1.00  0.00     0.037 A 
HETATM   23  C   UNL     1      27.002  41.348  51.144  1.00  0.00     0.014 A 
BRANCH  21  24
HETATM   24  O   UNL     1      29.136  40.018  48.532  1.00  0.00    -0.347 OA
BRANCH  24  25
HETATM   25  C   UNL     1      29.381  38.695  49.003  1.00  0.00     0.214 C 
BRANCH  25  26
HETATM   26  C   UNL     1      28.456  37.753  48.271  1.00  0.00    -0.034 A 
HETATM   27  C   UNL     1      27.353  37.189  48.928  1.00  0.00     0.009 A 
HETATM   28  C   UNL     1      26.500  36.312  48.256  1.00  0.00     0.001 A 
HETATM   29  C   UNL     1      26.745  35.987  46.923  1.00  0.00     0.000 A 
HETATM   30  C   UNL     1      27.843  36.533  46.263  1.00  0.00     0.001 A 
HETATM   31  C   UNL     1      28.697  37.410  46.933  1.00  0.00     0.009 A 
ENDBRANCH  25  26
ENDBRANCH  24  25
ENDBRANCH  21  24
ENDBRANCH   9  18
BRANCH   1  32
HETATM   32  C   UNL     1      21.791  49.925  47.847  1.00  0.00     0.273 C 
BRANCH  32  33
HETATM   33  C   UNL     1      20.618  50.568  48.534  1.00  0.00    -0.033 A 
HETATM   34  C   UNL     1      20.018  49.948  49.643  1.00  0.00     0.009 A 
HETATM   35  C   UNL     1      18.917  50.531  50.271  1.00  0.00     0.001 A 
HETATM   36  C   UNL     1      18.408  51.741  49.805  1.00  0.00     0.000 A 
HETATM   37  C   UNL     1      19.001  52.372  48.716  1.00  0.00     0.001 A 
HETATM   38  C   UNL     1      20.102  51.792  48.083  1.00  0.00     0.009 A 
ENDBRANCH  32  33
ENDBRANCH   1  32
TORSDOF 6
ENDMDL
MODEL 8
REMARK VINA RESULT:      -9.4     19.140     21.592
REMARK  6 active torsions:
REMARK  status: ('A' for Active; 'I' for Inactive)
REMARK    1  A    between atoms: C_4  and  C_5 
REMARK    2  A    between atoms: C_5  and  N_6 
REMARK    3  A    between atoms: C_14  and  C_15 
REMARK    4  A    between atoms: C_18  and  O_19 
REMARK    5  A    between atoms: O_19  and  C_20 
REMARK    6  A    between atoms: C_20  and  C_21 
ROOT
HETATM    1  N   UNL     1      37.497  49.321  67.403  1.00  0.00    -0.063 N 
HETATM    2  H   UNL     1      37.471  49.823  66.507  1.00  0.00     0.280 HD
HETATM    3  C   UNL     1      38.853  48.631  67.427  1.00  0.00     0.282 C 
HETATM    4  C   UNL     1      38.918  47.628  66.325  1.00  0.00     0.018 A 
HETATM    5  C   UNL     1      37.819  47.101  65.671  1.00  0.00    -0.023 A 
HETATM    6  C   UNL     1      38.220  46.191  64.641  1.00  0.00     0.073 A 
HETATM    7  C   UNL     1      39.586  46.046  64.591  1.00  0.00     0.088 A 
HETATM    8  N   UNL     1      40.216  45.250  63.706  1.00  0.00    -0.358 N 
HETATM    9  C   UNL     1      39.464  44.304  62.910  1.00  0.00     0.219 C 
HETATM   10  N   UNL     1      38.073  44.669  62.815  1.00  0.00    -0.332 N 
HETATM   11  C   UNL     1      37.398  45.462  63.697  1.00  0.00     0.256 C 
HETATM   12  O   UNL     1      36.176  45.565  63.670  1.00  0.00    -0.267 OA
HETATM   13  S   UNL     1      40.389  46.991  65.756  1.00  0.00    -0.074 SA
HETATM   14  C   UNL     1      36.419  47.519  66.016  1.00  0.00     0.068 C 
HETATM   15  C   UNL     1      36.366  48.301  67.344  1.00  0.00     0.240 C 
HETATM   16  H   UNL     1      41.197  45.018  63.834  1.00  0.00     0.162 HD
HETATM   17  H   UNL     1      37.488  44.121  62.201  1.00  0.00     0.165 HD
ENDROOT
BRANCH   9  18
HETATM   18  C   UNL     1      39.646  42.890  63.424  1.00  0.00    -0.016 A 
HETATM   19  C   UNL     1      40.367  42.609  64.597  1.00  0.00     0.014 A 
HETATM   20  C   UNL     1      40.497  41.298  65.070  1.00  0.00     0.037 A 
HETATM   21  C   UNL     1      39.907  40.242  64.377  1.00  0.00     0.069 A 
HETATM   22  C   UNL     1      39.213  40.506  63.197  1.00  0.00     0.037 A 
HETATM   23  C   UNL     1      39.080  41.814  62.722  1.00  0.00     0.014 A 
BRANCH  21  24
HETATM   24  O   UNL     1      39.940  38.924  64.736  1.00  0.00    -0.347 OA
BRANCH  24  25
HETATM   25  C   UNL     1      41.197  38.257  64.645  1.00  0.00     0.214 C 
BRANCH  25  26
HETATM   26  C   UNL     1      41.111  36.976  65.437  1.00  0.00    -0.034 A 
HETATM   27  C   UNL     1      42.183  36.072  65.442  1.00  0.00     0.009 A 
HETATM   28  C   UNL     1      42.104  34.882  66.168  1.00  0.00     0.001 A 
HETATM   29  C   UNL     1      40.951  34.583  66.892  1.00  0.00     0.000 A 
HETATM   30  C   UNL     1      39.875  35.469  66.887  1.00  0.00     0.001 A 
HETATM   31  C   UNL     1      39.953  36.659  66.162  1.00  0.00     0.009 A 
ENDBRANCH  25  26
ENDBRANCH  24  25
ENDBRANCH  21  24
ENDBRANCH   9  18
BRANCH   1  32
HETATM   32  C   UNL     1      37.334  50.381  68.460  1.00  0.00     0.273 C 
BRANCH  32  33
HETATM   33  C   UNL     1      37.339  51.803  67.970  1.00  0.00    -0.033 A 
HETATM   34  C   UNL     1      37.763  52.103  66.665  1.00  0.00     0.009 A 
HETATM   35  C   UNL     1      37.789  53.422  66.213  1.00  0.00     0.001 A 
HETATM   36  C   UNL     1      37.386  54.456  67.054  1.00  0.00     0.000 A 
HETATM   37  C   UNL     1      36.950  54.172  68.346  1.00  0.00     0.001 A 
HETATM   38  C   UNL     1      36.924  52.853  68.803  1.00  0.00     0.009 A 
ENDBRANCH  32  33
ENDBRANCH   1  32
TORSDOF 6
ENDMDL
MODEL 9
REMARK VINA RESULT:      -9.2      7.245     12.157
REMARK  6 active torsions:
REMARK  status: ('A' for Active; 'I' for Inactive)
REMARK    1  A    between atoms: C_4  and  C_5 
REMARK    2  A    between atoms: C_5  and  N_6 
REMARK    3  A    between atoms: C_14  and  C_15 
REMARK    4  A    between atoms: C_18  and  O_19 
REMARK    5  A    between atoms: O_19  and  C_20 
REMARK    6  A    between atoms: C_20  and  C_21 
ROOT
HETATM    1  N   UNL     1      28.585  44.012  53.843  1.00  0.00    -0.063 N 
HETATM    2  H   UNL     1      28.189  43.296  54.463  1.00  0.00     0.280 HD
HETATM    3  C   UNL     1      27.532  44.225  52.765  1.00  0.00     0.282 C 
HETATM    4  C   UNL     1      27.364  42.967  51.981  1.00  0.00     0.018 A 
HETATM    5  C   UNL     1      28.283  41.934  51.940  1.00  0.00    -0.023 A 
HETATM    6  C   UNL     1      27.810  40.856  51.125  1.00  0.00     0.073 A 
HETATM    7  C   UNL     1      26.586  41.137  50.566  1.00  0.00     0.088 A 
HETATM    8  N   UNL     1      25.923  40.283  49.764  1.00  0.00    -0.358 N 
HETATM    9  C   UNL     1      26.585  39.106  49.243  1.00  0.00     0.219 C 
HETATM   10  N   UNL     1      27.729  38.738  50.038  1.00  0.00    -0.332 N 
HETATM   11  C   UNL     1      28.433  39.576  50.853  1.00  0.00     0.256 C 
HETATM   12  O   UNL     1      29.510  39.251  51.340  1.00  0.00    -0.267 OA
HETATM   13  S   UNL     1      25.999  42.670  51.012  1.00  0.00    -0.074 SA
HETATM   14  C   UNL     1      29.565  41.986  52.718  1.00  0.00     0.068 C 
HETATM   15  C   UNL     1      29.852  43.403  53.255  1.00  0.00     0.240 C 
HETATM   16  H   UNL     1      25.130  40.606  49.216  1.00  0.00     0.162 HD
HETATM   17  H   UNL     1      28.198  37.874  49.808  1.00  0.00     0.165 HD
ENDROOT
BRANCH   9  18
HETATM   18  C   UNL     1      26.944  39.283  47.781  1.00  0.00    -0.016 A 
HETATM   19  C   UNL     1      27.486  40.480  47.285  1.00  0.00     0.014 A 
HETATM   20  C   UNL     1      27.839  40.611  45.936  1.00  0.00     0.037 A 
HETATM   21  C   UNL     1      27.654  39.544  45.058  1.00  0.00     0.069 A 
HETATM   22  C   UNL     1      27.091  38.360  45.534  1.00  0.00     0.037 A 
HETATM   23  C   UNL     1      26.739  38.226  46.880  1.00  0.00     0.014 A 
BRANCH  21  24
HETATM   24  O   UNL     1      27.971  39.530  43.729  1.00  0.00    -0.347 OA
BRANCH  24  25
HETATM   25  C   UNL     1      29.213  40.117  43.350  1.00  0.00     0.214 C 
BRANCH  25  26
HETATM   26  C   UNL     1      30.086  39.038  42.758  1.00  0.00    -0.034 A 
HETATM   27  C   UNL     1      29.632  37.712  42.699  1.00  0.00     0.009 A 
HETATM   28  C   UNL     1      30.441  36.710  42.159  1.00  0.00     0.001 A 
HETATM   29  C   UNL     1      31.712  37.023  41.679  1.00  0.00     0.000 A 
HETATM   30  C   UNL     1      32.178  38.334  41.743  1.00  0.00     0.001 A 
HETATM   31  C   UNL     1      31.371  39.337  42.282  1.00  0.00     0.009 A 
ENDBRANCH  25  26
ENDBRANCH  24  25
ENDBRANCH  21  24
ENDBRANCH   9  18
BRANCH   1  32
HETATM   32  C   UNL     1      28.813  45.217  54.718  1.00  0.00     0.273 C 
BRANCH  32  33
HETATM   33  C   UNL     1      29.679  44.995  55.927  1.00  0.00    -0.033 A 
HETATM   34  C   UNL     1      29.558  45.831  57.050  1.00  0.00     0.009 A 
HETATM   35  C   UNL     1      30.373  45.642  58.165  1.00  0.00     0.001 A 
HETATM   36  C   UNL     1      31.314  44.615  58.176  1.00  0.00     0.000 A 
HETATM   37  C   UNL     1      31.436  43.772  57.075  1.00  0.00     0.001 A 
HETATM   38  C   UNL     1      30.622  43.957  55.956  1.00  0.00     0.009 A 
ENDBRANCH  32  33
ENDBRANCH   1  32
TORSDOF 6
ENDMDL
MODEL 10
REMARK VINA RESULT:      -9.1      2.655     11.782
REMARK  6 active torsions:
REMARK  status: ('A' for Active; 'I' for Inactive)
REMARK    1  A    between atoms: C_4  and  C_5 
REMARK    2  A    between atoms: C_5  and  N_6 
REMARK    3  A    between atoms: C_14  and  C_15 
REMARK    4  A    between atoms: C_18  and  O_19 
REMARK    5  A    between atoms: O_19  and  C_20 
REMARK    6  A    between atoms: C_20  and  C_21 
ROOT
HETATM    1  N   UNL     1      26.484  44.040  53.077  1.00  0.00    -0.063 N 
HETATM    2  H   UNL     1      27.210  44.362  52.426  1.00  0.00     0.280 HD
HETATM    3  C   UNL     1      25.536  43.205  52.227  1.00  0.00     0.282 C 
HETATM    4  C   UNL     1      24.894  44.076  51.200  1.00  0.00     0.018 A 
HETATM    5  C   UNL     1      24.825  45.456  51.267  1.00  0.00    -0.023 A 
HETATM    6  C   UNL     1      24.176  45.995  50.109  1.00  0.00     0.073 A 
HETATM    7  C   UNL     1      23.757  45.007  49.251  1.00  0.00     0.088 A 
HETATM    8  N   UNL     1      23.125  45.252  48.088  1.00  0.00    -0.358 N 
HETATM    9  C   UNL     1      22.628  46.579  47.792  1.00  0.00     0.219 C 
HETATM   10  N   UNL     1      23.298  47.589  48.572  1.00  0.00    -0.332 N 
HETATM   11  C   UNL     1      23.939  47.381  49.759  1.00  0.00     0.256 C 
HETATM   12  O   UNL     1      24.309  48.312  50.467  1.00  0.00    -0.267 OA
HETATM   13  S   UNL     1      24.139  43.446  49.812  1.00  0.00    -0.074 SA
HETATM   14  C   UNL     1      25.424  46.223  52.409  1.00  0.00     0.068 C 
HETATM   15  C   UNL     1      25.792  45.299  53.588  1.00  0.00     0.240 C 
HETATM   16  H   UNL     1      22.658  44.499  47.590  1.00  0.00     0.162 HD
HETATM   17  H   UNL     1      23.086  48.554  48.366  1.00  0.00     0.165 HD
ENDROOT
BRANCH   9  18
HETATM   18  C   UNL     1      21.123  46.647  47.951  1.00  0.00    -0.016 A 
HETATM   19  C   UNL     1      20.454  47.852  48.225  1.00  0.00     0.014 A 
HETATM   20  C   UNL     1      19.059  47.897  48.338  1.00  0.00     0.037 A 
HETATM   21  C   UNL     1      18.306  46.735  48.177  1.00  0.00     0.069 A 
HETATM   22  C   UNL     1      18.961  45.528  47.932  1.00  0.00     0.037 A 
HETATM   23  C   UNL     1      20.354  45.480  47.818  1.00  0.00     0.014 A 
BRANCH  21  24
HETATM   24  O   UNL     1      16.945  46.641  48.242  1.00  0.00    -0.347 OA
BRANCH  24  25
HETATM   25  C   UNL     1      16.252  47.694  48.908  1.00  0.00     0.214 C 
BRANCH  25  26
HETATM   26  C   UNL     1      15.807  48.697  47.872  1.00  0.00    -0.034 A 
HETATM   27  C   UNL     1      15.164  48.269  46.701  1.00  0.00     0.009 A 
HETATM   28  C   UNL     1      14.759  49.194  45.737  1.00  0.00     0.001 A 
HETATM   29  C   UNL     1      14.997  50.554  45.932  1.00  0.00     0.000 A 
HETATM   30  C   UNL     1      15.644  50.990  47.086  1.00  0.00     0.001 A 
HETATM   31  C   UNL     1      16.050  50.066  48.051  1.00  0.00     0.009 A 
ENDBRANCH  25  26
ENDBRANCH  24  25
ENDBRANCH  21  24
ENDBRANCH   9  18
BRANCH   1  32
HETATM   32  C   UNL     1      27.213  43.250  54.131  1.00  0.00     0.273 C 
BRANCH  32  33
HETATM   33  C   UNL     1      28.400  43.929  54.756  1.00  0.00    -0.033 A 
HETATM   34  C   UNL     1      28.275  45.219  55.300  1.00  0.00     0.009 A 
HETATM   35  C   UNL     1      29.378  45.861  55.863  1.00  0.00     0.001 A 
HETATM   36  C   UNL     1      30.615  45.223  55.895  1.00  0.00     0.000 A 
HETATM   37  C   UNL     1      30.751  43.940  55.371  1.00  0.00     0.001 A 
HETATM   38  C   UNL     1      29.650  43.293  54.806  1.00  0.00     0.009 A 
ENDBRANCH  32  33
ENDBRANCH   1  32
TORSDOF 6
ENDMDL
