MODEL 1
REMARK VINA RESULT:      -9.8      0.000      0.000
REMARK  5 active torsions:
REMARK  status: ('A' for Active; 'I' for Inactive)
REMARK    1  A    between atoms: C_2  and  N_3 
REMARK       I    between atoms: N_3  and  C_4 
REMARK       I    between atoms: C_4  and  N_5 
REMARK    2  A    between atoms: N_5  and  C_6 
REMARK    3  A    between atoms: C_9  and  C_10 
REMARK    4  A    between atoms: C_10  and  N_11 
REMARK       I    between atoms: N_11  and  C_12 
REMARK    5  A    between atoms: C_12  and  C_13 
ROOT
HETATM    1  N   UNL     1      28.566  43.184  52.205  1.00  0.00    -0.353 N 
HETATM    2  C   UNL     1      28.505  42.689  53.493  1.00  0.00     0.254 C 
HETATM    3  O   UNL     1      27.825  41.707  53.782  1.00  0.00    -0.268 OA
HETATM    4  H   UNL     1      28.969  44.086  52.003  1.00  0.00     0.163 HD
ENDROOT
BRANCH   1   5
HETATM    5  C   UNL     1      27.701  42.608  51.203  1.00  0.00     0.161 C 
BRANCH   5   6
HETATM    6  C   UNL     1      26.537  43.493  50.853  1.00  0.00    -0.040 A 
HETATM    7  C   UNL     1      25.596  43.841  51.829  1.00  0.00     0.011 A 
HETATM    8  C   UNL     1      24.599  44.785  51.555  1.00  0.00     0.030 A 
HETATM    9  C   UNL     1      24.523  45.392  50.301  1.00  0.00     0.036 A 
HETATM   10  C   UNL     1      25.406  44.974  49.297  1.00  0.00     0.030 A 
HETATM   11  C   UNL     1      26.407  44.035  49.570  1.00  0.00     0.011 A 
BRANCH   9  12
HETATM   12  N   UNL     1      23.644  46.450  49.988  1.00  0.00    -0.309 N 
HETATM   13  C   UNL     1      23.940  47.799  49.972  1.00  0.00     0.321 C 
HETATM   14  N   UNL     1      22.894  48.513  49.417  1.00  0.00    -0.339 N 
HETATM   15  O   UNL     1      24.989  48.320  50.324  1.00  0.00    -0.247 OA
HETATM   16  H   UNL     1      21.973  48.127  49.560  1.00  0.00     0.164 HD
HETATM   17  H   UNL     1      22.797  46.194  49.507  1.00  0.00     0.170 HD
BRANCH  14  18
HETATM   18  C   UNL     1      22.954  49.944  49.136  1.00  0.00     0.078 C 
HETATM   19  C   UNL     1      21.617  50.647  49.372  1.00  0.00     0.032 C 
HETATM   20  C   UNL     1      23.510  50.241  47.747  1.00  0.00     0.032 C 
ENDBRANCH  14  18
ENDBRANCH   9  12
ENDBRANCH   5   6
ENDBRANCH   1   5
BRANCH   2  21
HETATM   21  C   UNL     1      29.265  43.395  54.558  1.00  0.00     0.064 A 
HETATM   22  C   UNL     1      28.847  44.650  54.976  1.00  0.00     0.077 A 
HETATM   23  C   UNL     1      29.522  45.374  55.964  1.00  0.00     0.065 A 
HETATM   24  N   UNL     1      27.759  45.425  54.563  1.00  0.00    -0.330 N 
HETATM   25  N   UNL     1      28.854  46.583  56.152  1.00  0.00    -0.331 N 
HETATM   26  C   UNL     1      30.643  44.890  56.589  1.00  0.00     0.074 A 
HETATM   27  C   UNL     1      27.751  46.619  55.287  1.00  0.00     0.176 A 
HETATM   28  H   UNL     1      29.094  47.316  56.803  1.00  0.00     0.168 HD
HETATM   29  S   UNL     1      26.656  47.842  55.160  1.00  0.00    -0.041 SA
HETATM   30  C   UNL     1      31.070  43.626  56.186  1.00  0.00     0.119 A 
HETATM   31  F   UNL     1      32.156  43.095  56.765  1.00  0.00    -0.206 F 
HETATM   32  C   UNL     1      30.402  42.877  55.194  1.00  0.00     0.061 A 
HETATM   33  H   UNL     1      27.085  45.128  53.864  1.00  0.00     0.168 HD
ENDBRANCH   2  21
TORSDOF 5
ENDMDL
MODEL 2
REMARK VINA RESULT:      -9.0      3.818      8.640
REMARK  5 active torsions:
REMARK  status: ('A' for Active; 'I' for Inactive)
REMARK    1  A    between atoms: C_2  and  N_3 
REMARK       I    between atoms: N_3  and  C_4 
REMARK       I    between atoms: C_4  and  N_5 
REMARK    2  A    between atoms: N_5  and  C_6 
REMARK    3  A    between atoms: C_9  and  C_10 
REMARK    4  A    between atoms: C_10  and  N_11 
REMARK       I    between atoms: N_11  and  C_12 
REMARK    5  A    between atoms: C_12  and  C_13 
ROOT
HETATM    1  N   UNL     1      25.933  46.852  52.624  1.00  0.00    -0.353 N 
HETATM    2  C   UNL     1      25.261  46.733  51.423  1.00  0.00     0.254 C 
HETATM    3  O   UNL     1      24.469  45.819  51.207  1.00  0.00    -0.268 OA
HETATM    4  H   UNL     1      26.710  47.484  52.736  1.00  0.00     0.163 HD
ENDROOT
BRANCH   1   5
HETATM    5  C   UNL     1      25.793  45.797  53.600  1.00  0.00     0.161 C 
BRANCH   5   6
HETATM    6  C   UNL     1      26.754  44.663  53.379  1.00  0.00    -0.040 A 
HETATM    7  C   UNL     1      26.930  43.684  54.364  1.00  0.00     0.011 A 
HETATM    8  C   UNL     1      27.702  42.544  54.109  1.00  0.00     0.030 A 
HETATM    9  C   UNL     1      28.315  42.368  52.868  1.00  0.00     0.036 A 
HETATM   10  C   UNL     1      28.217  43.391  51.917  1.00  0.00     0.030 A 
HETATM   11  C   UNL     1      27.441  44.528  52.168  1.00  0.00     0.011 A 
BRANCH   9  12
HETATM   12  N   UNL     1      28.989  41.190  52.481  1.00  0.00    -0.309 N 
HETATM   13  C   UNL     1      28.515  40.199  51.643  1.00  0.00     0.321 C 
HETATM   14  N   UNL     1      29.528  39.311  51.330  1.00  0.00    -0.339 N 
HETATM   15  O   UNL     1      27.390  40.119  51.171  1.00  0.00    -0.247 OA
HETATM   16  H   UNL     1      30.232  39.177  52.040  1.00  0.00     0.164 HD
HETATM   17  H   UNL     1      29.984  41.179  52.634  1.00  0.00     0.170 HD
BRANCH  14  18
HETATM   18  C   UNL     1      29.382  38.230  50.360  1.00  0.00     0.078 C 
HETATM   19  C   UNL     1      29.601  36.850  50.979  1.00  0.00     0.032 C 
HETATM   20  C   UNL     1      30.251  38.437  49.124  1.00  0.00     0.032 C 
ENDBRANCH  14  18
ENDBRANCH   9  12
ENDBRANCH   5   6
ENDBRANCH   1   5
BRANCH   2  21
HETATM   21  C   UNL     1      25.542  47.730  50.355  1.00  0.00     0.064 A 
HETATM   22  C   UNL     1      24.494  48.236  49.601  1.00  0.00     0.077 A 
HETATM   23  C   UNL     1      24.689  49.165  48.575  1.00  0.00     0.065 A 
HETATM   24  N   UNL     1      23.121  47.974  49.670  1.00  0.00    -0.330 N 
HETATM   25  N   UNL     1      23.447  49.469  48.019  1.00  0.00    -0.331 N 
HETATM   26  C   UNL     1      25.932  49.643  48.247  1.00  0.00     0.074 A 
HETATM   27  C   UNL     1      22.466  48.736  48.701  1.00  0.00     0.176 A 
HETATM   28  H   UNL     1      23.259  50.114  47.266  1.00  0.00     0.168 HD
HETATM   29  S   UNL     1      20.845  48.774  48.408  1.00  0.00    -0.041 SA
HETATM   30  C   UNL     1      26.995  49.152  49.003  1.00  0.00     0.119 A 
HETATM   31  F   UNL     1      28.234  49.586  48.735  1.00  0.00    -0.206 F 
HETATM   32  C   UNL     1      26.820  48.215  50.044  1.00  0.00     0.061 A 
HETATM   33  H   UNL     1      22.698  47.346  50.346  1.00  0.00     0.168 HD
ENDBRANCH   2  21
TORSDOF 5
ENDMDL
MODEL 3
REMARK VINA RESULT:      -8.8      5.542      9.368
REMARK  5 active torsions:
REMARK  status: ('A' for Active; 'I' for Inactive)
REMARK    1  A    between atoms: C_2  and  N_3 
REMARK       I    between atoms: N_3  and  C_4 
REMARK       I    between atoms: C_4  and  N_5 
REMARK    2  A    between atoms: N_5  and  C_6 
REMARK    3  A    between atoms: C_9  and  C_10 
REMARK    4  A    between atoms: C_10  and  N_11 
REMARK       I    between atoms: N_11  and  C_12 
REMARK    5  A    between atoms: C_12  and  C_13 
ROOT
HETATM    1  N   UNL     1      21.611  48.747  49.524  1.00  0.00    -0.353 N 
HETATM    2  C   UNL     1      22.498  48.462  48.504  1.00  0.00     0.254 C 
HETATM    3  O   UNL     1      22.119  48.078  47.400  1.00  0.00    -0.268 OA
HETATM    4  H   UNL     1      21.923  48.882  50.474  1.00  0.00     0.163 HD
ENDROOT
BRANCH   1   5
HETATM    5  C   UNL     1      20.211  48.459  49.322  1.00  0.00     0.161 C 
BRANCH   5   6
HETATM    6  C   UNL     1      19.396  49.686  49.028  1.00  0.00    -0.040 A 
HETATM    7  C   UNL     1      18.064  49.566  48.612  1.00  0.00     0.011 A 
HETATM    8  C   UNL     1      17.251  50.698  48.485  1.00  0.00     0.030 A 
HETATM    9  C   UNL     1      17.756  51.968  48.766  1.00  0.00     0.036 A 
HETATM   10  C   UNL     1      19.113  52.096  49.091  1.00  0.00     0.030 A 
HETATM   11  C   UNL     1      19.926  50.966  49.224  1.00  0.00     0.011 A 
BRANCH   9  12
HETATM   12  N   UNL     1      16.971  53.140  48.801  1.00  0.00    -0.309 N 
HETATM   13  C   UNL     1      16.038  53.487  49.759  1.00  0.00     0.321 C 
HETATM   14  N   UNL     1      15.625  54.794  49.575  1.00  0.00    -0.339 N 
HETATM   15  O   UNL     1      15.655  52.792  50.690  1.00  0.00    -0.247 OA
HETATM   16  H   UNL     1      15.623  55.125  48.623  1.00  0.00     0.164 HD
HETATM   17  H   UNL     1      17.280  53.897  48.213  1.00  0.00     0.170 HD
BRANCH  14  18
HETATM   18  C   UNL     1      14.745  55.499  50.502  1.00  0.00     0.078 C 
HETATM   19  C   UNL     1      13.267  55.340  50.147  1.00  0.00     0.032 C 
HETATM   20  C   UNL     1      15.131  56.966  50.665  1.00  0.00     0.032 C 
ENDBRANCH  14  18
ENDBRANCH   9  12
ENDBRANCH   5   6
ENDBRANCH   1   5
BRANCH   2  21
HETATM   21  C   UNL     1      23.954  48.596  48.776  1.00  0.00     0.064 A 
HETATM   22  C   UNL     1      24.577  47.688  49.620  1.00  0.00     0.077 A 
HETATM   23  C   UNL     1      25.938  47.763  49.927  1.00  0.00     0.065 A 
HETATM   24  N   UNL     1      24.056  46.584  50.303  1.00  0.00    -0.330 N 
HETATM   25  N   UNL     1      26.249  46.714  50.792  1.00  0.00    -0.331 N 
HETATM   26  C   UNL     1      26.753  48.738  49.411  1.00  0.00     0.074 A 
HETATM   27  C   UNL     1      25.083  45.972  51.025  1.00  0.00     0.176 A 
HETATM   28  H   UNL     1      27.153  46.497  51.184  1.00  0.00     0.168 HD
HETATM   29  S   UNL     1      24.957  44.631  51.972  1.00  0.00    -0.041 SA
HETATM   30  C   UNL     1      26.144  49.652  48.552  1.00  0.00     0.119 A 
HETATM   31  F   UNL     1      26.888  50.625  48.010  1.00  0.00    -0.206 F 
HETATM   32  C   UNL     1      24.772  49.593  48.227  1.00  0.00     0.061 A 
HETATM   33  H   UNL     1      23.088  46.285  50.241  1.00  0.00     0.168 HD
ENDBRANCH   2  21
TORSDOF 5
ENDMDL
MODEL 4
REMARK VINA RESULT:      -8.8      1.549      1.996
REMARK  5 active torsions:
REMARK  status: ('A' for Active; 'I' for Inactive)
REMARK    1  A    between atoms: C_2  and  N_3 
REMARK       I    between atoms: N_3  and  C_4 
REMARK       I    between atoms: C_4  and  N_5 
REMARK    2  A    between atoms: N_5  and  C_6 
REMARK    3  A    between atoms: C_9  and  C_10 
REMARK    4  A    between atoms: C_10  and  N_11 
REMARK       I    between atoms: N_11  and  C_12 
REMARK    5  A    between atoms: C_12  and  C_13 
ROOT
HETATM    1  N   UNL     1      28.153  44.095  51.794  1.00  0.00    -0.353 N 
HETATM    2  C   UNL     1      28.113  43.350  52.957  1.00  0.00     0.254 C 
HETATM    3  O   UNL     1      27.415  42.343  53.062  1.00  0.00    -0.268 OA
HETATM    4  H   UNL     1      28.574  45.011  51.767  1.00  0.00     0.163 HD
ENDROOT
BRANCH   1   5
HETATM    5  C   UNL     1      27.249  43.751  50.722  1.00  0.00     0.161 C 
BRANCH   5   6
HETATM    6  C   UNL     1      26.306  44.866  50.370  1.00  0.00    -0.040 A 
HETATM    7  C   UNL     1      25.392  44.713  49.320  1.00  0.00     0.011 A 
HETATM    8  C   UNL     1      24.408  45.680  49.083  1.00  0.00     0.030 A 
HETATM    9  C   UNL     1      24.325  46.818  49.886  1.00  0.00     0.036 A 
HETATM   10  C   UNL     1      25.298  47.016  50.874  1.00  0.00     0.030 A 
HETATM   11  C   UNL     1      26.278  46.048  51.117  1.00  0.00     0.011 A 
BRANCH   9  12
HETATM   12  N   UNL     1      23.283  47.766  49.806  1.00  0.00    -0.309 N 
HETATM   13  C   UNL     1      22.087  47.631  49.129  1.00  0.00     0.321 C 
HETATM   14  N   UNL     1      21.234  48.671  49.450  1.00  0.00    -0.339 N 
HETATM   15  O   UNL     1      21.764  46.707  48.396  1.00  0.00    -0.247 OA
HETATM   16  H   UNL     1      21.675  49.551  49.669  1.00  0.00     0.164 HD
HETATM   17  H   UNL     1      23.305  48.506  50.489  1.00  0.00     0.170 HD
BRANCH  14  18
HETATM   18  C   UNL     1      19.846  48.743  49.003  1.00  0.00     0.078 C 
HETATM   19  C   UNL     1      19.684  49.547  47.713  1.00  0.00     0.032 C 
HETATM   20  C   UNL     1      18.908  49.240  50.099  1.00  0.00     0.032 C 
ENDBRANCH  14  18
ENDBRANCH   9  12
ENDBRANCH   5   6
ENDBRANCH   1   5
BRANCH   2  21
HETATM   21  C   UNL     1      28.917  43.811  54.120  1.00  0.00     0.064 A 
HETATM   22  C   UNL     1      28.574  44.993  54.760  1.00  0.00     0.077 A 
HETATM   23  C   UNL     1      29.294  45.490  55.851  1.00  0.00     0.065 A 
HETATM   24  N   UNL     1      27.532  45.890  54.506  1.00  0.00    -0.330 N 
HETATM   25  N   UNL     1      28.698  46.682  56.260  1.00  0.00    -0.331 N 
HETATM   26  C   UNL     1      30.387  44.839  56.364  1.00  0.00     0.074 A 
HETATM   27  C   UNL     1      27.597  46.934  55.431  1.00  0.00     0.176 A 
HETATM   28  H   UNL     1      28.983  47.272  57.027  1.00  0.00     0.168 HD
HETATM   29  S   UNL     1      26.574  48.221  55.537  1.00  0.00    -0.041 SA
HETATM   30  C   UNL     1      30.737  43.644  55.738  1.00  0.00     0.119 A 
HETATM   31  F   UNL     1      31.792  42.958  56.198  1.00  0.00    -0.206 F 
HETATM   32  C   UNL     1      30.023  43.124  54.638  1.00  0.00     0.061 A 
HETATM   33  H   UNL     1      26.840  45.761  53.775  1.00  0.00     0.168 HD
ENDBRANCH   2  21
TORSDOF 5
ENDMDL
MODEL 5
REMARK VINA RESULT:      -8.7      4.772     10.202
REMARK  5 active torsions:
REMARK  status: ('A' for Active; 'I' for Inactive)
REMARK    1  A    between atoms: C_2  and  N_3 
REMARK       I    between atoms: N_3  and  C_4 
REMARK       I    between atoms: C_4  and  N_5 
REMARK    2  A    between atoms: N_5  and  C_6 
REMARK    3  A    between atoms: C_9  and  C_10 
REMARK    4  A    between atoms: C_10  and  N_11 
REMARK       I    between atoms: N_11  and  C_12 
REMARK    5  A    between atoms: C_12  and  C_13 
ROOT
HETATM    1  N   UNL     1      22.760  50.173  48.337  1.00  0.00    -0.353 N 
HETATM    2  C   UNL     1      22.117  50.608  49.480  1.00  0.00     0.254 C 
HETATM    3  O   UNL     1      22.728  51.105  50.422  1.00  0.00    -0.268 OA
HETATM    4  H   UNL     1      22.291  49.604  47.649  1.00  0.00     0.163 HD
ENDROOT
BRANCH   1   5
HETATM    5  C   UNL     1      24.203  50.185  48.311  1.00  0.00     0.161 C 
BRANCH   5   6
HETATM    6  C   UNL     1      24.812  48.961  48.935  1.00  0.00    -0.040 A 
HETATM    7  C   UNL     1      26.196  48.884  49.135  1.00  0.00     0.011 A 
HETATM    8  C   UNL     1      26.756  47.821  49.853  1.00  0.00     0.030 A 
HETATM    9  C   UNL     1      25.943  46.815  50.377  1.00  0.00     0.036 A 
HETATM   10  C   UNL     1      24.571  46.843  50.096  1.00  0.00     0.030 A 
HETATM   11  C   UNL     1      24.009  47.908  49.384  1.00  0.00     0.011 A 
BRANCH   9  12
HETATM   12  N   UNL     1      26.407  45.790  51.229  1.00  0.00    -0.309 N 
HETATM   13  C   UNL     1      27.078  44.641  50.858  1.00  0.00     0.321 C 
HETATM   14  N   UNL     1      27.555  43.983  51.976  1.00  0.00    -0.339 N 
HETATM   15  O   UNL     1      27.299  44.262  49.716  1.00  0.00    -0.247 OA
HETATM   16  H   UNL     1      27.004  44.081  52.814  1.00  0.00     0.164 HD
HETATM   17  H   UNL     1      26.466  46.021  52.208  1.00  0.00     0.170 HD
BRANCH  14  18
HETATM   18  C   UNL     1      28.421  42.808  51.912  1.00  0.00     0.078 C 
HETATM   19  C   UNL     1      27.674  41.509  52.212  1.00  0.00     0.032 C 
HETATM   20  C   UNL     1      29.666  42.957  52.780  1.00  0.00     0.032 C 
ENDBRANCH  14  18
ENDBRANCH   9  12
ENDBRANCH   5   6
ENDBRANCH   1   5
BRANCH   2  21
HETATM   21  C   UNL     1      20.643  50.432  49.571  1.00  0.00     0.064 A 
HETATM   22  C   UNL     1      20.092  49.175  49.365  1.00  0.00     0.077 A 
HETATM   23  C   UNL     1      18.715  48.942  49.425  1.00  0.00     0.065 A 
HETATM   24  N   UNL     1      20.709  47.953  49.080  1.00  0.00    -0.330 N 
HETATM   25  N   UNL     1      18.490  47.589  49.176  1.00  0.00    -0.331 N 
HETATM   26  C   UNL     1      17.814  49.941  49.694  1.00  0.00     0.074 A 
HETATM   27  C   UNL     1      19.728  46.966  48.967  1.00  0.00     0.176 A 
HETATM   28  H   UNL     1      17.601  47.113  49.159  1.00  0.00     0.168 HD
HETATM   29  S   UNL     1      19.971  45.368  48.651  1.00  0.00    -0.041 SA
HETATM   30  C   UNL     1      18.354  51.208  49.913  1.00  0.00     0.119 A 
HETATM   31  F   UNL     1      17.525  52.224  50.188  1.00  0.00    -0.206 F 
HETATM   32  C   UNL     1      19.740  51.464  49.861  1.00  0.00     0.061 A 
HETATM   33  H   UNL     1      21.714  47.831  49.000  1.00  0.00     0.168 HD
ENDBRANCH   2  21
TORSDOF 5
ENDMDL
MODEL 6
REMARK VINA RESULT:      -8.6      4.297      7.347
REMARK  5 active torsions:
REMARK  status: ('A' for Active; 'I' for Inactive)
REMARK    1  A    between atoms: C_2  and  N_3 
REMARK       I    between atoms: N_3  and  C_4 
REMARK       I    between atoms: C_4  and  N_5 
REMARK    2  A    between atoms: N_5  and  C_6 
REMARK    3  A    between atoms: C_9  and  C_10 
REMARK    4  A    between atoms: C_10  and  N_11 
REMARK       I    between atoms: N_11  and  C_12 
REMARK    5  A    between atoms: C_12  and  C_13 
ROOT
HETATM    1  N   UNL     1      23.183  47.658  49.432  1.00  0.00    -0.353 N 
HETATM    2  C   UNL     1      24.430  47.474  49.997  1.00  0.00     0.254 C 
HETATM    3  O   UNL     1      25.345  48.278  49.831  1.00  0.00    -0.268 OA
HETATM    4  H   UNL     1      22.497  46.919  49.412  1.00  0.00     0.163 HD
ENDROOT
BRANCH   1   5
HETATM    5  C   UNL     1      22.995  48.759  48.517  1.00  0.00     0.161 C 
BRANCH   5   6
HETATM    6  C   UNL     1      21.747  49.548  48.797  1.00  0.00    -0.040 A 
HETATM    7  C   UNL     1      20.700  48.976  49.531  1.00  0.00     0.011 A 
HETATM    8  C   UNL     1      19.602  49.749  49.929  1.00  0.00     0.030 A 
HETATM    9  C   UNL     1      19.531  51.102  49.596  1.00  0.00     0.036 A 
HETATM   10  C   UNL     1      20.531  51.649  48.784  1.00  0.00     0.030 A 
HETATM   11  C   UNL     1      21.632  50.881  48.389  1.00  0.00     0.011 A 
BRANCH   9  12
HETATM   12  N   UNL     1      18.536  51.981  50.076  1.00  0.00    -0.309 N 
HETATM   13  C   UNL     1      17.435  52.447  49.385  1.00  0.00     0.321 C 
HETATM   14  N   UNL     1      16.579  53.114  50.240  1.00  0.00    -0.339 N 
HETATM   15  O   UNL     1      17.184  52.260  48.202  1.00  0.00    -0.247 OA
HETATM   16  H   UNL     1      17.013  53.587  51.018  1.00  0.00     0.164 HD
HETATM   17  H   UNL     1      18.490  52.093  51.076  1.00  0.00     0.170 HD
BRANCH  14  18
HETATM   18  C   UNL     1      15.264  53.607  49.842  1.00  0.00     0.078 C 
HETATM   19  C   UNL     1      15.177  55.133  49.860  1.00  0.00     0.032 C 
HETATM   20  C   UNL     1      14.135  52.969  50.647  1.00  0.00     0.032 C 
ENDBRANCH  14  18
ENDBRANCH   9  12
ENDBRANCH   5   6
ENDBRANCH   1   5
BRANCH   2  21
HETATM   21  C   UNL     1      24.669  46.244  50.798  1.00  0.00     0.064 A 
HETATM   22  C   UNL     1      25.199  46.354  52.075  1.00  0.00     0.077 A 
HETATM   23  C   UNL     1      25.459  45.239  52.876  1.00  0.00     0.065 A 
HETATM   24  N   UNL     1      25.567  47.487  52.807  1.00  0.00    -0.330 N 
HETATM   25  N   UNL     1      25.983  45.685  54.089  1.00  0.00    -0.331 N 
HETATM   26  C   UNL     1      25.204  43.958  52.455  1.00  0.00     0.074 A 
HETATM   27  C   UNL     1      26.046  47.085  54.055  1.00  0.00     0.176 A 
HETATM   28  H   UNL     1      26.261  45.119  54.876  1.00  0.00     0.168 HD
HETATM   29  S   UNL     1      26.585  48.063  55.266  1.00  0.00    -0.041 SA
HETATM   30  C   UNL     1      24.661  43.832  51.177  1.00  0.00     0.119 A 
HETATM   31  F   UNL     1      24.383  42.608  50.711  1.00  0.00    -0.206 F 
HETATM   32  C   UNL     1      24.388  44.944  50.353  1.00  0.00     0.061 A 
HETATM   33  H   UNL     1      25.463  48.438  52.468  1.00  0.00     0.168 HD
ENDBRANCH   2  21
TORSDOF 5
ENDMDL
MODEL 7
REMARK VINA RESULT:      -8.6      3.124      3.664
REMARK  5 active torsions:
REMARK  status: ('A' for Active; 'I' for Inactive)
REMARK    1  A    between atoms: C_2  and  N_3 
REMARK       I    between atoms: N_3  and  C_4 
REMARK       I    between atoms: C_4  and  N_5 
REMARK    2  A    between atoms: N_5  and  C_6 
REMARK    3  A    between atoms: C_9  and  C_10 
REMARK    4  A    between atoms: C_10  and  N_11 
REMARK       I    between atoms: N_11  and  C_12 
REMARK    5  A    between atoms: C_12  and  C_13 
ROOT
HETATM    1  N   UNL     1      28.766  41.931  53.860  1.00  0.00    -0.353 N 
HETATM    2  C   UNL     1      29.800  42.847  53.846  1.00  0.00     0.254 C 
HETATM    3  O   UNL     1      30.587  42.928  52.905  1.00  0.00    -0.268 OA
HETATM    4  H   UNL     1      28.240  41.739  54.698  1.00  0.00     0.163 HD
ENDROOT
BRANCH   1   5
HETATM    5  C   UNL     1      28.692  40.958  52.796  1.00  0.00     0.161 C 
BRANCH   5   6
HETATM    6  C   UNL     1      27.743  41.357  51.701  1.00  0.00    -0.040 A 
HETATM    7  C   UNL     1      26.907  42.469  51.860  1.00  0.00     0.011 A 
HETATM    8  C   UNL     1      26.134  42.940  50.793  1.00  0.00     0.030 A 
HETATM    9  C   UNL     1      26.178  42.305  49.552  1.00  0.00     0.036 A 
HETATM   10  C   UNL     1      26.940  41.137  49.421  1.00  0.00     0.030 A 
HETATM   11  C   UNL     1      27.718  40.668  50.484  1.00  0.00     0.011 A 
BRANCH   9  12
HETATM   12  N   UNL     1      25.543  42.796  48.391  1.00  0.00    -0.309 N 
HETATM   13  C   UNL     1      24.211  42.660  48.052  1.00  0.00     0.321 C 
HETATM   14  N   UNL     1      23.914  43.447  46.955  1.00  0.00    -0.339 N 
HETATM   15  O   UNL     1      23.369  42.003  48.648  1.00  0.00    -0.247 OA
HETATM   16  H   UNL     1      24.664  43.587  46.296  1.00  0.00     0.164 HD
HETATM   17  H   UNL     1      26.043  43.506  47.881  1.00  0.00     0.170 HD
BRANCH  14  18
HETATM   18  C   UNL     1      22.562  43.627  46.434  1.00  0.00     0.078 C 
HETATM   19  C   UNL     1      22.363  42.967  45.070  1.00  0.00     0.032 C 
HETATM   20  C   UNL     1      22.135  45.092  46.419  1.00  0.00     0.032 C 
ENDBRANCH  14  18
ENDBRANCH   9  12
ENDBRANCH   5   6
ENDBRANCH   1   5
BRANCH   2  21
HETATM   21  C   UNL     1      29.975  43.732  55.029  1.00  0.00     0.064 A 
HETATM   22  C   UNL     1      29.149  44.836  55.183  1.00  0.00     0.077 A 
HETATM   23  C   UNL     1      29.267  45.715  56.263  1.00  0.00     0.065 A 
HETATM   24  N   UNL     1      28.099  45.299  54.383  1.00  0.00    -0.330 N 
HETATM   25  N   UNL     1      28.299  46.709  56.125  1.00  0.00    -0.331 N 
HETATM   26  C   UNL     1      30.208  45.543  57.247  1.00  0.00     0.074 A 
HETATM   27  C   UNL     1      27.564  46.452  54.960  1.00  0.00     0.176 A 
HETATM   28  H   UNL     1      28.128  47.482  56.751  1.00  0.00     0.168 HD
HETATM   29  S   UNL     1      26.305  47.347  54.388  1.00  0.00    -0.041 SA
HETATM   30  C   UNL     1      31.038  44.432  57.112  1.00  0.00     0.119 A 
HETATM   31  F   UNL     1      31.972  44.206  58.045  1.00  0.00    -0.206 F 
HETATM   32  C   UNL     1      30.934  43.531  56.031  1.00  0.00     0.061 A 
HETATM   33  H   UNL     1      27.784  44.833  53.538  1.00  0.00     0.168 HD
ENDBRANCH   2  21
TORSDOF 5
ENDMDL
MODEL 8
REMARK VINA RESULT:      -8.5      3.387      8.714
REMARK  5 active torsions:
REMARK  status: ('A' for Active; 'I' for Inactive)
REMARK    1  A    between atoms: C_2  and  N_3 
REMARK       I    between atoms: N_3  and  C_4 
REMARK       I    between atoms: C_4  and  N_5 
REMARK    2  A    between atoms: N_5  and  C_6 
REMARK    3  A    between atoms: C_9  and  C_10 
REMARK    4  A    between atoms: C_10  and  N_11 
REMARK       I    between atoms: N_11  and  C_12 
REMARK    5  A    between atoms: C_12  and  C_13 
ROOT
HETATM    1  N   UNL     1      24.837  45.691  50.162  1.00  0.00    -0.353 N 
HETATM    2  C   UNL     1      24.921  46.971  50.674  1.00  0.00     0.254 C 
HETATM    3  O   UNL     1      24.686  47.217  51.855  1.00  0.00    -0.268 OA
HETATM    4  H   UNL     1      24.848  45.516  49.169  1.00  0.00     0.163 HD
ENDROOT
BRANCH   1   5
HETATM    5  C   UNL     1      24.332  44.639  51.012  1.00  0.00     0.161 C 
BRANCH   5   6
HETATM    6  C   UNL     1      25.383  44.060  51.917  1.00  0.00    -0.040 A 
HETATM    7  C   UNL     1      26.487  43.388  51.377  1.00  0.00     0.011 A 
HETATM    8  C   UNL     1      27.546  42.981  52.197  1.00  0.00     0.030 A 
HETATM    9  C   UNL     1      27.517  43.235  53.569  1.00  0.00     0.036 A 
HETATM   10  C   UNL     1      26.372  43.822  54.121  1.00  0.00     0.030 A 
HETATM   11  C   UNL     1      25.315  44.235  53.303  1.00  0.00     0.011 A 
BRANCH   9  12
HETATM   12  N   UNL     1      28.600  42.987  54.440  1.00  0.00    -0.309 N 
HETATM   13  C   UNL     1      29.495  43.915  54.937  1.00  0.00     0.321 C 
HETATM   14  N   UNL     1      30.282  43.342  55.919  1.00  0.00    -0.339 N 
HETATM   15  O   UNL     1      29.568  45.096  54.630  1.00  0.00    -0.247 OA
HETATM   16  H   UNL     1      30.473  42.358  55.812  1.00  0.00     0.164 HD
HETATM   17  H   UNL     1      28.581  42.107  54.930  1.00  0.00     0.170 HD
BRANCH  14  18
HETATM   18  C   UNL     1      31.233  44.095  56.731  1.00  0.00     0.078 C 
HETATM   19  C   UNL     1      32.326  43.210  57.330  1.00  0.00     0.032 C 
HETATM   20  C   UNL     1      30.544  44.940  57.798  1.00  0.00     0.032 C 
ENDBRANCH  14  18
ENDBRANCH   9  12
ENDBRANCH   5   6
ENDBRANCH   1   5
BRANCH   2  21
HETATM   21  C   UNL     1      25.274  48.081  49.748  1.00  0.00     0.064 A 
HETATM   22  C   UNL     1      24.268  48.737  49.055  1.00  0.00     0.077 A 
HETATM   23  C   UNL     1      24.531  49.779  48.162  1.00  0.00     0.065 A 
HETATM   24  N   UNL     1      22.883  48.546  49.075  1.00  0.00    -0.330 N 
HETATM   25  N   UNL     1      23.317  50.221  47.637  1.00  0.00    -0.331 N 
HETATM   26  C   UNL     1      25.804  50.226  47.912  1.00  0.00     0.074 A 
HETATM   27  C   UNL     1      22.286  49.461  48.206  1.00  0.00     0.176 A 
HETATM   28  H   UNL     1      23.178  50.967  46.972  1.00  0.00     0.168 HD
HETATM   29  S   UNL     1      20.676  49.627  47.903  1.00  0.00    -0.041 SA
HETATM   30  C   UNL     1      26.825  49.583  48.609  1.00  0.00     0.119 A 
HETATM   31  F   UNL     1      28.090  49.978  48.413  1.00  0.00    -0.206 F 
HETATM   32  C   UNL     1      26.582  48.531  49.517  1.00  0.00     0.061 A 
HETATM   33  H   UNL     1      22.414  47.859  49.658  1.00  0.00     0.168 HD
ENDBRANCH   2  21
TORSDOF 5
ENDMDL
MODEL 9
REMARK VINA RESULT:      -8.4      4.377      7.451
REMARK  5 active torsions:
REMARK  status: ('A' for Active; 'I' for Inactive)
REMARK    1  A    between atoms: C_2  and  N_3 
REMARK       I    between atoms: N_3  and  C_4 
REMARK       I    between atoms: C_4  and  N_5 
REMARK    2  A    between atoms: N_5  and  C_6 
REMARK    3  A    between atoms: C_9  and  C_10 
REMARK    4  A    between atoms: C_10  and  N_11 
REMARK       I    between atoms: N_11  and  C_12 
REMARK    5  A    between atoms: C_12  and  C_13 
ROOT
HETATM    1  N   UNL     1      23.662  48.138  50.001  1.00  0.00    -0.353 N 
HETATM    2  C   UNL     1      24.919  47.591  50.177  1.00  0.00     0.254 C 
HETATM    3  O   UNL     1      25.853  47.849  49.422  1.00  0.00    -0.268 OA
HETATM    4  H   UNL     1      22.858  47.790  50.500  1.00  0.00     0.163 HD
ENDROOT
BRANCH   1   5
HETATM    5  C   UNL     1      23.414  48.930  48.820  1.00  0.00     0.161 C 
BRANCH   5   6
HETATM    6  C   UNL     1      22.132  49.710  48.894  1.00  0.00    -0.040 A 
HETATM    7  C   UNL     1      21.756  50.339  50.087  1.00  0.00     0.011 A 
HETATM    8  C   UNL     1      20.647  51.192  50.127  1.00  0.00     0.030 A 
HETATM    9  C   UNL     1      19.893  51.426  48.976  1.00  0.00     0.036 A 
HETATM   10  C   UNL     1      20.212  50.724  47.807  1.00  0.00     0.030 A 
HETATM   11  C   UNL     1      21.323  49.875  47.764  1.00  0.00     0.011 A 
BRANCH   9  12
HETATM   12  N   UNL     1      18.852  52.376  48.895  1.00  0.00    -0.309 N 
HETATM   13  C   UNL     1      17.634  52.331  49.543  1.00  0.00     0.321 C 
HETATM   14  N   UNL     1      16.964  53.531  49.388  1.00  0.00    -0.339 N 
HETATM   15  O   UNL     1      17.202  51.410  50.222  1.00  0.00    -0.247 OA
HETATM   16  H   UNL     1      17.140  54.026  48.528  1.00  0.00     0.164 HD
HETATM   17  H   UNL     1      19.105  53.278  48.523  1.00  0.00     0.170 HD
BRANCH  14  18
HETATM   18  C   UNL     1      15.710  53.848  50.065  1.00  0.00     0.078 C 
HETATM   19  C   UNL     1      14.493  53.244  49.364  1.00  0.00     0.032 C 
HETATM   20  C   UNL     1      15.539  55.345  50.302  1.00  0.00     0.032 C 
ENDBRANCH  14  18
ENDBRANCH   9  12
ENDBRANCH   5   6
ENDBRANCH   1   5
BRANCH   2  21
HETATM   21  C   UNL     1      25.122  46.637  51.299  1.00  0.00     0.064 A 
HETATM   22  C   UNL     1      24.936  45.279  51.082  1.00  0.00     0.077 A 
HETATM   23  C   UNL     1      25.099  44.329  52.094  1.00  0.00     0.065 A 
HETATM   24  N   UNL     1      24.579  44.590  49.918  1.00  0.00    -0.330 N 
HETATM   25  N   UNL     1      24.842  43.069  51.556  1.00  0.00    -0.331 N 
HETATM   26  C   UNL     1      25.457  44.675  53.372  1.00  0.00     0.074 A 
HETATM   27  C   UNL     1      24.524  43.223  50.200  1.00  0.00     0.176 A 
HETATM   28  H   UNL     1      24.886  42.182  52.035  1.00  0.00     0.168 HD
HETATM   29  S   UNL     1      24.159  42.014  49.143  1.00  0.00    -0.041 SA
HETATM   30  C   UNL     1      25.658  46.035  53.604  1.00  0.00     0.119 A 
HETATM   31  F   UNL     1      26.017  46.436  54.831  1.00  0.00    -0.206 F 
HETATM   32  C   UNL     1      25.502  47.010  52.596  1.00  0.00     0.061 A 
HETATM   33  H   UNL     1      24.418  45.038  49.022  1.00  0.00     0.168 HD
ENDBRANCH   2  21
TORSDOF 5
ENDMDL
MODEL 10
REMARK VINA RESULT:      -8.3      2.037      2.820
REMARK  5 active torsions:
REMARK  status: ('A' for Active; 'I' for Inactive)
REMARK    1  A    between atoms: C_2  and  N_3 
REMARK       I    between atoms: N_3  and  C_4 
REMARK       I    between atoms: C_4  and  N_5 
REMARK    2  A    between atoms: N_5  and  C_6 
REMARK    3  A    between atoms: C_9  and  C_10 
REMARK    4  A    between atoms: C_10  and  N_11 
REMARK       I    between atoms: N_11  and  C_12 
REMARK    5  A    between atoms: C_12  and  C_13 
ROOT
HETATM    1  N   UNL     1      25.701  43.726  51.752  1.00  0.00    -0.353 N 
HETATM    2  C   UNL     1      25.667  43.985  53.108  1.00  0.00     0.254 C 
HETATM    3  O   UNL     1      24.610  44.073  53.729  1.00  0.00    -0.268 OA
HETATM    4  H   UNL     1      26.546  43.836  51.213  1.00  0.00     0.163 HD
ENDROOT
BRANCH   1   5
HETATM    5  C   UNL     1      24.454  43.689  51.025  1.00  0.00     0.161 C 
BRANCH   5   6
HETATM    6  C   UNL     1      24.162  44.970  50.296  1.00  0.00    -0.040 A 
HETATM    7  C   UNL     1      23.257  44.984  49.227  1.00  0.00     0.011 A 
HETATM    8  C   UNL     1      22.861  46.193  48.642  1.00  0.00     0.030 A 
HETATM    9  C   UNL     1      23.367  47.406  49.111  1.00  0.00     0.036 A 
HETATM   10  C   UNL     1      24.342  47.384  50.116  1.00  0.00     0.030 A 
HETATM   11  C   UNL     1      24.735  46.178  50.706  1.00  0.00     0.011 A 
BRANCH   9  12
HETATM   12  N   UNL     1      22.916  48.670  48.676  1.00  0.00    -0.309 N 
HETATM   13  C   UNL     1      21.640  49.185  48.800  1.00  0.00     0.321 C 
HETATM   14  N   UNL     1      21.627  50.522  48.452  1.00  0.00    -0.339 N 
HETATM   15  O   UNL     1      20.652  48.595  49.217  1.00  0.00    -0.247 OA
HETATM   16  H   UNL     1      22.295  50.801  47.749  1.00  0.00     0.164 HD
HETATM   17  H   UNL     1      23.631  49.349  48.472  1.00  0.00     0.170 HD
BRANCH  14  18
HETATM   18  C   UNL     1      20.458  51.384  48.604  1.00  0.00     0.078 C 
HETATM   19  C   UNL     1      19.903  51.378  50.028  1.00  0.00     0.032 C 
HETATM   20  C   UNL     1      19.374  51.080  47.574  1.00  0.00     0.032 C 
ENDBRANCH  14  18
ENDBRANCH   9  12
ENDBRANCH   5   6
ENDBRANCH   1   5
BRANCH   2  21
HETATM   21  C   UNL     1      26.956  44.195  53.820  1.00  0.00     0.064 A 
HETATM   22  C   UNL     1      27.172  45.382  54.504  1.00  0.00     0.077 A 
HETATM   23  C   UNL     1      28.364  45.649  55.184  1.00  0.00     0.065 A 
HETATM   24  N   UNL     1      26.339  46.493  54.673  1.00  0.00    -0.330 N 
HETATM   25  N   UNL     1      28.263  46.914  55.762  1.00  0.00    -0.331 N 
HETATM   26  C   UNL     1      29.401  44.753  55.222  1.00  0.00     0.074 A 
HETATM   27  C   UNL     1      27.002  47.442  55.453  1.00  0.00     0.176 A 
HETATM   28  H   UNL     1      28.958  47.383  56.323  1.00  0.00     0.168 HD
HETATM   29  S   UNL     1      26.419  48.907  55.929  1.00  0.00    -0.041 SA
HETATM   30  C   UNL     1      29.195  43.551  54.547  1.00  0.00     0.119 A 
HETATM   31  F   UNL     1      30.169  42.631  54.554  1.00  0.00    -0.206 F 
HETATM   32  C   UNL     1      27.999  43.259  53.858  1.00  0.00     0.061 A 
HETATM   33  H   UNL     1      25.398  46.557  54.298  1.00  0.00     0.168 HD
ENDBRANCH   2  21
TORSDOF 5
ENDMDL
