MODEL 1
REMARK VINA RESULT:     -10.3      0.000      0.000
REMARK  6 active torsions:
REMARK  status: ('A' for Active; 'I' for Inactive)
REMARK    1  A    between atoms: C_3  and  O_4 
REMARK    2  A    between atoms: O_4  and  C_5 
REMARK    3  A    between atoms: C_5  and  C_6 
REMARK       I    between atoms: C_6  and  N_7 
REMARK    4  A    between atoms: N_7  and  C_8 
REMARK    5  A    between atoms: C_15  and  C_16 
REMARK       I    between atoms: C_16  and  N_17 
REMARK    6  A    between atoms: C_23  and  C_24 
ROOT
HETATM    1  C   UNL     1      25.889  46.582  52.931  1.00  0.00     0.246 C 
HETATM    2  N   UNL     1      25.811  46.361  51.562  1.00  0.00    -0.325 N 
HETATM    3  O   UNL     1      25.692  47.644  53.510  1.00  0.00    -0.271 OA
HETATM    4  H   UNL     1      25.913  45.401  51.257  1.00  0.00     0.169 HD
ENDROOT
BRANCH   2   5
HETATM    5  C   UNL     1      25.616  47.322  50.545  1.00  0.00     0.035 A 
HETATM    6  C   UNL     1      24.358  47.668  50.031  1.00  0.00     0.046 A 
HETATM    7  C   UNL     1      24.258  48.666  49.037  1.00  0.00     0.030 A 
HETATM    8  C   UNL     1      25.418  49.289  48.594  1.00  0.00     0.063 A 
HETATM    9  C   UNL     1      23.204  49.274  48.291  1.00  0.00     0.156 A 
HETATM   10  N   UNL     1      25.007  50.196  47.657  1.00  0.00    -0.277 N 
HETATM   11  C   UNL     1      26.687  48.969  49.078  1.00  0.00     0.034 A 
HETATM   12  H   UNL     1      25.587  50.835  47.126  1.00  0.00     0.189 HD
HETATM   13  N   UNL     1      23.681  50.214  47.444  1.00  0.00    -0.168 NA
HETATM   14  C   UNL     1      26.760  47.970  50.059  1.00  0.00     0.032 A 
BRANCH   9  15
HETATM   15  C   UNL     1      21.765  48.979  48.366  1.00  0.00     0.270 C 
HETATM   16  N   UNL     1      21.200  49.260  49.579  1.00  0.00    -0.365 N 
HETATM   17  H   UNL     1      21.786  49.642  50.311  1.00  0.00     0.159 HD
HETATM   18  H   UNL     1      20.215  49.100  49.719  1.00  0.00     0.159 HD
HETATM   19  O   UNL     1      21.095  48.523  47.446  1.00  0.00    -0.266 OA
ENDBRANCH   9  15
ENDBRANCH   2   5
BRANCH   1  20
HETATM   20  C   UNL     1      26.316  45.336  53.707  1.00  0.00     0.278 C 
BRANCH  20  21
HETATM   21  O   UNL     1      27.472  44.757  53.113  1.00  0.00    -0.342 OA
BRANCH  21  22
HETATM   22  C   UNL     1      28.495  44.497  53.992  1.00  0.00     0.075 A 
HETATM   23  C   UNL     1      29.359  43.440  53.670  1.00  0.00    -0.029 A 
HETATM   24  C   UNL     1      29.152  42.611  52.434  1.00  0.00     0.051 C 
HETATM   25  C   UNL     1      30.444  43.164  54.515  1.00  0.00     0.010 A 
HETATM   26  C   UNL     1      30.662  43.922  55.668  1.00  0.00     0.008 A 
HETATM   27  C   UNL     1      29.809  44.982  55.996  1.00  0.00    -0.052 A 
HETATM   28  C   UNL     1      28.728  45.262  55.143  1.00  0.00     0.044 A 
BRANCH  27  29
HETATM   29  C   UNL     1      30.061  45.795  57.254  1.00  0.00     0.010 C 
HETATM   30  C   UNL     1      28.756  46.237  57.924  1.00  0.00     0.015 C 
HETATM   31  C   UNL     1      30.944  45.025  58.238  1.00  0.00     0.015 C 
ENDBRANCH  27  29
ENDBRANCH  21  22
ENDBRANCH  20  21
ENDBRANCH   1  20
TORSDOF 6
ENDMDL
MODEL 2
REMARK VINA RESULT:      -9.7      1.319      2.544
REMARK  6 active torsions:
REMARK  status: ('A' for Active; 'I' for Inactive)
REMARK    1  A    between atoms: C_3  and  O_4 
REMARK    2  A    between atoms: O_4  and  C_5 
REMARK    3  A    between atoms: C_5  and  C_6 
REMARK       I    between atoms: C_6  and  N_7 
REMARK    4  A    between atoms: N_7  and  C_8 
REMARK    5  A    between atoms: C_15  and  C_16 
REMARK       I    between atoms: C_16  and  N_17 
REMARK    6  A    between atoms: C_23  and  C_24 
ROOT
HETATM    1  C   UNL     1      24.929  45.145  51.588  1.00  0.00     0.246 C 
HETATM    2  N   UNL     1      25.618  46.343  51.457  1.00  0.00    -0.325 N 
HETATM    3  O   UNL     1      24.119  44.680  50.794  1.00  0.00    -0.271 OA
HETATM    4  H   UNL     1      26.321  46.535  52.160  1.00  0.00     0.169 HD
ENDROOT
BRANCH   2   5
HETATM    5  C   UNL     1      25.447  47.330  50.461  1.00  0.00     0.035 A 
HETATM    6  C   UNL     1      24.198  47.735  49.972  1.00  0.00     0.046 A 
HETATM    7  C   UNL     1      24.123  48.755  48.998  1.00  0.00     0.030 A 
HETATM    8  C   UNL     1      25.301  49.339  48.549  1.00  0.00     0.063 A 
HETATM    9  C   UNL     1      23.083  49.418  48.279  1.00  0.00     0.156 A 
HETATM   10  N   UNL     1      24.913  50.280  47.635  1.00  0.00    -0.277 N 
HETATM   11  C   UNL     1      26.563  48.961  49.008  1.00  0.00     0.034 A 
HETATM   12  H   UNL     1      25.511  50.905  47.106  1.00  0.00     0.189 HD
HETATM   13  N   UNL     1      23.586  50.355  47.442  1.00  0.00    -0.168 NA
HETATM   14  C   UNL     1      26.609  47.941  49.969  1.00  0.00     0.032 A 
BRANCH   9  15
HETATM   15  C   UNL     1      21.635  49.179  48.369  1.00  0.00     0.270 C 
HETATM   16  N   UNL     1      21.102  49.441  49.602  1.00  0.00    -0.365 N 
HETATM   17  H   UNL     1      21.716  49.774  50.336  1.00  0.00     0.159 HD
HETATM   18  H   UNL     1      20.114  49.316  49.754  1.00  0.00     0.159 HD
HETATM   19  O   UNL     1      20.931  48.782  47.447  1.00  0.00    -0.266 OA
ENDBRANCH   9  15
ENDBRANCH   2   5
BRANCH   1  20
HETATM   20  C   UNL     1      25.234  44.428  52.904  1.00  0.00     0.278 C 
BRANCH  20  21
HETATM   21  O   UNL     1      25.476  45.377  53.937  1.00  0.00    -0.342 OA
BRANCH  21  22
HETATM   22  C   UNL     1      26.772  45.404  54.393  1.00  0.00     0.075 A 
HETATM   23  C   UNL     1      27.236  46.619  54.920  1.00  0.00    -0.029 A 
HETATM   24  C   UNL     1      26.362  47.840  54.954  1.00  0.00     0.051 C 
HETATM   25  C   UNL     1      28.538  46.684  55.437  1.00  0.00     0.010 A 
HETATM   26  C   UNL     1      29.369  45.562  55.422  1.00  0.00     0.008 A 
HETATM   27  C   UNL     1      28.915  44.344  54.903  1.00  0.00    -0.052 A 
HETATM   28  C   UNL     1      27.607  44.279  54.394  1.00  0.00     0.044 A 
BRANCH  27  29
HETATM   29  C   UNL     1      29.834  43.134  54.894  1.00  0.00     0.010 C 
HETATM   30  C   UNL     1      30.370  42.831  53.492  1.00  0.00     0.015 C 
HETATM   31  C   UNL     1      30.982  43.308  55.891  1.00  0.00     0.015 C 
ENDBRANCH  27  29
ENDBRANCH  21  22
ENDBRANCH  20  21
ENDBRANCH   1  20
TORSDOF 6
ENDMDL
MODEL 3
REMARK VINA RESULT:      -9.0      2.040      3.197
REMARK  6 active torsions:
REMARK  status: ('A' for Active; 'I' for Inactive)
REMARK    1  A    between atoms: C_3  and  O_4 
REMARK    2  A    between atoms: O_4  and  C_5 
REMARK    3  A    between atoms: C_5  and  C_6 
REMARK       I    between atoms: C_6  and  N_7 
REMARK    4  A    between atoms: N_7  and  C_8 
REMARK    5  A    between atoms: C_15  and  C_16 
REMARK       I    between atoms: C_16  and  N_17 
REMARK    6  A    between atoms: C_23  and  C_24 
ROOT
HETATM    1  C   UNL     1      26.796  44.698  50.712  1.00  0.00     0.246 C 
HETATM    2  N   UNL     1      25.549  45.193  51.072  1.00  0.00    -0.325 N 
HETATM    3  O   UNL     1      27.261  44.649  49.580  1.00  0.00    -0.271 OA
HETATM    4  H   UNL     1      25.356  45.246  52.064  1.00  0.00     0.169 HD
ENDROOT
BRANCH   2   5
HETATM    5  C   UNL     1      24.513  45.623  50.212  1.00  0.00     0.035 A 
HETATM    6  C   UNL     1      24.405  46.929  49.715  1.00  0.00     0.046 A 
HETATM    7  C   UNL     1      23.353  47.258  48.833  1.00  0.00     0.030 A 
HETATM    8  C   UNL     1      22.446  46.269  48.473  1.00  0.00     0.063 A 
HETATM    9  C   UNL     1      22.918  48.428  48.140  1.00  0.00     0.156 A 
HETATM   10  N   UNL     1      21.567  46.876  47.619  1.00  0.00    -0.277 N 
HETATM   11  C   UNL     1      22.518  44.960  48.950  1.00  0.00     0.034 A 
HETATM   12  H   UNL     1      20.773  46.453  47.154  1.00  0.00     0.189 HD
HETATM   13  N   UNL     1      21.816  48.177  47.397  1.00  0.00    -0.168 NA
HETATM   14  C   UNL     1      23.568  44.661  49.830  1.00  0.00     0.032 A 
BRANCH   9  15
HETATM   15  C   UNL     1      23.523  49.768  48.172  1.00  0.00     0.270 C 
HETATM   16  N   UNL     1      23.003  50.592  49.133  1.00  0.00    -0.365 N 
HETATM   17  H   UNL     1      22.272  50.235  49.735  1.00  0.00     0.159 HD
HETATM   18  H   UNL     1      23.366  51.526  49.237  1.00  0.00     0.159 HD
HETATM   19  O   UNL     1      24.416  50.152  47.425  1.00  0.00    -0.266 OA
ENDBRANCH   9  15
ENDBRANCH   2   5
BRANCH   1  20
HETATM   20  C   UNL     1      27.573  44.137  51.903  1.00  0.00     0.278 C 
BRANCH  20  21
HETATM   21  O   UNL     1      26.882  44.410  53.117  1.00  0.00    -0.342 OA
BRANCH  21  22
HETATM   22  C   UNL     1      27.641  45.040  54.075  1.00  0.00     0.075 A 
HETATM   23  C   UNL     1      27.177  46.279  54.540  1.00  0.00    -0.029 A 
HETATM   24  C   UNL     1      25.925  46.902  53.991  1.00  0.00     0.051 C 
HETATM   25  C   UNL     1      27.894  46.939  55.550  1.00  0.00     0.010 A 
HETATM   26  C   UNL     1      29.058  46.380  56.080  1.00  0.00     0.008 A 
HETATM   27  C   UNL     1      29.526  45.141  55.627  1.00  0.00    -0.052 A 
HETATM   28  C   UNL     1      28.801  44.478  54.622  1.00  0.00     0.044 A 
BRANCH  27  29
HETATM   29  C   UNL     1      30.795  44.548  56.215  1.00  0.00     0.010 C 
HETATM   30  C   UNL     1      30.869  44.738  57.733  1.00  0.00     0.015 C 
HETATM   31  C   UNL     1      30.934  43.070  55.844  1.00  0.00     0.015 C 
ENDBRANCH  27  29
ENDBRANCH  21  22
ENDBRANCH  20  21
ENDBRANCH   1  20
TORSDOF 6
ENDMDL
MODEL 4
REMARK VINA RESULT:      -8.8      2.687      9.581
REMARK  6 active torsions:
REMARK  status: ('A' for Active; 'I' for Inactive)
REMARK    1  A    between atoms: C_3  and  O_4 
REMARK    2  A    between atoms: O_4  and  C_5 
REMARK    3  A    between atoms: C_5  and  C_6 
REMARK       I    between atoms: C_6  and  N_7 
REMARK    4  A    between atoms: N_7  and  C_8 
REMARK    5  A    between atoms: C_15  and  C_16 
REMARK       I    between atoms: C_16  and  N_17 
REMARK    6  A    between atoms: C_23  and  C_24 
ROOT
HETATM    1  C   UNL     1      25.067  47.122  50.806  1.00  0.00     0.246 C 
HETATM    2  N   UNL     1      25.053  46.309  51.932  1.00  0.00    -0.325 N 
HETATM    3  O   UNL     1      25.931  47.938  50.508  1.00  0.00    -0.271 OA
HETATM    4  H   UNL     1      24.310  45.623  51.981  1.00  0.00     0.169 HD
ENDROOT
BRANCH   2   5
HETATM    5  C   UNL     1      25.951  46.334  53.022  1.00  0.00     0.035 A 
HETATM    6  C   UNL     1      26.878  45.317  53.292  1.00  0.00     0.046 A 
HETATM    7  C   UNL     1      27.760  45.445  54.387  1.00  0.00     0.030 A 
HETATM    8  C   UNL     1      27.690  46.588  55.174  1.00  0.00     0.063 A 
HETATM    9  C   UNL     1      28.802  44.661  54.968  1.00  0.00     0.156 A 
HETATM   10  N   UNL     1      28.655  46.430  56.130  1.00  0.00    -0.277 N 
HETATM   11  C   UNL     1      26.779  47.619  54.940  1.00  0.00     0.034 A 
HETATM   12  H   UNL     1      28.892  47.076  56.874  1.00  0.00     0.189 HD
HETATM   13  N   UNL     1      29.343  45.281  56.042  1.00  0.00    -0.168 NA
HETATM   14  C   UNL     1      25.910  47.464  53.851  1.00  0.00     0.032 A 
BRANCH   9  15
HETATM   15  C   UNL     1      29.287  43.344  54.527  1.00  0.00     0.270 C 
HETATM   16  N   UNL     1      30.648  43.211  54.559  1.00  0.00    -0.365 N 
HETATM   17  H   UNL     1      31.205  43.995  54.878  1.00  0.00     0.159 HD
HETATM   18  H   UNL     1      31.069  42.338  54.285  1.00  0.00     0.159 HD
HETATM   19  O   UNL     1      28.569  42.421  54.157  1.00  0.00    -0.266 OA
ENDBRANCH   9  15
ENDBRANCH   2   5
BRANCH   1  20
HETATM   20  C   UNL     1      23.820  46.950  49.939  1.00  0.00     0.278 C 
BRANCH  20  21
HETATM   21  O   UNL     1      23.938  47.718  48.747  1.00  0.00    -0.342 OA
BRANCH  21  22
HETATM   22  C   UNL     1      23.176  48.861  48.728  1.00  0.00     0.075 A 
HETATM   23  C   UNL     1      23.814  50.046  48.334  1.00  0.00    -0.029 A 
HETATM   24  C   UNL     1      25.274  50.066  47.979  1.00  0.00     0.051 C 
HETATM   25  C   UNL     1      23.067  51.231  48.257  1.00  0.00     0.010 A 
HETATM   26  C   UNL     1      21.707  51.239  48.576  1.00  0.00     0.008 A 
HETATM   27  C   UNL     1      21.059  50.061  48.966  1.00  0.00    -0.052 A 
HETATM   28  C   UNL     1      21.808  48.874  49.033  1.00  0.00     0.044 A 
BRANCH  27  29
HETATM   29  C   UNL     1      19.580  50.089  49.311  1.00  0.00     0.010 C 
HETATM   30  C   UNL     1      19.296  49.454  50.675  1.00  0.00     0.015 C 
HETATM   31  C   UNL     1      19.027  51.515  49.247  1.00  0.00     0.015 C 
ENDBRANCH  27  29
ENDBRANCH  21  22
ENDBRANCH  20  21
ENDBRANCH   1  20
TORSDOF 6
ENDMDL
MODEL 5
REMARK VINA RESULT:      -8.8      2.256      2.845
REMARK  6 active torsions:
REMARK  status: ('A' for Active; 'I' for Inactive)
REMARK    1  A    between atoms: C_3  and  O_4 
REMARK    2  A    between atoms: O_4  and  C_5 
REMARK    3  A    between atoms: C_5  and  C_6 
REMARK       I    between atoms: C_6  and  N_7 
REMARK    4  A    between atoms: N_7  and  C_8 
REMARK    5  A    between atoms: C_15  and  C_16 
REMARK       I    between atoms: C_16  and  N_17 
REMARK    6  A    between atoms: C_23  and  C_24 
ROOT
HETATM    1  C   UNL     1      25.172  44.580  51.000  1.00  0.00     0.246 C 
HETATM    2  N   UNL     1      25.061  45.224  49.775  1.00  0.00    -0.325 N 
HETATM    3  O   UNL     1      24.272  44.396  51.810  1.00  0.00    -0.271 OA
HETATM    4  H   UNL     1      25.883  45.209  49.184  1.00  0.00     0.169 HD
ENDROOT
BRANCH   2   5
HETATM    5  C   UNL     1      23.937  45.907  49.261  1.00  0.00     0.035 A 
HETATM    6  C   UNL     1      23.665  47.259  49.510  1.00  0.00     0.046 A 
HETATM    7  C   UNL     1      22.532  47.866  48.925  1.00  0.00     0.030 A 
HETATM    8  C   UNL     1      21.711  47.101  48.105  1.00  0.00     0.063 A 
HETATM    9  C   UNL     1      21.937  49.164  48.936  1.00  0.00     0.156 A 
HETATM   10  N   UNL     1      20.723  47.950  47.688  1.00  0.00    -0.277 N 
HETATM   11  C   UNL     1      21.946  45.752  47.837  1.00  0.00     0.034 A 
HETATM   12  H   UNL     1      19.949  47.734  47.070  1.00  0.00     0.189 HD
HETATM   13  N   UNL     1      20.823  49.200  48.170  1.00  0.00    -0.168 NA
HETATM   14  C   UNL     1      23.073  45.172  48.436  1.00  0.00     0.032 A 
BRANCH   9  15
HETATM   15  C   UNL     1      22.403  50.359  49.656  1.00  0.00     0.270 C 
HETATM   16  N   UNL     1      21.521  50.824  50.593  1.00  0.00    -0.365 N 
HETATM   17  H   UNL     1      20.646  50.330  50.725  1.00  0.00     0.159 HD
HETATM   18  H   UNL     1      21.761  51.632  51.144  1.00  0.00     0.159 HD
HETATM   19  O   UNL     1      23.478  50.917  49.466  1.00  0.00    -0.266 OA
ENDBRANCH   9  15
ENDBRANCH   2   5
BRANCH   1  20
HETATM   20  C   UNL     1      26.603  44.134  51.305  1.00  0.00     0.278 C 
BRANCH  20  21
HETATM   21  O   UNL     1      26.618  43.257  52.425  1.00  0.00    -0.342 OA
BRANCH  21  22
HETATM   22  C   UNL     1      27.619  43.509  53.332  1.00  0.00     0.075 A 
HETATM   23  C   UNL     1      28.539  42.476  53.567  1.00  0.00    -0.029 A 
HETATM   24  C   UNL     1      28.414  41.146  52.880  1.00  0.00     0.051 C 
HETATM   25  C   UNL     1      29.604  42.701  54.453  1.00  0.00     0.010 A 
HETATM   26  C   UNL     1      29.746  43.930  55.101  1.00  0.00     0.008 A 
HETATM   27  C   UNL     1      28.837  44.968  54.869  1.00  0.00    -0.052 A 
HETATM   28  C   UNL     1      27.776  44.744  53.975  1.00  0.00     0.044 A 
BRANCH  27  29
HETATM   29  C   UNL     1      29.007  46.298  55.584  1.00  0.00     0.010 C 
HETATM   30  C   UNL     1      27.885  47.283  55.241  1.00  0.00     0.015 C 
HETATM   31  C   UNL     1      29.111  46.098  57.098  1.00  0.00     0.015 C 
ENDBRANCH  27  29
ENDBRANCH  21  22
ENDBRANCH  20  21
ENDBRANCH   1  20
TORSDOF 6
ENDMDL
MODEL 6
REMARK VINA RESULT:      -8.5      1.565      1.857
REMARK  6 active torsions:
REMARK  status: ('A' for Active; 'I' for Inactive)
REMARK    1  A    between atoms: C_3  and  O_4 
REMARK    2  A    between atoms: O_4  and  C_5 
REMARK    3  A    between atoms: C_5  and  C_6 
REMARK       I    between atoms: C_6  and  N_7 
REMARK    4  A    between atoms: N_7  and  C_8 
REMARK    5  A    between atoms: C_15  and  C_16 
REMARK       I    between atoms: C_16  and  N_17 
REMARK    6  A    between atoms: C_23  and  C_24 
ROOT
HETATM    1  C   UNL     1      25.748  44.862  50.230  1.00  0.00     0.246 C 
HETATM    2  N   UNL     1      25.800  46.200  50.598  1.00  0.00    -0.325 N 
HETATM    3  O   UNL     1      25.408  44.420  49.138  1.00  0.00    -0.271 OA
HETATM    4  H   UNL     1      26.192  46.399  51.510  1.00  0.00     0.169 HD
ENDROOT
BRANCH   2   5
HETATM    5  C   UNL     1      25.360  47.315  49.852  1.00  0.00     0.035 A 
HETATM    6  C   UNL     1      24.024  47.530  49.484  1.00  0.00     0.046 A 
HETATM    7  C   UNL     1      23.673  48.693  48.765  1.00  0.00     0.030 A 
HETATM    8  C   UNL     1      24.669  49.607  48.442  1.00  0.00     0.063 A 
HETATM    9  C   UNL     1      22.473  49.249  48.228  1.00  0.00     0.156 A 
HETATM   10  N   UNL     1      24.033  50.613  47.768  1.00  0.00    -0.277 N 
HETATM   11  C   UNL     1      26.009  49.427  48.786  1.00  0.00     0.034 A 
HETATM   12  H   UNL     1      24.450  51.454  47.385  1.00  0.00     0.189 HD
HETATM   13  N   UNL     1      22.711  50.432  47.616  1.00  0.00    -0.168 NA
HETATM   14  C   UNL     1      26.332  48.261  49.493  1.00  0.00     0.032 A 
BRANCH   9  15
HETATM   15  C   UNL     1      21.117  48.682  48.283  1.00  0.00     0.270 C 
HETATM   16  N   UNL     1      20.690  48.379  49.546  1.00  0.00    -0.365 N 
HETATM   17  H   UNL     1      21.309  48.566  50.326  1.00  0.00     0.159 HD
HETATM   18  H   UNL     1      19.768  47.997  49.682  1.00  0.00     0.159 HD
HETATM   19  O   UNL     1      20.401  48.483  47.308  1.00  0.00    -0.266 OA
ENDBRANCH   9  15
ENDBRANCH   2   5
BRANCH   1  20
HETATM   20  C   UNL     1      26.120  43.919  51.375  1.00  0.00     0.278 C 
BRANCH  20  21
HETATM   21  O   UNL     1      27.502  43.590  51.313  1.00  0.00    -0.342 OA
BRANCH  21  22
HETATM   22  C   UNL     1      28.148  43.612  52.526  1.00  0.00     0.075 A 
HETATM   23  C   UNL     1      28.732  42.413  52.959  1.00  0.00    -0.029 A 
HETATM   24  C   UNL     1      28.627  41.154  52.144  1.00  0.00     0.051 C 
HETATM   25  C   UNL     1      29.440  42.397  54.170  1.00  0.00     0.010 A 
HETATM   26  C   UNL     1      29.557  43.554  54.943  1.00  0.00     0.008 A 
HETATM   27  C   UNL     1      28.982  44.757  54.518  1.00  0.00    -0.052 A 
HETATM   28  C   UNL     1      28.282  44.772  53.300  1.00  0.00     0.044 A 
BRANCH  27  29
HETATM   29  C   UNL     1      29.118  46.006  55.373  1.00  0.00     0.010 C 
HETATM   30  C   UNL     1      27.757  46.553  55.812  1.00  0.00     0.015 C 
HETATM   31  C   UNL     1      30.018  45.747  56.584  1.00  0.00     0.015 C 
ENDBRANCH  27  29
ENDBRANCH  21  22
ENDBRANCH  20  21
ENDBRANCH   1  20
TORSDOF 6
ENDMDL
MODEL 7
REMARK VINA RESULT:      -8.5      2.496      3.133
REMARK  6 active torsions:
REMARK  status: ('A' for Active; 'I' for Inactive)
REMARK    1  A    between atoms: C_3  and  O_4 
REMARK    2  A    between atoms: O_4  and  C_5 
REMARK    3  A    between atoms: C_5  and  C_6 
REMARK       I    between atoms: C_6  and  N_7 
REMARK    4  A    between atoms: N_7  and  C_8 
REMARK    5  A    between atoms: C_15  and  C_16 
REMARK       I    between atoms: C_16  and  N_17 
REMARK    6  A    between atoms: C_23  and  C_24 
ROOT
HETATM    1  C   UNL     1      25.285  44.503  51.087  1.00  0.00     0.246 C 
HETATM    2  N   UNL     1      25.153  45.174  49.878  1.00  0.00    -0.325 N 
HETATM    3  O   UNL     1      24.434  44.405  51.963  1.00  0.00    -0.271 OA
HETATM    4  H   UNL     1      25.921  45.079  49.226  1.00  0.00     0.169 HD
ENDROOT
BRANCH   2   5
HETATM    5  C   UNL     1      24.073  45.981  49.456  1.00  0.00     0.035 A 
HETATM    6  C   UNL     1      22.889  45.472  48.904  1.00  0.00     0.046 A 
HETATM    7  C   UNL     1      21.849  46.356  48.541  1.00  0.00     0.030 A 
HETATM    8  C   UNL     1      22.024  47.718  48.749  1.00  0.00     0.063 A 
HETATM    9  C   UNL     1      20.546  46.233  47.972  1.00  0.00     0.156 A 
HETATM   10  N   UNL     1      20.865  48.303  48.317  1.00  0.00    -0.277 N 
HETATM   11  C   UNL     1      23.188  48.263  49.292  1.00  0.00     0.034 A 
HETATM   12  H   UNL     1      20.637  49.290  48.323  1.00  0.00     0.189 HD
HETATM   13  N   UNL     1      19.953  47.442  47.839  1.00  0.00    -0.168 NA
HETATM   14  C   UNL     1      24.209  47.365  49.636  1.00  0.00     0.032 A 
BRANCH   9  15
HETATM   15  C   UNL     1      19.861  45.001  47.553  1.00  0.00     0.270 C 
HETATM   16  N   UNL     1      20.413  44.401  46.454  1.00  0.00    -0.365 N 
HETATM   17  H   UNL     1      21.227  44.827  46.026  1.00  0.00     0.159 HD
HETATM   18  H   UNL     1      20.017  43.545  46.103  1.00  0.00     0.159 HD
HETATM   19  O   UNL     1      18.881  44.519  48.111  1.00  0.00    -0.266 OA
ENDBRANCH   9  15
ENDBRANCH   2   5
BRANCH   1  20
HETATM   20  C   UNL     1      26.678  43.902  51.278  1.00  0.00     0.278 C 
BRANCH  20  21
HETATM   21  O   UNL     1      26.704  43.078  52.439  1.00  0.00    -0.342 OA
BRANCH  21  22
HETATM   22  C   UNL     1      27.704  43.383  53.331  1.00  0.00     0.075 A 
HETATM   23  C   UNL     1      28.673  42.396  53.562  1.00  0.00    -0.029 A 
HETATM   24  C   UNL     1      28.601  41.056  52.887  1.00  0.00     0.051 C 
HETATM   25  C   UNL     1      29.738  42.677  54.433  1.00  0.00     0.010 A 
HETATM   26  C   UNL     1      29.831  43.916  55.069  1.00  0.00     0.008 A 
HETATM   27  C   UNL     1      28.872  44.909  54.841  1.00  0.00    -0.052 A 
HETATM   28  C   UNL     1      27.812  44.629  53.962  1.00  0.00     0.044 A 
BRANCH  27  29
HETATM   29  C   UNL     1      28.989  46.251  55.544  1.00  0.00     0.010 C 
HETATM   30  C   UNL     1      27.785  47.155  55.262  1.00  0.00     0.015 C 
HETATM   31  C   UNL     1      29.191  46.067  57.050  1.00  0.00     0.015 C 
ENDBRANCH  27  29
ENDBRANCH  21  22
ENDBRANCH  20  21
ENDBRANCH   1  20
TORSDOF 6
ENDMDL
MODEL 8
REMARK VINA RESULT:      -8.4      4.222      9.481
REMARK  6 active torsions:
REMARK  status: ('A' for Active; 'I' for Inactive)
REMARK    1  A    between atoms: C_3  and  O_4 
REMARK    2  A    between atoms: O_4  and  C_5 
REMARK    3  A    between atoms: C_5  and  C_6 
REMARK       I    between atoms: C_6  and  N_7 
REMARK    4  A    between atoms: N_7  and  C_8 
REMARK    5  A    between atoms: C_15  and  C_16 
REMARK       I    between atoms: C_16  and  N_17 
REMARK    6  A    between atoms: C_23  and  C_24 
ROOT
HETATM    1  C   UNL     1      26.410  44.966  50.165  1.00  0.00     0.246 C 
HETATM    2  N   UNL     1      26.067  43.781  50.802  1.00  0.00    -0.325 N 
HETATM    3  O   UNL     1      27.458  45.199  49.575  1.00  0.00    -0.271 OA
HETATM    4  H   UNL     1      25.122  43.722  51.162  1.00  0.00     0.169 HD
ENDROOT
BRANCH   2   5
HETATM    5  C   UNL     1      26.886  42.650  51.014  1.00  0.00     0.035 A 
HETATM    6  C   UNL     1      27.006  41.592  50.101  1.00  0.00     0.046 A 
HETATM    7  C   UNL     1      27.877  40.517  50.384  1.00  0.00     0.030 A 
HETATM    8  C   UNL     1      28.603  40.538  51.568  1.00  0.00     0.063 A 
HETATM    9  C   UNL     1      28.259  39.304  49.737  1.00  0.00     0.156 A 
HETATM   10  N   UNL     1      29.349  39.391  51.555  1.00  0.00    -0.277 N 
HETATM   11  C   UNL     1      28.509  41.570  52.502  1.00  0.00     0.034 A 
HETATM   12  H   UNL     1      30.004  39.078  52.262  1.00  0.00     0.189 HD
HETATM   13  N   UNL     1      29.166  38.620  50.471  1.00  0.00    -0.168 NA
HETATM   14  C   UNL     1      27.631  42.621  52.201  1.00  0.00     0.032 A 
BRANCH   9  15
HETATM   15  C   UNL     1      27.781  38.785  48.446  1.00  0.00     0.270 C 
HETATM   16  N   UNL     1      28.745  38.160  47.704  1.00  0.00    -0.365 N 
HETATM   17  H   UNL     1      29.683  38.094  48.082  1.00  0.00     0.159 HD
HETATM   18  H   UNL     1      28.506  37.763  46.810  1.00  0.00     0.159 HD
HETATM   19  O   UNL     1      26.629  38.882  48.035  1.00  0.00    -0.266 OA
ENDBRANCH   9  15
ENDBRANCH   2   5
BRANCH   1  20
HETATM   20  C   UNL     1      25.336  46.045  50.308  1.00  0.00     0.278 C 
BRANCH  20  21
HETATM   21  O   UNL     1      25.940  47.327  50.440  1.00  0.00    -0.342 OA
BRANCH  21  22
HETATM   22  C   UNL     1      25.439  48.283  49.589  1.00  0.00     0.075 A 
HETATM   23  C   UNL     1      26.372  49.083  48.912  1.00  0.00    -0.029 A 
HETATM   24  C   UNL     1      27.848  48.919  49.133  1.00  0.00     0.051 C 
HETATM   25  C   UNL     1      25.910  50.043  47.999  1.00  0.00     0.010 A 
HETATM   26  C   UNL     1      24.543  50.212  47.771  1.00  0.00     0.008 A 
HETATM   27  C   UNL     1      23.605  49.415  48.438  1.00  0.00    -0.052 A 
HETATM   28  C   UNL     1      24.070  48.448  49.344  1.00  0.00     0.044 A 
BRANCH  27  29
HETATM   29  C   UNL     1      22.121  49.614  48.178  1.00  0.00     0.010 C 
HETATM   30  C   UNL     1      21.263  48.596  48.936  1.00  0.00     0.015 C 
HETATM   31  C   UNL     1      21.691  51.045  48.512  1.00  0.00     0.015 C 
ENDBRANCH  27  29
ENDBRANCH  21  22
ENDBRANCH  20  21
ENDBRANCH   1  20
TORSDOF 6
ENDMDL
MODEL 9
REMARK VINA RESULT:      -8.1      2.807      9.437
REMARK  6 active torsions:
REMARK  status: ('A' for Active; 'I' for Inactive)
REMARK    1  A    between atoms: C_3  and  O_4 
REMARK    2  A    between atoms: O_4  and  C_5 
REMARK    3  A    between atoms: C_5  and  C_6 
REMARK       I    between atoms: C_6  and  N_7 
REMARK    4  A    between atoms: N_7  and  C_8 
REMARK    5  A    between atoms: C_15  and  C_16 
REMARK       I    between atoms: C_16  and  N_17 
REMARK    6  A    between atoms: C_23  and  C_24 
ROOT
HETATM    1  C   UNL     1      24.516  45.295  50.591  1.00  0.00     0.246 C 
HETATM    2  N   UNL     1      25.891  45.432  50.726  1.00  0.00    -0.325 N 
HETATM    3  O   UNL     1      23.807  44.470  51.156  1.00  0.00    -0.271 OA
HETATM    4  H   UNL     1      26.311  46.226  50.259  1.00  0.00     0.169 HD
ENDROOT
BRANCH   2   5
HETATM    5  C   UNL     1      26.775  44.587  51.434  1.00  0.00     0.035 A 
HETATM    6  C   UNL     1      27.368  44.928  52.657  1.00  0.00     0.046 A 
HETATM    7  C   UNL     1      28.214  44.003  53.308  1.00  0.00     0.030 A 
HETATM    8  C   UNL     1      28.433  42.765  52.717  1.00  0.00     0.063 A 
HETATM    9  C   UNL     1      28.975  43.977  54.516  1.00  0.00     0.156 A 
HETATM   10  N   UNL     1      29.269  42.099  53.571  1.00  0.00    -0.277 N 
HETATM   11  C   UNL     1      27.864  42.390  51.500  1.00  0.00     0.034 A 
HETATM   12  H   UNL     1      29.636  41.161  53.462  1.00  0.00     0.189 HD
HETATM   13  N   UNL     1      29.621  42.797  54.663  1.00  0.00    -0.168 NA
HETATM   14  C   UNL     1      27.035  43.329  50.870  1.00  0.00     0.032 A 
BRANCH   9  15
HETATM   15  C   UNL     1      29.101  45.043  55.521  1.00  0.00     0.270 C 
HETATM   16  N   UNL     1      30.358  45.170  56.045  1.00  0.00    -0.365 N 
HETATM   17  H   UNL     1      31.088  44.550  55.712  1.00  0.00     0.159 HD
HETATM   18  H   UNL     1      30.542  45.883  56.732  1.00  0.00     0.159 HD
HETATM   19  O   UNL     1      28.187  45.775  55.885  1.00  0.00    -0.266 OA
ENDBRANCH   9  15
ENDBRANCH   2   5
BRANCH   1  20
HETATM   20  C   UNL     1      23.921  46.278  49.582  1.00  0.00     0.278 C 
BRANCH  20  21
HETATM   21  O   UNL     1      24.698  47.469  49.537  1.00  0.00    -0.342 OA
BRANCH  21  22
HETATM   22  C   UNL     1      24.026  48.570  49.064  1.00  0.00     0.075 A 
HETATM   23  C   UNL     1      24.800  49.595  48.501  1.00  0.00    -0.029 A 
HETATM   24  C   UNL     1      26.299  49.503  48.447  1.00  0.00     0.051 C 
HETATM   25  C   UNL     1      24.156  50.721  47.965  1.00  0.00     0.010 A 
HETATM   26  C   UNL     1      22.764  50.828  47.998  1.00  0.00     0.008 A 
HETATM   27  C   UNL     1      21.981  49.809  48.552  1.00  0.00    -0.052 A 
HETATM   28  C   UNL     1      22.629  48.679  49.080  1.00  0.00     0.044 A 
BRANCH  27  29
HETATM   29  C   UNL     1      20.469  49.944  48.580  1.00  0.00     0.010 C 
HETATM   30  C   UNL     1      19.823  48.973  49.573  1.00  0.00     0.015 C 
HETATM   31  C   UNL     1      20.051  51.386  48.880  1.00  0.00     0.015 C 
ENDBRANCH  27  29
ENDBRANCH  21  22
ENDBRANCH  20  21
ENDBRANCH   1  20
TORSDOF 6
ENDMDL
MODEL 10
REMARK VINA RESULT:      -8.1      2.732      4.006
REMARK  6 active torsions:
REMARK  status: ('A' for Active; 'I' for Inactive)
REMARK    1  A    between atoms: C_3  and  O_4 
REMARK    2  A    between atoms: O_4  and  C_5 
REMARK    3  A    between atoms: C_5  and  C_6 
REMARK       I    between atoms: C_6  and  N_7 
REMARK    4  A    between atoms: N_7  and  C_8 
REMARK    5  A    between atoms: C_15  and  C_16 
REMARK       I    between atoms: C_16  and  N_17 
REMARK    6  A    between atoms: C_23  and  C_24 
ROOT
HETATM    1  C   UNL     1      24.455  45.128  50.933  1.00  0.00     0.246 C 
HETATM    2  N   UNL     1      24.504  46.082  49.924  1.00  0.00    -0.325 N 
HETATM    3  O   UNL     1      23.471  44.486  51.281  1.00  0.00    -0.271 OA
HETATM    4  H   UNL     1      25.419  46.453  49.702  1.00  0.00     0.169 HD
ENDROOT
BRANCH   2   5
HETATM    5  C   UNL     1      23.423  46.600  49.177  1.00  0.00     0.035 A 
HETATM    6  C   UNL     1      22.434  45.804  48.582  1.00  0.00     0.046 A 
HETATM    7  C   UNL     1      21.371  46.414  47.881  1.00  0.00     0.030 A 
HETATM    8  C   UNL     1      21.328  47.801  47.804  1.00  0.00     0.063 A 
HETATM    9  C   UNL     1      20.219  45.968  47.166  1.00  0.00     0.156 A 
HETATM   10  N   UNL     1      20.201  48.089  47.085  1.00  0.00    -0.277 N 
HETATM   11  C   UNL     1      22.295  48.626  48.379  1.00  0.00     0.034 A 
HETATM   12  H   UNL     1      19.849  49.007  46.837  1.00  0.00     0.189 HD
HETATM   13  N   UNL     1      19.508  47.012  46.680  1.00  0.00    -0.168 NA
HETATM   14  C   UNL     1      23.344  47.995  49.062  1.00  0.00     0.032 A 
BRANCH   9  15
HETATM   15  C   UNL     1      19.786  44.582  46.935  1.00  0.00     0.270 C 
HETATM   16  N   UNL     1      20.548  43.904  46.023  1.00  0.00    -0.365 N 
HETATM   17  H   UNL     1      21.330  44.382  45.592  1.00  0.00     0.159 HD
HETATM   18  H   UNL     1      20.333  42.943  45.811  1.00  0.00     0.159 HD
HETATM   19  O   UNL     1      18.835  44.043  47.490  1.00  0.00    -0.266 OA
ENDBRANCH   9  15
ENDBRANCH   2   5
BRANCH   1  20
HETATM   20  C   UNL     1      25.791  44.967  51.658  1.00  0.00     0.278 C 
BRANCH  20  21
HETATM   21  O   UNL     1      25.602  45.054  53.066  1.00  0.00    -0.342 OA
BRANCH  21  22
HETATM   22  C   UNL     1      26.758  45.231  53.787  1.00  0.00     0.075 A 
HETATM   23  C   UNL     1      26.950  46.485  54.386  1.00  0.00    -0.029 A 
HETATM   24  C   UNL     1      25.948  47.592  54.219  1.00  0.00     0.051 C 
HETATM   25  C   UNL     1      28.095  46.699  55.168  1.00  0.00     0.010 A 
HETATM   26  C   UNL     1      29.039  45.685  55.343  1.00  0.00     0.008 A 
HETATM   27  C   UNL     1      28.855  44.429  54.754  1.00  0.00    -0.052 A 
HETATM   28  C   UNL     1      27.703  44.214  53.979  1.00  0.00     0.044 A 
BRANCH  27  29
HETATM   29  C   UNL     1      29.893  43.338  54.955  1.00  0.00     0.010 C 
HETATM   30  C   UNL     1      30.405  42.780  53.624  1.00  0.00     0.015 C 
HETATM   31  C   UNL     1      31.054  43.837  55.819  1.00  0.00     0.015 C 
ENDBRANCH  27  29
ENDBRANCH  21  22
ENDBRANCH  20  21
ENDBRANCH   1  20
TORSDOF 6
ENDMDL
