MODEL 1
REMARK VINA RESULT:     -11.0      0.000      0.000
REMARK  7 active torsions:
REMARK  status: ('A' for Active; 'I' for Inactive)
REMARK    1  A    between atoms: C_6  and  N_7 
REMARK    2  A    between atoms: C_10  and  C_11 
REMARK       I    between atoms: C_11  and  N_12 
REMARK    3  A    between atoms: N_12  and  C_13 
REMARK    4  A    between atoms: C_16  and  C_17 
REMARK    5  A    between atoms: C_17  and  N_18 
REMARK    6  A    between atoms: C_21  and  C_22 
REMARK       I    between atoms: C_22  and  N_23 
REMARK    7  A    between atoms: C_31  and  C_32 
ROOT
HETATM    1  C   UNL     1      25.691  45.099  52.643  1.00  0.00     0.278 C 
HETATM    2  N   UNL     1      25.912  45.712  51.423  1.00  0.00    -0.322 N 
HETATM    3  O   UNL     1      24.601  44.817  53.124  1.00  0.00    -0.265 OA
HETATM    4  H   UNL     1      26.886  45.908  51.205  1.00  0.00     0.169 HD
ENDROOT
BRANCH   2   5
HETATM    5  C   UNL     1      24.945  46.102  50.477  1.00  0.00     0.035 A 
HETATM    6  C   UNL     1      24.158  45.202  49.758  1.00  0.00     0.030 A 
HETATM    7  C   UNL     1      23.216  45.656  48.829  1.00  0.00     0.011 A 
HETATM    8  C   UNL     1      23.025  47.027  48.616  1.00  0.00    -0.032 A 
HETATM    9  C   UNL     1      23.824  47.932  49.327  1.00  0.00     0.011 A 
HETATM   10  C   UNL     1      24.779  47.471  50.243  1.00  0.00     0.030 A 
BRANCH   8  11
HETATM   11  C   UNL     1      21.984  47.509  47.642  1.00  0.00     0.273 C 
BRANCH  11  12
HETATM   12  N   UNL     1      20.565  47.318  48.147  1.00  0.00    -0.066 N 
HETATM   13  H   UNL     1      20.504  46.337  48.445  1.00  0.00     0.280 HD
HETATM   14  C   UNL     1      20.271  48.178  49.364  1.00  0.00     0.249 C 
HETATM   15  C   UNL     1      18.877  47.856  49.911  1.00  0.00     0.103 C 
HETATM   16  C   UNL     1      17.810  47.997  48.823  1.00  0.00     0.017 C 
HETATM   17  C   UNL     1      18.167  47.188  47.579  1.00  0.00     0.029 C 
HETATM   18  C   UNL     1      19.553  47.531  47.052  1.00  0.00     0.235 C 
BRANCH  15  19
HETATM   19  C   UNL     1      18.605  48.791  51.073  1.00  0.00     0.221 C 
HETATM   20  N   UNL     1      18.603  48.224  52.309  1.00  0.00    -0.370 N 
HETATM   21  H   UNL     1      18.453  48.835  53.107  1.00  0.00     0.159 HD
HETATM   22  H   UNL     1      18.864  47.267  52.506  1.00  0.00     0.159 HD
HETATM   23  O   UNL     1      18.403  49.989  50.921  1.00  0.00    -0.273 OA
ENDBRANCH  15  19
ENDBRANCH  11  12
ENDBRANCH   8  11
ENDBRANCH   2   5
BRANCH   1  24
HETATM   24  C   UNL     1      26.927  44.787  53.352  1.00  0.00     0.175 C 
HETATM   25  N   UNL     1      27.598  43.608  53.197  1.00  0.00    -0.152 NA
HETATM   26  N   UNL     1      28.649  43.633  54.001  1.00  0.00     0.011 NA
HETATM   27  N   UNL     1      28.598  44.766  54.759  1.00  0.00    -0.231 N 
HETATM   28  C   UNL     1      27.624  45.589  54.236  1.00  0.00     0.174 C 
BRANCH  27  29
HETATM   29  C   UNL     1      29.438  44.883  55.901  1.00  0.00     0.058 A 
HETATM   30  C   UNL     1      30.551  44.035  56.015  1.00  0.00     0.073 A 
HETATM   31  C   UNL     1      31.377  44.120  57.132  1.00  0.00     0.118 A 
HETATM   32  C   UNL     1      31.114  45.022  58.153  1.00  0.00     0.042 A 
HETATM   33  F   UNL     1      32.445  43.317  57.222  1.00  0.00    -0.206 F 
HETATM   34  C   UNL     1      29.998  45.848  58.064  1.00  0.00     0.005 A 
HETATM   35  C   UNL     1      29.156  45.777  56.945  1.00  0.00     0.031 A 
ENDBRANCH  27  29
BRANCH  28  36
HETATM   36  C   UNL     1      27.460  47.008  54.536  1.00  0.00     0.436 C 
HETATM   37  F   UNL     1      26.785  47.668  53.562  1.00  0.00    -0.165 F 
HETATM   38  F   UNL     1      26.741  47.210  55.668  1.00  0.00    -0.165 F 
HETATM   39  F   UNL     1      28.650  47.633  54.693  1.00  0.00    -0.165 F 
ENDBRANCH  28  36
ENDBRANCH   1  24
TORSDOF 7
ENDMDL
MODEL 2
REMARK VINA RESULT:     -10.3      1.575      1.855
REMARK  7 active torsions:
REMARK  status: ('A' for Active; 'I' for Inactive)
REMARK    1  A    between atoms: C_6  and  N_7 
REMARK    2  A    between atoms: C_10  and  C_11 
REMARK       I    between atoms: C_11  and  N_12 
REMARK    3  A    between atoms: N_12  and  C_13 
REMARK    4  A    between atoms: C_16  and  C_17 
REMARK    5  A    between atoms: C_17  and  N_18 
REMARK    6  A    between atoms: C_21  and  C_22 
REMARK       I    between atoms: C_22  and  N_23 
REMARK    7  A    between atoms: C_31  and  C_32 
ROOT
HETATM    1  C   UNL     1      25.736  45.102  52.661  1.00  0.00     0.278 C 
HETATM    2  N   UNL     1      25.920  45.774  51.466  1.00  0.00    -0.322 N 
HETATM    3  O   UNL     1      24.661  44.783  53.152  1.00  0.00    -0.265 OA
HETATM    4  H   UNL     1      26.886  45.994  51.235  1.00  0.00     0.169 HD
ENDROOT
BRANCH   2   5
HETATM    5  C   UNL     1      24.926  46.193  50.561  1.00  0.00     0.035 A 
HETATM    6  C   UNL     1      24.184  45.318  49.766  1.00  0.00     0.030 A 
HETATM    7  C   UNL     1      23.212  45.801  48.884  1.00  0.00     0.011 A 
HETATM    8  C   UNL     1      22.945  47.173  48.794  1.00  0.00    -0.032 A 
HETATM    9  C   UNL     1      23.699  48.054  49.581  1.00  0.00     0.011 A 
HETATM   10  C   UNL     1      24.684  47.566  50.450  1.00  0.00     0.030 A 
BRANCH   8  11
HETATM   11  C   UNL     1      21.872  47.682  47.870  1.00  0.00     0.273 C 
BRANCH  11  12
HETATM   12  N   UNL     1      20.787  48.460  48.593  1.00  0.00    -0.066 N 
HETATM   13  H   UNL     1      21.236  48.859  49.426  1.00  0.00     0.280 HD
HETATM   14  C   UNL     1      20.266  49.621  47.763  1.00  0.00     0.249 C 
HETATM   15  C   UNL     1      19.269  50.447  48.581  1.00  0.00     0.103 C 
HETATM   16  C   UNL     1      18.143  49.568  49.132  1.00  0.00     0.017 C 
HETATM   17  C   UNL     1      18.692  48.365  49.894  1.00  0.00     0.029 C 
HETATM   18  C   UNL     1      19.673  47.558  49.057  1.00  0.00     0.235 C 
BRANCH  15  19
HETATM   19  C   UNL     1      18.725  51.542  47.685  1.00  0.00     0.221 C 
HETATM   20  N   UNL     1      18.700  52.793  48.217  1.00  0.00    -0.370 N 
HETATM   21  H   UNL     1      18.368  53.549  47.626  1.00  0.00     0.159 HD
HETATM   22  H   UNL     1      19.102  53.050  49.108  1.00  0.00     0.159 HD
HETATM   23  O   UNL     1      18.334  51.327  46.545  1.00  0.00    -0.273 OA
ENDBRANCH  15  19
ENDBRANCH  11  12
ENDBRANCH   8  11
ENDBRANCH   2   5
BRANCH   1  24
HETATM   24  C   UNL     1      26.992  44.776  53.326  1.00  0.00     0.175 C 
HETATM   25  N   UNL     1      27.678  43.618  53.099  1.00  0.00    -0.152 NA
HETATM   26  N   UNL     1      28.746  43.620  53.880  1.00  0.00     0.011 NA
HETATM   27  N   UNL     1      28.694  44.713  54.694  1.00  0.00    -0.231 N 
HETATM   28  C   UNL     1      27.696  45.545  54.234  1.00  0.00     0.174 C 
BRANCH  27  29
HETATM   29  C   UNL     1      29.557  44.788  55.822  1.00  0.00     0.058 A 
HETATM   30  C   UNL     1      30.612  43.868  55.932  1.00  0.00     0.073 A 
HETATM   31  C   UNL     1      31.459  43.911  57.035  1.00  0.00     0.118 A 
HETATM   32  C   UNL     1      31.273  44.841  58.048  1.00  0.00     0.042 A 
HETATM   33  F   UNL     1      32.472  43.038  57.121  1.00  0.00    -0.206 F 
HETATM   34  C   UNL     1      30.214  45.739  57.964  1.00  0.00     0.005 A 
HETATM   35  C   UNL     1      29.352  45.711  56.858  1.00  0.00     0.031 A 
ENDBRANCH  27  29
BRANCH  28  36
HETATM   36  C   UNL     1      27.516  46.944  54.608  1.00  0.00     0.436 C 
HETATM   37  F   UNL     1      28.689  47.624  54.650  1.00  0.00    -0.165 F 
HETATM   38  F   UNL     1      26.745  47.615  53.718  1.00  0.00    -0.165 F 
HETATM   39  F   UNL     1      26.937  47.071  55.825  1.00  0.00    -0.165 F 
ENDBRANCH  28  36
ENDBRANCH   1  24
TORSDOF 7
ENDMDL
MODEL 3
REMARK VINA RESULT:     -10.2      4.118     11.126
REMARK  7 active torsions:
REMARK  status: ('A' for Active; 'I' for Inactive)
REMARK    1  A    between atoms: C_6  and  N_7 
REMARK    2  A    between atoms: C_10  and  C_11 
REMARK       I    between atoms: C_11  and  N_12 
REMARK    3  A    between atoms: N_12  and  C_13 
REMARK    4  A    between atoms: C_16  and  C_17 
REMARK    5  A    between atoms: C_17  and  N_18 
REMARK    6  A    between atoms: C_21  and  C_22 
REMARK       I    between atoms: C_22  and  N_23 
REMARK    7  A    between atoms: C_31  and  C_32 
ROOT
HETATM    1  C   UNL     1      24.864  48.144  49.502  1.00  0.00     0.278 C 
HETATM    2  N   UNL     1      24.492  47.740  50.771  1.00  0.00    -0.322 N 
HETATM    3  O   UNL     1      25.848  47.764  48.882  1.00  0.00    -0.265 OA
HETATM    4  H   UNL     1      23.664  48.196  51.147  1.00  0.00     0.169 HD
ENDROOT
BRANCH   2   5
HETATM    5  C   UNL     1      25.140  46.795  51.590  1.00  0.00     0.035 A 
HETATM    6  C   UNL     1      26.090  47.129  52.555  1.00  0.00     0.030 A 
HETATM    7  C   UNL     1      26.699  46.140  53.334  1.00  0.00     0.011 A 
HETATM    8  C   UNL     1      26.352  44.792  53.178  1.00  0.00    -0.032 A 
HETATM    9  C   UNL     1      25.409  44.453  52.200  1.00  0.00     0.011 A 
HETATM   10  C   UNL     1      24.815  45.447  51.410  1.00  0.00     0.030 A 
BRANCH   8  11
HETATM   11  C   UNL     1      26.985  43.737  54.045  1.00  0.00     0.273 C 
BRANCH  11  12
HETATM   12  N   UNL     1      28.379  44.113  54.515  1.00  0.00    -0.066 N 
HETATM   13  H   UNL     1      28.737  44.782  53.823  1.00  0.00     0.280 HD
HETATM   14  C   UNL     1      28.358  44.822  55.858  1.00  0.00     0.249 C 
HETATM   15  C   UNL     1      29.768  45.292  56.227  1.00  0.00     0.103 C 
HETATM   16  C   UNL     1      30.764  44.131  56.193  1.00  0.00     0.017 C 
HETATM   17  C   UNL     1      30.711  43.384  54.864  1.00  0.00     0.029 C 
HETATM   18  C   UNL     1      29.301  42.922  54.524  1.00  0.00     0.235 C 
BRANCH  15  19
HETATM   19  C   UNL     1      29.703  45.922  57.605  1.00  0.00     0.221 C 
HETATM   20  N   UNL     1      30.869  45.952  58.304  1.00  0.00    -0.370 N 
HETATM   21  H   UNL     1      30.858  46.396  59.217  1.00  0.00     0.159 HD
HETATM   22  H   UNL     1      31.771  45.680  57.936  1.00  0.00     0.159 HD
HETATM   23  O   UNL     1      28.670  46.387  58.069  1.00  0.00    -0.273 OA
ENDBRANCH  15  19
ENDBRANCH  11  12
ENDBRANCH   8  11
ENDBRANCH   2   5
BRANCH   1  24
HETATM   24  C   UNL     1      23.936  49.107  48.920  1.00  0.00     0.175 C 
HETATM   25  N   UNL     1      24.281  50.397  48.635  1.00  0.00    -0.152 NA
HETATM   26  N   UNL     1      23.209  51.005  48.153  1.00  0.00     0.011 NA
HETATM   27  N   UNL     1      22.146  50.154  48.233  1.00  0.00    -0.231 N 
HETATM   28  C   UNL     1      22.622  48.898  48.541  1.00  0.00     0.174 C 
BRANCH  27  29
HETATM   29  C   UNL     1      20.828  50.661  48.063  1.00  0.00     0.058 A 
HETATM   30  C   UNL     1      20.257  51.427  49.093  1.00  0.00     0.073 A 
HETATM   31  C   UNL     1      18.962  51.919  48.956  1.00  0.00     0.118 A 
HETATM   32  C   UNL     1      18.210  51.655  47.820  1.00  0.00     0.042 A 
HETATM   33  F   UNL     1      18.434  52.661  49.938  1.00  0.00    -0.206 F 
HETATM   34  C   UNL     1      18.756  50.875  46.806  1.00  0.00     0.005 A 
HETATM   35  C   UNL     1      20.058  50.372  46.926  1.00  0.00     0.031 A 
ENDBRANCH  27  29
BRANCH  28  36
HETATM   36  C   UNL     1      21.877  47.651  48.410  1.00  0.00     0.436 C 
HETATM   37  F   UNL     1      22.602  46.571  48.797  1.00  0.00    -0.165 F 
HETATM   38  F   UNL     1      20.768  47.634  49.189  1.00  0.00    -0.165 F 
HETATM   39  F   UNL     1      21.482  47.430  47.134  1.00  0.00    -0.165 F 
ENDBRANCH  28  36
ENDBRANCH   1  24
TORSDOF 7
ENDMDL
MODEL 4
REMARK VINA RESULT:      -9.9      1.849      2.453
REMARK  7 active torsions:
REMARK  status: ('A' for Active; 'I' for Inactive)
REMARK    1  A    between atoms: C_6  and  N_7 
REMARK    2  A    between atoms: C_10  and  C_11 
REMARK       I    between atoms: C_11  and  N_12 
REMARK    3  A    between atoms: N_12  and  C_13 
REMARK    4  A    between atoms: C_16  and  C_17 
REMARK    5  A    between atoms: C_17  and  N_18 
REMARK    6  A    between atoms: C_21  and  C_22 
REMARK       I    between atoms: C_22  and  N_23 
REMARK    7  A    between atoms: C_31  and  C_32 
ROOT
HETATM    1  C   UNL     1      25.835  47.219  53.242  1.00  0.00     0.278 C 
HETATM    2  N   UNL     1      25.900  46.543  52.037  1.00  0.00    -0.322 N 
HETATM    3  O   UNL     1      24.965  48.011  53.580  1.00  0.00    -0.265 OA
HETATM    4  H   UNL     1      26.721  45.955  51.912  1.00  0.00     0.169 HD
ENDROOT
BRANCH   2   5
HETATM    5  C   UNL     1      24.974  46.596  50.978  1.00  0.00     0.035 A 
HETATM    6  C   UNL     1      24.223  45.500  50.550  1.00  0.00     0.030 A 
HETATM    7  C   UNL     1      23.321  45.620  49.489  1.00  0.00     0.011 A 
HETATM    8  C   UNL     1      23.135  46.849  48.843  1.00  0.00    -0.032 A 
HETATM    9  C   UNL     1      23.899  47.947  49.261  1.00  0.00     0.011 A 
HETATM   10  C   UNL     1      24.814  47.816  50.314  1.00  0.00     0.030 A 
BRANCH   8  11
HETATM   11  C   UNL     1      22.137  46.979  47.724  1.00  0.00     0.273 C 
BRANCH  11  12
HETATM   12  N   UNL     1      21.313  48.252  47.811  1.00  0.00    -0.066 N 
HETATM   13  H   UNL     1      20.702  48.247  46.985  1.00  0.00     0.280 HD
HETATM   14  C   UNL     1      20.413  48.269  49.035  1.00  0.00     0.249 C 
HETATM   15  C   UNL     1      19.514  49.508  49.010  1.00  0.00     0.103 C 
HETATM   16  C   UNL     1      20.341  50.789  48.873  1.00  0.00     0.017 C 
HETATM   17  C   UNL     1      21.294  50.717  47.684  1.00  0.00     0.029 C 
HETATM   18  C   UNL     1      22.181  49.481  47.736  1.00  0.00     0.235 C 
BRANCH  15  19
HETATM   19  C   UNL     1      18.695  49.515  50.286  1.00  0.00     0.221 C 
HETATM   20  N   UNL     1      18.968  48.526  51.178  1.00  0.00    -0.370 N 
HETATM   21  H   UNL     1      18.454  48.527  52.054  1.00  0.00     0.159 HD
HETATM   22  H   UNL     1      19.729  47.866  51.093  1.00  0.00     0.159 HD
HETATM   23  O   UNL     1      17.839  50.361  50.515  1.00  0.00    -0.273 OA
ENDBRANCH  15  19
ENDBRANCH  11  12
ENDBRANCH   8  11
ENDBRANCH   2   5
BRANCH   1  24
HETATM   24  C   UNL     1      26.941  46.892  54.135  1.00  0.00     0.175 C 
HETATM   25  N   UNL     1      27.808  47.828  54.622  1.00  0.00    -0.152 NA
HETATM   26  N   UNL     1      28.704  47.201  55.367  1.00  0.00     0.011 NA
HETATM   27  N   UNL     1      28.493  45.857  55.271  1.00  0.00    -0.231 N 
HETATM   28  C   UNL     1      27.280  45.655  54.649  1.00  0.00     0.174 C 
BRANCH  27  29
HETATM   29  C   UNL     1      29.494  44.957  55.729  1.00  0.00     0.058 A 
HETATM   30  C   UNL     1      30.141  45.223  56.947  1.00  0.00     0.073 A 
HETATM   31  C   UNL     1      31.135  44.365  57.407  1.00  0.00     0.118 A 
HETATM   32  C   UNL     1      31.518  43.250  56.675  1.00  0.00     0.042 A 
HETATM   33  F   UNL     1      31.734  44.621  58.578  1.00  0.00    -0.206 F 
HETATM   34  C   UNL     1      30.904  42.992  55.454  1.00  0.00     0.005 A 
HETATM   35  C   UNL     1      29.899  43.844  54.976  1.00  0.00     0.031 A 
ENDBRANCH  27  29
BRANCH  28  36
HETATM   36  C   UNL     1      26.531  44.402  54.633  1.00  0.00     0.436 C 
HETATM   37  F   UNL     1      26.868  43.611  53.583  1.00  0.00    -0.165 F 
HETATM   38  F   UNL     1      26.769  43.651  55.736  1.00  0.00    -0.165 F 
HETATM   39  F   UNL     1      25.196  44.612  54.563  1.00  0.00    -0.165 F 
ENDBRANCH  28  36
ENDBRANCH   1  24
TORSDOF 7
ENDMDL
MODEL 5
REMARK VINA RESULT:      -9.9      4.315     11.046
REMARK  7 active torsions:
REMARK  status: ('A' for Active; 'I' for Inactive)
REMARK    1  A    between atoms: C_6  and  N_7 
REMARK    2  A    between atoms: C_10  and  C_11 
REMARK       I    between atoms: C_11  and  N_12 
REMARK    3  A    between atoms: N_12  and  C_13 
REMARK    4  A    between atoms: C_16  and  C_17 
REMARK    5  A    between atoms: C_17  and  N_18 
REMARK    6  A    between atoms: C_21  and  C_22 
REMARK       I    between atoms: C_22  and  N_23 
REMARK    7  A    between atoms: C_31  and  C_32 
ROOT
HETATM    1  C   UNL     1      23.224  46.758  48.717  1.00  0.00     0.278 C 
HETATM    2  N   UNL     1      24.121  46.946  49.752  1.00  0.00    -0.322 N 
HETATM    3  O   UNL     1      22.999  45.703  48.138  1.00  0.00    -0.265 OA
HETATM    4  H   UNL     1      24.208  47.903  50.084  1.00  0.00     0.169 HD
ENDROOT
BRANCH   2   5
HETATM    5  C   UNL     1      24.926  45.970  50.372  1.00  0.00     0.035 A 
HETATM    6  C   UNL     1      26.269  45.760  50.056  1.00  0.00     0.030 A 
HETATM    7  C   UNL     1      27.012  44.771  50.707  1.00  0.00     0.011 A 
HETATM    8  C   UNL     1      26.431  43.982  51.708  1.00  0.00    -0.032 A 
HETATM    9  C   UNL     1      25.079  44.181  52.016  1.00  0.00     0.011 A 
HETATM   10  C   UNL     1      24.335  45.162  51.348  1.00  0.00     0.030 A 
BRANCH   8  11
HETATM   11  C   UNL     1      27.247  42.944  52.430  1.00  0.00     0.273 C 
BRANCH  11  12
HETATM   12  N   UNL     1      28.401  43.539  53.217  1.00  0.00    -0.066 N 
HETATM   13  H   UNL     1      28.954  44.077  52.540  1.00  0.00     0.280 HD
HETATM   14  C   UNL     1      27.926  44.511  54.283  1.00  0.00     0.249 C 
HETATM   15  C   UNL     1      29.126  45.178  54.961  1.00  0.00     0.103 C 
HETATM   16  C   UNL     1      30.100  44.133  55.513  1.00  0.00     0.017 C 
HETATM   17  C   UNL     1      30.501  43.120  54.444  1.00  0.00     0.029 C 
HETATM   18  C   UNL     1      29.291  42.468  53.792  1.00  0.00     0.235 C 
BRANCH  15  19
HETATM   19  C   UNL     1      28.600  46.076  56.062  1.00  0.00     0.221 C 
HETATM   20  N   UNL     1      27.717  47.037  55.680  1.00  0.00    -0.370 N 
HETATM   21  H   UNL     1      27.327  47.632  56.405  1.00  0.00     0.159 HD
HETATM   22  H   UNL     1      27.323  47.123  54.753  1.00  0.00     0.159 HD
HETATM   23  O   UNL     1      28.938  45.951  57.233  1.00  0.00    -0.273 OA
ENDBRANCH  15  19
ENDBRANCH  11  12
ENDBRANCH   8  11
ENDBRANCH   2   5
BRANCH   1  24
HETATM   24  C   UNL     1      22.519  47.981  48.350  1.00  0.00     0.175 C 
HETATM   25  N   UNL     1      23.135  49.053  47.771  1.00  0.00    -0.152 NA
HETATM   26  N   UNL     1      22.226  49.999  47.601  1.00  0.00     0.011 NA
HETATM   27  N   UNL     1      21.056  49.593  48.172  1.00  0.00    -0.231 N 
HETATM   28  C   UNL     1      21.170  48.256  48.485  1.00  0.00     0.174 C 
BRANCH  27  29
HETATM   29  C   UNL     1      20.018  50.540  48.391  1.00  0.00     0.058 A 
HETATM   30  C   UNL     1      19.257  50.979  47.295  1.00  0.00     0.073 A 
HETATM   31  C   UNL     1      18.247  51.918  47.482  1.00  0.00     0.118 A 
HETATM   32  C   UNL     1      17.982  52.449  48.737  1.00  0.00     0.042 A 
HETATM   33  F   UNL     1      17.518  52.318  46.432  1.00  0.00    -0.206 F 
HETATM   34  C   UNL     1      18.748  52.042  49.825  1.00  0.00     0.005 A 
HETATM   35  C   UNL     1      19.768  51.095  49.655  1.00  0.00     0.031 A 
ENDBRANCH  27  29
BRANCH  28  36
HETATM   36  C   UNL     1      20.065  47.360  48.809  1.00  0.00     0.436 C 
HETATM   37  F   UNL     1      19.399  47.744  49.927  1.00  0.00    -0.165 F 
HETATM   38  F   UNL     1      19.128  47.330  47.829  1.00  0.00    -0.165 F 
HETATM   39  F   UNL     1      20.485  46.090  49.010  1.00  0.00    -0.165 F 
ENDBRANCH  28  36
ENDBRANCH   1  24
TORSDOF 7
ENDMDL
MODEL 6
REMARK VINA RESULT:      -9.8      3.655      5.530
REMARK  7 active torsions:
REMARK  status: ('A' for Active; 'I' for Inactive)
REMARK    1  A    between atoms: C_6  and  N_7 
REMARK    2  A    between atoms: C_10  and  C_11 
REMARK       I    between atoms: C_11  and  N_12 
REMARK    3  A    between atoms: N_12  and  C_13 
REMARK    4  A    between atoms: C_16  and  C_17 
REMARK    5  A    between atoms: C_17  and  N_18 
REMARK    6  A    between atoms: C_21  and  C_22 
REMARK       I    between atoms: C_22  and  N_23 
REMARK    7  A    between atoms: C_31  and  C_32 
ROOT
HETATM    1  C   UNL     1      22.920  46.813  48.662  1.00  0.00     0.278 C 
HETATM    2  N   UNL     1      22.392  47.724  49.559  1.00  0.00    -0.322 N 
HETATM    3  O   UNL     1      22.744  46.808  47.450  1.00  0.00    -0.265 OA
HETATM    4  H   UNL     1      22.610  47.547  50.537  1.00  0.00     0.169 HD
ENDROOT
BRANCH   2   5
HETATM    5  C   UNL     1      21.583  48.839  49.267  1.00  0.00     0.035 A 
HETATM    6  C   UNL     1      20.196  48.774  49.129  1.00  0.00     0.030 A 
HETATM    7  C   UNL     1      19.450  49.919  48.835  1.00  0.00     0.011 A 
HETATM    8  C   UNL     1      20.076  51.164  48.694  1.00  0.00    -0.032 A 
HETATM    9  C   UNL     1      21.470  51.229  48.818  1.00  0.00     0.011 A 
HETATM   10  C   UNL     1      22.214  50.075  49.095  1.00  0.00     0.030 A 
BRANCH   8  11
HETATM   11  C   UNL     1      19.264  52.399  48.414  1.00  0.00     0.273 C 
BRANCH  11  12
HETATM   12  N   UNL     1      17.769  52.133  48.389  1.00  0.00    -0.066 N 
HETATM   13  H   UNL     1      17.661  51.128  48.571  1.00  0.00     0.280 HD
HETATM   14  C   UNL     1      17.037  52.873  49.496  1.00  0.00     0.249 C 
HETATM   15  C   UNL     1      15.559  52.474  49.508  1.00  0.00     0.103 C 
HETATM   16  C   UNL     1      14.917  52.689  48.135  1.00  0.00     0.017 C 
HETATM   17  C   UNL     1      15.713  52.003  47.029  1.00  0.00     0.029 C 
HETATM   18  C   UNL     1      17.177  52.422  47.034  1.00  0.00     0.235 C 
BRANCH  15  19
HETATM   19  C   UNL     1      14.864  53.294  50.576  1.00  0.00     0.221 C 
HETATM   20  N   UNL     1      15.518  54.410  50.995  1.00  0.00    -0.370 N 
HETATM   21  H   UNL     1      15.059  54.993  51.688  1.00  0.00     0.159 HD
HETATM   22  H   UNL     1      16.367  54.771  50.581  1.00  0.00     0.159 HD
HETATM   23  O   UNL     1      13.772  52.985  51.038  1.00  0.00    -0.273 OA
ENDBRANCH  15  19
ENDBRANCH  11  12
ENDBRANCH   8  11
ENDBRANCH   2   5
BRANCH   1  24
HETATM   24  C   UNL     1      23.757  45.807  49.303  1.00  0.00     0.175 C 
HETATM   25  N   UNL     1      23.412  44.488  49.380  1.00  0.00    -0.152 NA
HETATM   26  N   UNL     1      24.365  43.858  50.048  1.00  0.00     0.011 NA
HETATM   27  N   UNL     1      25.263  44.777  50.504  1.00  0.00    -0.231 N 
HETATM   28  C   UNL     1      24.996  45.982  49.892  1.00  0.00     0.174 C 
BRANCH  27  29
HETATM   29  C   UNL     1      26.210  44.399  51.496  1.00  0.00     0.058 A 
HETATM   30  C   UNL     1      25.820  44.407  52.845  1.00  0.00     0.073 A 
HETATM   31  C   UNL     1      26.734  44.057  53.835  1.00  0.00     0.118 A 
HETATM   32  C   UNL     1      28.040  43.711  53.517  1.00  0.00     0.042 A 
HETATM   33  F   UNL     1      26.345  44.053  55.117  1.00  0.00    -0.206 F 
HETATM   34  C   UNL     1      28.445  43.726  52.186  1.00  0.00     0.005 A 
HETATM   35  C   UNL     1      27.537  44.075  51.177  1.00  0.00     0.031 A 
ENDBRANCH  27  29
BRANCH  28  36
HETATM   36  C   UNL     1      25.894  47.132  49.848  1.00  0.00     0.436 C 
HETATM   37  F   UNL     1      26.146  47.640  51.080  1.00  0.00    -0.165 F 
HETATM   38  F   UNL     1      27.109  46.810  49.339  1.00  0.00    -0.165 F 
HETATM   39  F   UNL     1      25.391  48.138  49.095  1.00  0.00    -0.165 F 
ENDBRANCH  28  36
ENDBRANCH   1  24
TORSDOF 7
ENDMDL
MODEL 7
REMARK VINA RESULT:      -9.3      5.960      9.579
REMARK  7 active torsions:
REMARK  status: ('A' for Active; 'I' for Inactive)
REMARK    1  A    between atoms: C_6  and  N_7 
REMARK    2  A    between atoms: C_10  and  C_11 
REMARK       I    between atoms: C_11  and  N_12 
REMARK    3  A    between atoms: N_12  and  C_13 
REMARK    4  A    between atoms: C_16  and  C_17 
REMARK    5  A    between atoms: C_17  and  N_18 
REMARK    6  A    between atoms: C_21  and  C_22 
REMARK       I    between atoms: C_22  and  N_23 
REMARK    7  A    between atoms: C_31  and  C_32 
ROOT
HETATM    1  C   UNL     1      19.428  49.247  49.591  1.00  0.00     0.278 C 
HETATM    2  N   UNL     1      19.085  50.443  48.987  1.00  0.00    -0.322 N 
HETATM    3  O   UNL     1      18.730  48.599  50.360  1.00  0.00    -0.265 OA
HETATM    4  H   UNL     1      19.809  50.862  48.409  1.00  0.00     0.169 HD
ENDROOT
BRANCH   2   5
HETATM    5  C   UNL     1      17.865  51.138  49.102  1.00  0.00     0.035 A 
HETATM    6  C   UNL     1      16.664  50.691  48.550  1.00  0.00     0.030 A 
HETATM    7  C   UNL     1      15.488  51.431  48.699  1.00  0.00     0.011 A 
HETATM    8  C   UNL     1      15.483  52.629  49.425  1.00  0.00    -0.032 A 
HETATM    9  C   UNL     1      16.690  53.087  49.968  1.00  0.00     0.011 A 
HETATM   10  C   UNL     1      17.870  52.349  49.801  1.00  0.00     0.030 A 
BRANCH   8  11
HETATM   11  C   UNL     1      14.205  53.402  49.612  1.00  0.00     0.273 C 
BRANCH  11  12
HETATM   12  N   UNL     1      14.428  54.776  50.220  1.00  0.00    -0.066 N 
HETATM   13  H   UNL     1      15.444  54.874  50.326  1.00  0.00     0.280 HD
HETATM   14  C   UNL     1      13.961  55.891  49.300  1.00  0.00     0.249 C 
HETATM   15  C   UNL     1      14.322  57.254  49.899  1.00  0.00     0.103 C 
HETATM   16  C   UNL     1      13.769  57.396  51.320  1.00  0.00     0.017 C 
HETATM   17  C   UNL     1      14.185  56.224  52.204  1.00  0.00     0.029 C 
HETATM   18  C   UNL     1      13.809  54.883  51.589  1.00  0.00     0.235 C 
BRANCH  15  19
HETATM   19  C   UNL     1      13.769  58.327  48.983  1.00  0.00     0.221 C 
HETATM   20  N   UNL     1      13.857  58.079  47.649  1.00  0.00    -0.370 N 
HETATM   21  H   UNL     1      13.467  58.769  47.015  1.00  0.00     0.159 HD
HETATM   22  H   UNL     1      14.167  57.206  47.243  1.00  0.00     0.159 HD
HETATM   23  O   UNL     1      13.264  59.359  49.407  1.00  0.00    -0.273 OA
ENDBRANCH  15  19
ENDBRANCH  11  12
ENDBRANCH   8  11
ENDBRANCH   2   5
BRANCH   1  24
HETATM   24  C   UNL     1      20.758  48.783  49.213  1.00  0.00     0.175 C 
HETATM   25  N   UNL     1      20.990  47.557  48.659  1.00  0.00    -0.152 NA
HETATM   26  N   UNL     1      22.295  47.439  48.470  1.00  0.00     0.011 NA
HETATM   27  N   UNL     1      22.917  48.529  49.004  1.00  0.00    -0.231 N 
HETATM   28  C   UNL     1      21.955  49.467  49.310  1.00  0.00     0.174 C 
BRANCH  27  29
HETATM   29  C   UNL     1      24.325  48.505  49.200  1.00  0.00     0.058 A 
HETATM   30  C   UNL     1      25.122  49.438  48.516  1.00  0.00     0.073 A 
HETATM   31  C   UNL     1      26.504  49.423  48.678  1.00  0.00     0.118 A 
HETATM   32  C   UNL     1      27.121  48.487  49.497  1.00  0.00     0.042 A 
HETATM   33  F   UNL     1      27.252  50.328  48.033  1.00  0.00    -0.206 F 
HETATM   34  C   UNL     1      26.344  47.541  50.157  1.00  0.00     0.005 A 
HETATM   35  C   UNL     1      24.951  47.543  50.006  1.00  0.00     0.031 A 
ENDBRANCH  27  29
BRANCH  28  36
HETATM   36  C   UNL     1      22.202  50.876  49.597  1.00  0.00     0.436 C 
HETATM   37  F   UNL     1      23.526  51.167  49.661  1.00  0.00    -0.165 F 
HETATM   38  F   UNL     1      21.704  51.688  48.632  1.00  0.00    -0.165 F 
HETATM   39  F   UNL     1      21.652  51.257  50.774  1.00  0.00    -0.165 F 
ENDBRANCH  28  36
ENDBRANCH   1  24
TORSDOF 7
ENDMDL
MODEL 8
REMARK VINA RESULT:      -9.2     14.917     15.846
REMARK  7 active torsions:
REMARK  status: ('A' for Active; 'I' for Inactive)
REMARK    1  A    between atoms: C_6  and  N_7 
REMARK    2  A    between atoms: C_10  and  C_11 
REMARK       I    between atoms: C_11  and  N_12 
REMARK    3  A    between atoms: N_12  and  C_13 
REMARK    4  A    between atoms: C_16  and  C_17 
REMARK    5  A    between atoms: C_17  and  N_18 
REMARK    6  A    between atoms: C_21  and  C_22 
REMARK       I    between atoms: C_22  and  N_23 
REMARK    7  A    between atoms: C_31  and  C_32 
ROOT
HETATM    1  C   UNL     1      37.063  53.140  43.210  1.00  0.00     0.278 C 
HETATM    2  N   UNL     1      36.348  52.105  43.786  1.00  0.00    -0.322 N 
HETATM    3  O   UNL     1      36.667  53.887  42.325  1.00  0.00    -0.265 OA
HETATM    4  H   UNL     1      36.855  51.561  44.480  1.00  0.00     0.169 HD
ENDROOT
BRANCH   2   5
HETATM    5  C   UNL     1      35.024  51.722  43.501  1.00  0.00     0.035 A 
HETATM    6  C   UNL     1      33.935  52.035  44.317  1.00  0.00     0.030 A 
HETATM    7  C   UNL     1      32.643  51.621  43.978  1.00  0.00     0.011 A 
HETATM    8  C   UNL     1      32.409  50.900  42.801  1.00  0.00    -0.032 A 
HETATM    9  C   UNL     1      33.502  50.571  41.988  1.00  0.00     0.011 A 
HETATM   10  C   UNL     1      34.796  50.974  42.342  1.00  0.00     0.030 A 
BRANCH   8  11
HETATM   11  C   UNL     1      31.011  50.489  42.424  1.00  0.00     0.273 C 
BRANCH  11  12
HETATM   12  N   UNL     1      30.480  51.235  41.213  1.00  0.00    -0.066 N 
HETATM   13  H   UNL     1      31.184  51.110  40.476  1.00  0.00     0.280 HD
HETATM   14  C   UNL     1      29.180  50.639  40.699  1.00  0.00     0.249 C 
HETATM   15  C   UNL     1      28.754  51.342  39.407  1.00  0.00     0.103 C 
HETATM   16  C   UNL     1      28.665  52.857  39.606  1.00  0.00     0.017 C 
HETATM   17  C   UNL     1      29.954  53.422  40.197  1.00  0.00     0.029 C 
HETATM   18  C   UNL     1      30.351  52.711  41.483  1.00  0.00     0.235 C 
BRANCH  15  19
HETATM   19  C   UNL     1      27.419  50.764  38.980  1.00  0.00     0.221 C 
HETATM   20  N   UNL     1      26.512  50.558  39.972  1.00  0.00    -0.370 N 
HETATM   21  H   UNL     1      25.599  50.200  39.708  1.00  0.00     0.159 HD
HETATM   22  H   UNL     1      26.629  50.851  40.933  1.00  0.00     0.159 HD
HETATM   23  O   UNL     1      27.158  50.499  37.813  1.00  0.00    -0.273 OA
ENDBRANCH  15  19
ENDBRANCH  11  12
ENDBRANCH   8  11
ENDBRANCH   2   5
BRANCH   1  24
HETATM   24  C   UNL     1      38.398  53.290  43.777  1.00  0.00     0.175 C 
HETATM   25  N   UNL     1      39.446  52.481  43.442  1.00  0.00    -0.152 NA
HETATM   26  N   UNL     1      40.494  52.861  44.155  1.00  0.00     0.011 NA
HETATM   27  N   UNL     1      40.103  53.830  45.031  1.00  0.00    -0.231 N 
HETATM   28  C   UNL     1      38.835  54.240  44.682  1.00  0.00     0.174 C 
BRANCH  27  29
HETATM   29  C   UNL     1      40.962  54.190  46.106  1.00  0.00     0.058 A 
HETATM   30  C   UNL     1      42.105  54.961  45.834  1.00  0.00     0.073 A 
HETATM   31  C   UNL     1      42.969  55.311  46.866  1.00  0.00     0.118 A 
HETATM   32  C   UNL     1      42.735  54.898  48.170  1.00  0.00     0.042 A 
HETATM   33  F   UNL     1      44.047  56.059  46.597  1.00  0.00    -0.206 F 
HETATM   34  C   UNL     1      41.621  54.111  48.447  1.00  0.00     0.005 A 
HETATM   35  C   UNL     1      40.739  53.751  47.419  1.00  0.00     0.031 A 
ENDBRANCH  27  29
BRANCH  28  36
HETATM   36  C   UNL     1      38.177  55.458  45.145  1.00  0.00     0.436 C 
HETATM   37  F   UNL     1      38.980  56.211  45.937  1.00  0.00    -0.165 F 
HETATM   38  F   UNL     1      37.827  56.270  44.117  1.00  0.00    -0.165 F 
HETATM   39  F   UNL     1      37.056  55.189  45.852  1.00  0.00    -0.165 F 
ENDBRANCH  28  36
ENDBRANCH   1  24
TORSDOF 7
ENDMDL
MODEL 9
REMARK VINA RESULT:      -9.1      4.059     10.960
REMARK  7 active torsions:
REMARK  status: ('A' for Active; 'I' for Inactive)
REMARK    1  A    between atoms: C_6  and  N_7 
REMARK    2  A    between atoms: C_10  and  C_11 
REMARK       I    between atoms: C_11  and  N_12 
REMARK    3  A    between atoms: N_12  and  C_13 
REMARK    4  A    between atoms: C_16  and  C_17 
REMARK    5  A    between atoms: C_17  and  N_18 
REMARK    6  A    between atoms: C_21  and  C_22 
REMARK       I    between atoms: C_22  and  N_23 
REMARK    7  A    between atoms: C_31  and  C_32 
ROOT
HETATM    1  C   UNL     1      22.385  46.102  48.473  1.00  0.00     0.278 C 
HETATM    2  N   UNL     1      23.014  45.934  49.693  1.00  0.00    -0.322 N 
HETATM    3  O   UNL     1      22.672  45.532  47.428  1.00  0.00    -0.265 OA
HETATM    4  H   UNL     1      22.668  46.525  50.445  1.00  0.00     0.169 HD
ENDROOT
BRANCH   2   5
HETATM    5  C   UNL     1      24.077  45.060  49.993  1.00  0.00     0.035 A 
HETATM    6  C   UNL     1      23.909  43.822  50.615  1.00  0.00     0.030 A 
HETATM    7  C   UNL     1      25.008  43.002  50.887  1.00  0.00     0.011 A 
HETATM    8  C   UNL     1      26.302  43.394  50.521  1.00  0.00    -0.032 A 
HETATM    9  C   UNL     1      26.474  44.643  49.909  1.00  0.00     0.011 A 
HETATM   10  C   UNL     1      25.371  45.468  49.655  1.00  0.00     0.030 A 
BRANCH   8  11
HETATM   11  C   UNL     1      27.476  42.491  50.784  1.00  0.00     0.273 C 
BRANCH  11  12
HETATM   12  N   UNL     1      28.413  43.032  51.850  1.00  0.00    -0.066 N 
HETATM   13  H   UNL     1      29.020  43.708  51.372  1.00  0.00     0.280 HD
HETATM   14  C   UNL     1      27.668  43.786  52.937  1.00  0.00     0.249 C 
HETATM   15  C   UNL     1      28.663  44.419  53.915  1.00  0.00     0.103 C 
HETATM   16  C   UNL     1      29.622  43.370  54.482  1.00  0.00     0.017 C 
HETATM   17  C   UNL     1      30.299  42.570  53.373  1.00  0.00     0.029 C 
HETATM   18  C   UNL     1      29.290  41.947  52.420  1.00  0.00     0.235 C 
BRANCH  15  19
HETATM   19  C   UNL     1      27.869  45.092  55.017  1.00  0.00     0.221 C 
HETATM   20  N   UNL     1      28.595  45.727  55.975  1.00  0.00    -0.370 N 
HETATM   21  H   UNL     1      28.086  46.212  56.708  1.00  0.00     0.159 HD
HETATM   22  H   UNL     1      29.597  45.862  55.946  1.00  0.00     0.159 HD
HETATM   23  O   UNL     1      26.645  45.077  55.051  1.00  0.00    -0.273 OA
ENDBRANCH  15  19
ENDBRANCH  11  12
ENDBRANCH   8  11
ENDBRANCH   2   5
BRANCH   1  24
HETATM   24  C   UNL     1      21.286  47.058  48.529  1.00  0.00     0.175 C 
HETATM   25  N   UNL     1      19.992  46.693  48.767  1.00  0.00    -0.152 NA
HETATM   26  N   UNL     1      19.247  47.786  48.719  1.00  0.00     0.011 NA
HETATM   27  N   UNL     1      20.030  48.835  48.336  1.00  0.00    -0.231 N 
HETATM   28  C   UNL     1      21.347  48.432  48.391  1.00  0.00     0.174 C 
BRANCH  27  29
HETATM   29  C   UNL     1      19.419  50.050  47.920  1.00  0.00     0.058 A 
HETATM   30  C   UNL     1      18.813  50.107  46.655  1.00  0.00     0.073 A 
HETATM   31  C   UNL     1      18.223  51.290  46.219  1.00  0.00     0.118 A 
HETATM   32  C   UNL     1      18.235  52.431  47.007  1.00  0.00     0.042 A 
HETATM   33  F   UNL     1      17.634  51.326  45.016  1.00  0.00    -0.206 F 
HETATM   34  C   UNL     1      18.857  52.395  48.251  1.00  0.00     0.005 A 
HETATM   35  C   UNL     1      19.454  51.211  48.707  1.00  0.00     0.031 A 
ENDBRANCH  27  29
BRANCH  28  36
HETATM   36  C   UNL     1      22.508  49.316  48.373  1.00  0.00     0.436 C 
HETATM   37  F   UNL     1      22.616  50.053  49.507  1.00  0.00    -0.165 F 
HETATM   38  F   UNL     1      23.672  48.627  48.283  1.00  0.00    -0.165 F 
HETATM   39  F   UNL     1      22.467  50.184  47.335  1.00  0.00    -0.165 F 
ENDBRANCH  28  36
ENDBRANCH   1  24
TORSDOF 7
ENDMDL
MODEL 10
REMARK VINA RESULT:      -9.0     17.951     19.750
REMARK  7 active torsions:
REMARK  status: ('A' for Active; 'I' for Inactive)
REMARK    1  A    between atoms: C_6  and  N_7 
REMARK    2  A    between atoms: C_10  and  C_11 
REMARK       I    between atoms: C_11  and  N_12 
REMARK    3  A    between atoms: N_12  and  C_13 
REMARK    4  A    between atoms: C_16  and  C_17 
REMARK    5  A    between atoms: C_17  and  N_18 
REMARK    6  A    between atoms: C_21  and  C_22 
REMARK       I    between atoms: C_22  and  N_23 
REMARK    7  A    between atoms: C_31  and  C_32 
ROOT
HETATM    1  C   UNL     1      38.740  49.543  65.996  1.00  0.00     0.278 C 
HETATM    2  N   UNL     1      37.862  49.977  66.972  1.00  0.00    -0.322 N 
HETATM    3  O   UNL     1      39.413  50.254  65.261  1.00  0.00    -0.265 OA
HETATM    4  H   UNL     1      37.354  49.242  67.459  1.00  0.00     0.169 HD
ENDROOT
BRANCH   2   5
HETATM    5  C   UNL     1      37.589  51.308  67.343  1.00  0.00     0.035 A 
HETATM    6  C   UNL     1      37.787  52.403  66.500  1.00  0.00     0.030 A 
HETATM    7  C   UNL     1      37.498  53.701  66.932  1.00  0.00     0.011 A 
HETATM    8  C   UNL     1      36.982  53.931  68.214  1.00  0.00    -0.032 A 
HETATM    9  C   UNL     1      36.797  52.835  69.067  1.00  0.00     0.011 A 
HETATM   10  C   UNL     1      37.105  51.538  68.635  1.00  0.00     0.030 A 
BRANCH   8  11
HETATM   11  C   UNL     1      36.640  55.327  68.659  1.00  0.00     0.273 C 
BRANCH  11  12
HETATM   12  N   UNL     1      35.685  56.033  67.712  1.00  0.00    -0.066 N 
HETATM   13  H   UNL     1      35.734  55.515  66.827  1.00  0.00     0.280 HD
HETATM   14  C   UNL     1      34.247  55.966  68.195  1.00  0.00     0.249 C 
HETATM   15  C   UNL     1      33.311  56.578  67.148  1.00  0.00     0.103 C 
HETATM   16  C   UNL     1      33.742  58.002  66.787  1.00  0.00     0.017 C 
HETATM   17  C   UNL     1      35.213  58.058  66.382  1.00  0.00     0.029 C 
HETATM   18  C   UNL     1      36.121  57.450  67.441  1.00  0.00     0.235 C 
BRANCH  15  19
HETATM   19  C   UNL     1      31.904  56.555  67.710  1.00  0.00     0.221 C 
HETATM   20  N   UNL     1      30.895  56.577  66.799  1.00  0.00    -0.370 N 
HETATM   21  H   UNL     1      29.943  56.531  67.149  1.00  0.00     0.159 HD
HETATM   22  H   UNL     1      31.019  56.507  65.798  1.00  0.00     0.159 HD
HETATM   23  O   UNL     1      31.675  56.513  68.913  1.00  0.00    -0.273 OA
ENDBRANCH  15  19
ENDBRANCH  11  12
ENDBRANCH   8  11
ENDBRANCH   2   5
BRANCH   1  24
HETATM   24  C   UNL     1      38.815  48.089  65.908  1.00  0.00     0.175 C 
HETATM   25  N   UNL     1      39.772  47.352  66.544  1.00  0.00    -0.152 NA
HETATM   26  N   UNL     1      39.578  46.081  66.232  1.00  0.00     0.011 NA
HETATM   27  N   UNL     1      38.577  46.002  65.309  1.00  0.00    -0.231 N 
HETATM   28  C   UNL     1      37.965  47.234  65.231  1.00  0.00     0.174 C 
BRANCH  27  29
HETATM   29  C   UNL     1      38.380  44.790  64.591  1.00  0.00     0.058 A 
HETATM   30  C   UNL     1      37.603  43.775  65.173  1.00  0.00     0.073 A 
HETATM   31  C   UNL     1      37.410  42.574  64.498  1.00  0.00     0.118 A 
HETATM   32  C   UNL     1      37.988  42.347  63.256  1.00  0.00     0.042 A 
HETATM   33  F   UNL     1      36.654  41.620  65.056  1.00  0.00    -0.206 F 
HETATM   34  C   UNL     1      38.783  43.335  62.683  1.00  0.00     0.005 A 
HETATM   35  C   UNL     1      38.986  44.551  63.348  1.00  0.00     0.031 A 
ENDBRANCH  27  29
BRANCH  28  36
HETATM   36  C   UNL     1      36.669  47.502  64.617  1.00  0.00     0.436 C 
HETATM   37  F   UNL     1      36.745  48.428  63.629  1.00  0.00    -0.165 F 
HETATM   38  F   UNL     1      36.143  46.398  64.031  1.00  0.00    -0.165 F 
HETATM   39  F   UNL     1      35.766  47.953  65.519  1.00  0.00    -0.165 F 
ENDBRANCH  28  36
ENDBRANCH   1  24
TORSDOF 7
ENDMDL
