MODEL 1
REMARK VINA RESULT:      -9.4      0.000      0.000
REMARK  4 active torsions:
REMARK  status: ('A' for Active; 'I' for Inactive)
REMARK    1  A    between atoms: C_2  and  C_3 
REMARK       I    between atoms: C_3  and  N_4 
REMARK    2  A    between atoms: N_4  and  N_5 
REMARK    3  A    between atoms: N_5  and  C_6 
REMARK    4  A    between atoms: N_7  and  C_8 
ROOT
HETATM    1  C   UNL     1      26.106  41.832  50.890  1.00  0.00     0.729 C 
HETATM    2  N   UNL     1      25.414  42.390  49.816  1.00  0.00    -0.108 N 
HETATM    3  C   UNL     1      25.488  43.761  49.605  1.00  0.00     0.276 C 
HETATM    4  O   UNL     1      25.292  44.316  48.524  1.00  0.00    -0.266 OA
HETATM    5  C   UNL     1      25.832  44.593  50.797  1.00  0.00     0.050 C 
HETATM    6  C   UNL     1      26.420  43.928  51.809  1.00  0.00     0.099 C 
HETATM    7  C   UNL     1      26.975  44.702  52.951  1.00  0.00     0.000 A 
HETATM    8  C   UNL     1      26.589  46.034  53.155  1.00  0.00    -0.044 A 
HETATM    9  C   UNL     1      27.110  46.768  54.233  1.00  0.00     0.008 A 
HETATM   10  C   UNL     1      28.034  46.186  55.098  1.00  0.00     0.001 A 
HETATM   11  C   UNL     1      28.433  44.869  54.900  1.00  0.00     0.001 A 
HETATM   12  C   UNL     1      27.905  44.133  53.837  1.00  0.00     0.014 A 
HETATM   13  C   UNL     1      25.549  46.641  52.257  1.00  0.00     0.054 C 
HETATM   14  C   UNL     1      25.592  46.117  50.783  1.00  0.00    -0.002 C 
HETATM   15  C   UNL     1      26.751  46.790  49.993  1.00  0.00     0.015 C 
HETATM   16  C   UNL     1      26.572  48.293  49.769  1.00  0.00     0.001 C 
HETATM   17  C   UNL     1      25.214  48.627  49.160  1.00  0.00     0.000 C 
HETATM   18  C   UNL     1      24.064  48.039  49.969  1.00  0.00     0.001 C 
HETATM   19  C   UNL     1      24.225  46.526  50.146  1.00  0.00     0.015 C 
HETATM   20  N   UNL     1      26.610  42.574  51.839  1.00  0.00    -0.061 NA
ENDROOT
BRANCH   1  21
HETATM   21  N   UNL     1      26.352  40.467  50.948  1.00  0.00    -0.127 N 
HETATM   22  H   UNL     1      25.949  39.918  51.705  1.00  0.00     0.206 HD
BRANCH  21  23
HETATM   23  N   UNL     1      27.666  40.071  50.620  1.00  0.00    -0.256 N 
HETATM   24  C   UNL     1      27.785  38.838  50.009  1.00  0.00     0.236 C 
HETATM   25  O   UNL     1      26.813  38.226  49.565  1.00  0.00    -0.272 OA
HETATM   26  H   UNL     1      28.356  40.389  51.299  1.00  0.00     0.190 HD
BRANCH  24  27
HETATM   27  C   UNL     1      29.204  38.342  49.823  1.00  0.00     0.100 C 
HETATM   28  C   UNL     1      29.817  37.729  51.069  1.00  0.00     0.014 C 
ENDBRANCH  24  27
ENDBRANCH  21  23
ENDBRANCH   1  21
BRANCH   2  29
HETATM   29  C   UNL     1      24.763  41.561  48.843  1.00  0.00     0.060 A 
HETATM   30  C   UNL     1      25.485  40.813  47.904  1.00  0.00     0.030 A 
HETATM   31  C   UNL     1      24.824  40.010  46.970  1.00  0.00     0.002 A 
HETATM   32  C   UNL     1      23.433  39.952  46.955  1.00  0.00     0.000 A 
HETATM   33  C   UNL     1      22.699  40.704  47.868  1.00  0.00     0.002 A 
HETATM   34  C   UNL     1      23.360  41.510  48.799  1.00  0.00     0.030 A 
ENDBRANCH   2  29
TORSDOF 4
ENDMDL
MODEL 2
REMARK VINA RESULT:      -9.3      1.766      2.367
REMARK  4 active torsions:
REMARK  status: ('A' for Active; 'I' for Inactive)
REMARK    1  A    between atoms: C_2  and  C_3 
REMARK       I    between atoms: C_3  and  N_4 
REMARK    2  A    between atoms: N_4  and  N_5 
REMARK    3  A    between atoms: N_5  and  C_6 
REMARK    4  A    between atoms: N_7  and  C_8 
ROOT
HETATM    1  C   UNL     1      28.286  40.990  50.344  1.00  0.00     0.729 C 
HETATM    2  N   UNL     1      27.339  41.450  49.430  1.00  0.00    -0.108 N 
HETATM    3  C   UNL     1      26.901  42.766  49.517  1.00  0.00     0.276 C 
HETATM    4  O   UNL     1      26.417  43.407  48.585  1.00  0.00    -0.266 OA
HETATM    5  C   UNL     1      27.045  43.421  50.851  1.00  0.00     0.050 C 
HETATM    6  C   UNL     1      27.926  42.837  51.684  1.00  0.00     0.099 C 
HETATM    7  C   UNL     1      28.281  43.525  52.954  1.00  0.00     0.000 A 
HETATM    8  C   UNL     1      27.472  44.558  53.447  1.00  0.00    -0.044 A 
HETATM    9  C   UNL     1      27.803  45.209  54.645  1.00  0.00     0.008 A 
HETATM   10  C   UNL     1      28.954  44.853  55.345  1.00  0.00     0.001 A 
HETATM   11  C   UNL     1      29.771  43.837  54.861  1.00  0.00     0.001 A 
HETATM   12  C   UNL     1      29.435  43.178  53.676  1.00  0.00     0.014 A 
HETATM   13  C   UNL     1      26.201  44.901  52.723  1.00  0.00     0.054 C 
HETATM   14  C   UNL     1      26.281  44.723  51.171  1.00  0.00    -0.002 C 
HETATM   15  C   UNL     1      27.043  45.912  50.518  1.00  0.00     0.015 C 
HETATM   16  C   UNL     1      26.323  47.258  50.627  1.00  0.00     0.001 C 
HETATM   17  C   UNL     1      24.882  47.181  50.133  1.00  0.00     0.000 C 
HETATM   18  C   UNL     1      24.100  46.069  50.822  1.00  0.00     0.001 C 
HETATM   19  C   UNL     1      24.803  44.717  50.667  1.00  0.00     0.015 C 
HETATM   20  N   UNL     1      28.585  41.668  51.419  1.00  0.00    -0.061 NA
ENDROOT
BRANCH   1  21
HETATM   21  N   UNL     1      29.003  39.826  50.102  1.00  0.00    -0.127 N 
HETATM   22  H   UNL     1      28.823  39.295  49.252  1.00  0.00     0.206 HD
BRANCH  21  23
HETATM   23  N   UNL     1      29.225  39.004  51.228  1.00  0.00    -0.256 N 
HETATM   24  C   UNL     1      30.021  37.897  51.013  1.00  0.00     0.236 C 
HETATM   25  O   UNL     1      30.685  37.751  49.986  1.00  0.00    -0.272 OA
HETATM   26  H   UNL     1      28.418  38.958  51.849  1.00  0.00     0.190 HD
BRANCH  24  27
HETATM   27  C   UNL     1      30.108  36.927  52.173  1.00  0.00     0.100 C 
HETATM   28  C   UNL     1      29.789  35.489  51.808  1.00  0.00     0.014 C 
ENDBRANCH  24  27
ENDBRANCH  21  23
ENDBRANCH   1  21
BRANCH   2  29
HETATM   29  C   UNL     1      26.930  40.644  48.316  1.00  0.00     0.060 A 
HETATM   30  C   UNL     1      25.785  39.839  48.364  1.00  0.00     0.030 A 
HETATM   31  C   UNL     1      25.407  39.067  47.261  1.00  0.00     0.002 A 
HETATM   32  C   UNL     1      26.175  39.082  46.099  1.00  0.00     0.000 A 
HETATM   33  C   UNL     1      27.327  39.860  46.042  1.00  0.00     0.002 A 
HETATM   34  C   UNL     1      27.707  40.629  47.145  1.00  0.00     0.030 A 
ENDBRANCH   2  29
TORSDOF 4
ENDMDL
MODEL 3
REMARK VINA RESULT:      -8.7      3.558      6.936
REMARK  4 active torsions:
REMARK  status: ('A' for Active; 'I' for Inactive)
REMARK    1  A    between atoms: C_2  and  C_3 
REMARK       I    between atoms: C_3  and  N_4 
REMARK    2  A    between atoms: N_4  and  N_5 
REMARK    3  A    between atoms: N_5  and  C_6 
REMARK    4  A    between atoms: N_7  and  C_8 
ROOT
HETATM    1  C   UNL     1      24.860  46.631  49.886  1.00  0.00     0.729 C 
HETATM    2  N   UNL     1      24.387  45.378  49.501  1.00  0.00    -0.108 N 
HETATM    3  C   UNL     1      23.316  45.302  48.619  1.00  0.00     0.276 C 
HETATM    4  O   UNL     1      23.068  44.336  47.898  1.00  0.00    -0.266 OA
HETATM    5  C   UNL     1      22.421  46.496  48.566  1.00  0.00     0.050 C 
HETATM    6  C   UNL     1      22.956  47.635  49.045  1.00  0.00     0.099 C 
HETATM    7  C   UNL     1      22.218  48.912  48.856  1.00  0.00     0.000 A 
HETATM    8  C   UNL     1      20.857  48.897  48.519  1.00  0.00    -0.044 A 
HETATM    9  C   UNL     1      20.156  50.100  48.340  1.00  0.00     0.008 A 
HETATM   10  C   UNL     1      20.812  51.322  48.473  1.00  0.00     0.001 A 
HETATM   11  C   UNL     1      22.164  51.350  48.797  1.00  0.00     0.001 A 
HETATM   12  C   UNL     1      22.860  50.154  48.989  1.00  0.00     0.014 A 
HETATM   13  C   UNL     1      20.138  47.581  48.434  1.00  0.00     0.054 C 
HETATM   14  C   UNL     1      21.024  46.400  47.917  1.00  0.00    -0.002 C 
HETATM   15  C   UNL     1      21.194  46.473  46.373  1.00  0.00     0.015 C 
HETATM   16  C   UNL     1      19.903  46.243  45.585  1.00  0.00     0.001 C 
HETATM   17  C   UNL     1      19.192  44.961  46.007  1.00  0.00     0.000 C 
HETATM   18  C   UNL     1      18.948  44.912  47.511  1.00  0.00     0.001 C 
HETATM   19  C   UNL     1      20.253  45.094  48.292  1.00  0.00     0.015 C 
HETATM   20  N   UNL     1      24.181  47.721  49.647  1.00  0.00    -0.061 NA
ENDROOT
BRANCH   1  21
HETATM   21  N   UNL     1      26.111  46.773  50.471  1.00  0.00    -0.127 N 
HETATM   22  H   UNL     1      26.770  45.998  50.437  1.00  0.00     0.206 HD
BRANCH  21  23
HETATM   23  N   UNL     1      26.131  47.459  51.704  1.00  0.00    -0.256 N 
HETATM   24  C   UNL     1      26.323  46.673  52.823  1.00  0.00     0.236 C 
HETATM   25  O   UNL     1      26.686  45.498  52.749  1.00  0.00    -0.272 OA
HETATM   26  H   UNL     1      25.494  48.255  51.724  1.00  0.00     0.190 HD
BRANCH  24  27
HETATM   27  C   UNL     1      26.165  47.387  54.150  1.00  0.00     0.100 C 
HETATM   28  C   UNL     1      27.463  47.579  54.912  1.00  0.00     0.014 C 
ENDBRANCH  24  27
ENDBRANCH  21  23
ENDBRANCH   1  21
BRANCH   2  29
HETATM   29  C   UNL     1      25.080  44.178  49.872  1.00  0.00     0.060 A 
HETATM   30  C   UNL     1      26.264  43.779  49.237  1.00  0.00     0.030 A 
HETATM   31  C   UNL     1      26.922  42.607  49.623  1.00  0.00     0.002 A 
HETATM   32  C   UNL     1      26.399  41.813  50.641  1.00  0.00     0.000 A 
HETATM   33  C   UNL     1      25.214  42.184  51.269  1.00  0.00     0.002 A 
HETATM   34  C   UNL     1      24.555  43.353  50.881  1.00  0.00     0.030 A 
ENDBRANCH   2  29
TORSDOF 4
ENDMDL
MODEL 4
REMARK VINA RESULT:      -8.6      4.355      7.816
REMARK  4 active torsions:
REMARK  status: ('A' for Active; 'I' for Inactive)
REMARK    1  A    between atoms: C_2  and  C_3 
REMARK       I    between atoms: C_3  and  N_4 
REMARK    2  A    between atoms: N_4  and  N_5 
REMARK    3  A    between atoms: N_5  and  C_6 
REMARK    4  A    between atoms: N_7  and  C_8 
ROOT
HETATM    1  C   UNL     1      23.597  46.950  49.568  1.00  0.00     0.729 C 
HETATM    2  N   UNL     1      23.209  45.694  49.106  1.00  0.00    -0.108 N 
HETATM    3  C   UNL     1      22.192  45.606  48.163  1.00  0.00     0.276 C 
HETATM    4  O   UNL     1      22.032  44.662  47.389  1.00  0.00    -0.266 OA
HETATM    5  C   UNL     1      21.243  46.758  48.110  1.00  0.00     0.050 C 
HETATM    6  C   UNL     1      21.693  47.898  48.665  1.00  0.00     0.099 C 
HETATM    7  C   UNL     1      20.904  49.145  48.489  1.00  0.00     0.000 A 
HETATM    8  C   UNL     1      19.566  49.082  48.076  1.00  0.00    -0.044 A 
HETATM    9  C   UNL     1      18.816  50.257  47.908  1.00  0.00     0.008 A 
HETATM   10  C   UNL     1      19.402  51.501  48.128  1.00  0.00     0.001 A 
HETATM   11  C   UNL     1      20.732  51.579  48.528  1.00  0.00     0.001 A 
HETATM   12  C   UNL     1      21.475  50.410  48.708  1.00  0.00     0.014 A 
HETATM   13  C   UNL     1      18.918  47.738  47.896  1.00  0.00     0.054 C 
HETATM   14  C   UNL     1      19.889  46.624  47.380  1.00  0.00    -0.002 C 
HETATM   15  C   UNL     1      20.138  46.774  45.852  1.00  0.00     0.015 C 
HETATM   16  C   UNL     1      18.903  46.517  44.985  1.00  0.00     0.001 C 
HETATM   17  C   UNL     1      18.236  45.186  45.313  1.00  0.00     0.000 C 
HETATM   18  C   UNL     1      17.915  45.058  46.798  1.00  0.00     0.001 C 
HETATM   19  C   UNL     1      19.165  45.267  47.657  1.00  0.00     0.015 C 
HETATM   20  N   UNL     1      22.879  48.016  49.337  1.00  0.00    -0.061 NA
ENDROOT
BRANCH   1  21
HETATM   21  N   UNL     1      24.807  47.125  50.227  1.00  0.00    -0.127 N 
HETATM   22  H   UNL     1      24.849  47.001  51.236  1.00  0.00     0.206 HD
BRANCH  21  23
HETATM   23  N   UNL     1      25.597  48.201  49.770  1.00  0.00    -0.256 N 
HETATM   24  C   UNL     1      26.895  47.884  49.420  1.00  0.00     0.236 C 
HETATM   25  O   UNL     1      27.277  46.721  49.286  1.00  0.00    -0.272 OA
HETATM   26  H   UNL     1      25.380  49.079  50.240  1.00  0.00     0.190 HD
BRANCH  24  27
HETATM   27  C   UNL     1      27.787  49.067  49.104  1.00  0.00     0.100 C 
HETATM   28  C   UNL     1      27.066  50.236  48.461  1.00  0.00     0.014 C 
ENDBRANCH  24  27
ENDBRANCH  21  23
ENDBRANCH   1  21
BRANCH   2  29
HETATM   29  C   UNL     1      23.940  44.513  49.464  1.00  0.00     0.060 A 
HETATM   30  C   UNL     1      25.067  44.092  48.746  1.00  0.00     0.030 A 
HETATM   31  C   UNL     1      25.764  42.939  49.121  1.00  0.00     0.002 A 
HETATM   32  C   UNL     1      25.338  42.187  50.213  1.00  0.00     0.000 A 
HETATM   33  C   UNL     1      24.209  42.580  50.925  1.00  0.00     0.002 A 
HETATM   34  C   UNL     1      23.510  43.729  50.548  1.00  0.00     0.030 A 
ENDBRANCH   2  29
TORSDOF 4
ENDMDL
MODEL 5
REMARK VINA RESULT:      -8.3     11.517     13.851
REMARK  4 active torsions:
REMARK  status: ('A' for Active; 'I' for Inactive)
REMARK    1  A    between atoms: C_2  and  C_3 
REMARK       I    between atoms: C_3  and  N_4 
REMARK    2  A    between atoms: N_4  and  N_5 
REMARK    3  A    between atoms: N_5  and  C_6 
REMARK    4  A    between atoms: N_7  and  C_8 
ROOT
HETATM    1  C   UNL     1      26.553  49.916  38.823  1.00  0.00     0.729 C 
HETATM    2  N   UNL     1      26.954  48.605  39.076  1.00  0.00    -0.108 N 
HETATM    3  C   UNL     1      28.047  48.382  39.905  1.00  0.00     0.276 C 
HETATM    4  O   UNL     1      28.254  47.342  40.528  1.00  0.00    -0.266 OA
HETATM    5  C   UNL     1      29.021  49.507  40.026  1.00  0.00     0.050 C 
HETATM    6  C   UNL     1      28.548  50.716  39.670  1.00  0.00     0.099 C 
HETATM    7  C   UNL     1      29.376  51.921  39.941  1.00  0.00     0.000 A 
HETATM    8  C   UNL     1      30.743  51.790  40.220  1.00  0.00    -0.044 A 
HETATM    9  C   UNL     1      31.529  52.925  40.475  1.00  0.00     0.008 A 
HETATM   10  C   UNL     1      30.952  54.193  40.477  1.00  0.00     0.001 A 
HETATM   11  C   UNL     1      29.595  54.336  40.211  1.00  0.00     0.001 A 
HETATM   12  C   UNL     1      28.814  53.209  39.943  1.00  0.00     0.014 A 
HETATM   13  C   UNL     1      31.375  50.428  40.161  1.00  0.00     0.054 C 
HETATM   14  C   UNL     1      30.430  49.264  40.607  1.00  0.00    -0.002 C 
HETATM   15  C   UNL     1      30.319  49.209  42.158  1.00  0.00     0.015 C 
HETATM   16  C   UNL     1      31.618  48.826  42.869  1.00  0.00     0.001 C 
HETATM   17  C   UNL     1      32.227  47.546  42.308  1.00  0.00     0.000 C 
HETATM   18  C   UNL     1      32.414  47.616  40.797  1.00  0.00     0.001 C 
HETATM   19  C   UNL     1      31.098  47.951  40.088  1.00  0.00     0.015 C 
HETATM   20  N   UNL     1      27.311  50.935  39.128  1.00  0.00    -0.061 NA
ENDROOT
BRANCH   1  21
HETATM   21  N   UNL     1      25.295  50.189  38.304  1.00  0.00    -0.127 N 
HETATM   22  H   UNL     1      25.191  50.914  37.596  1.00  0.00     0.206 HD
BRANCH  21  23
HETATM   23  N   UNL     1      24.236  50.177  39.238  1.00  0.00    -0.256 N 
HETATM   24  C   UNL     1      22.965  50.125  38.701  1.00  0.00     0.236 C 
HETATM   25  O   UNL     1      22.761  49.870  37.513  1.00  0.00    -0.272 OA
HETATM   26  H   UNL     1      24.434  50.737  40.066  1.00  0.00     0.190 HD
BRANCH  24  27
HETATM   27  C   UNL     1      21.835  50.294  39.695  1.00  0.00     0.100 C 
HETATM   28  C   UNL     1      21.721  51.690  40.277  1.00  0.00     0.014 C 
ENDBRANCH  24  27
ENDBRANCH  21  23
ENDBRANCH   1  21
BRANCH   2  29
HETATM   29  C   UNL     1      26.169  47.491  38.630  1.00  0.00     0.060 A 
HETATM   30  C   UNL     1      25.180  46.910  39.435  1.00  0.00     0.030 A 
HETATM   31  C   UNL     1      24.426  45.827  38.973  1.00  0.00     0.002 A 
HETATM   32  C   UNL     1      24.659  45.304  37.703  1.00  0.00     0.000 A 
HETATM   33  C   UNL     1      25.651  45.855  36.898  1.00  0.00     0.002 A 
HETATM   34  C   UNL     1      26.406  46.935  37.362  1.00  0.00     0.030 A 
ENDBRANCH   2  29
TORSDOF 4
ENDMDL
MODEL 6
REMARK VINA RESULT:      -8.2      4.111      8.573
REMARK  4 active torsions:
REMARK  status: ('A' for Active; 'I' for Inactive)
REMARK    1  A    between atoms: C_2  and  C_3 
REMARK       I    between atoms: C_3  and  N_4 
REMARK    2  A    between atoms: N_4  and  N_5 
REMARK    3  A    between atoms: N_5  and  C_6 
REMARK    4  A    between atoms: N_7  and  C_8 
ROOT
HETATM    1  C   UNL     1      21.820  46.423  47.322  1.00  0.00     0.729 C 
HETATM    2  N   UNL     1      22.311  47.206  48.365  1.00  0.00    -0.108 N 
HETATM    3  C   UNL     1      23.422  46.765  49.076  1.00  0.00     0.276 C 
HETATM    4  O   UNL     1      24.185  47.494  49.707  1.00  0.00    -0.266 OA
HETATM    5  C   UNL     1      23.678  45.294  49.048  1.00  0.00     0.050 C 
HETATM    6  C   UNL     1      23.081  44.626  48.044  1.00  0.00     0.099 C 
HETATM    7  C   UNL     1      23.432  43.199  47.819  1.00  0.00     0.000 A 
HETATM    8  C   UNL     1      24.081  42.466  48.822  1.00  0.00    -0.044 A 
HETATM    9  C   UNL     1      24.414  41.118  48.615  1.00  0.00     0.008 A 
HETATM   10  C   UNL     1      24.125  40.501  47.399  1.00  0.00     0.001 A 
HETATM   11  C   UNL     1      23.491  41.221  46.393  1.00  0.00     0.001 A 
HETATM   12  C   UNL     1      23.146  42.558  46.602  1.00  0.00     0.014 A 
HETATM   13  C   UNL     1      24.340  43.114  50.153  1.00  0.00     0.054 C 
HETATM   14  C   UNL     1      24.639  44.648  50.069  1.00  0.00    -0.002 C 
HETATM   15  C   UNL     1      26.099  44.900  49.597  1.00  0.00     0.015 C 
HETATM   16  C   UNL     1      27.170  44.441  50.589  1.00  0.00     0.001 C 
HETATM   17  C   UNL     1      26.933  44.997  51.989  1.00  0.00     0.000 C 
HETATM   18  C   UNL     1      25.529  44.689  52.497  1.00  0.00     0.001 C 
HETATM   19  C   UNL     1      24.462  45.195  51.522  1.00  0.00     0.015 C 
HETATM   20  N   UNL     1      22.207  45.187  47.153  1.00  0.00    -0.061 NA
ENDROOT
BRANCH   1  21
HETATM   21  N   UNL     1      20.956  46.957  46.375  1.00  0.00    -0.127 N 
HETATM   22  H   UNL     1      21.062  47.929  46.093  1.00  0.00     0.206 HD
BRANCH  21  23
HETATM   23  N   UNL     1      19.606  46.562  46.494  1.00  0.00    -0.256 N 
HETATM   24  C   UNL     1      18.691  47.589  46.611  1.00  0.00     0.236 C 
HETATM   25  O   UNL     1      18.987  48.765  46.394  1.00  0.00    -0.272 OA
HETATM   26  H   UNL     1      19.493  45.695  47.017  1.00  0.00     0.190 HD
BRANCH  24  27
HETATM   27  C   UNL     1      17.271  47.159  46.917  1.00  0.00     0.100 C 
HETATM   28  C   UNL     1      16.964  47.034  48.398  1.00  0.00     0.014 C 
ENDBRANCH  24  27
ENDBRANCH  21  23
ENDBRANCH   1  21
BRANCH   2  29
HETATM   29  C   UNL     1      21.793  48.520  48.614  1.00  0.00     0.060 A 
HETATM   30  C   UNL     1      22.386  49.666  48.068  1.00  0.00     0.030 A 
HETATM   31  C   UNL     1      21.857  50.935  48.322  1.00  0.00     0.002 A 
HETATM   32  C   UNL     1      20.734  51.076  49.134  1.00  0.00     0.000 A 
HETATM   33  C   UNL     1      20.144  49.950  49.701  1.00  0.00     0.002 A 
HETATM   34  C   UNL     1      20.676  48.682  49.450  1.00  0.00     0.030 A 
ENDBRANCH   2  29
TORSDOF 4
ENDMDL
MODEL 7
REMARK VINA RESULT:      -8.1      5.616      9.754
REMARK  4 active torsions:
REMARK  status: ('A' for Active; 'I' for Inactive)
REMARK    1  A    between atoms: C_2  and  C_3 
REMARK       I    between atoms: C_3  and  N_4 
REMARK    2  A    between atoms: N_4  and  N_5 
REMARK    3  A    between atoms: N_5  and  C_6 
REMARK    4  A    between atoms: N_7  and  C_8 
ROOT
HETATM    1  C   UNL     1      21.488  47.770  48.490  1.00  0.00     0.729 C 
HETATM    2  N   UNL     1      20.285  48.316  48.045  1.00  0.00    -0.108 N 
HETATM    3  C   UNL     1      19.442  47.540  47.257  1.00  0.00     0.276 C 
HETATM    4  O   UNL     1      18.230  47.715  47.144  1.00  0.00    -0.266 OA
HETATM    5  C   UNL     1      20.088  46.421  46.508  1.00  0.00     0.050 C 
HETATM    6  C   UNL     1      21.289  46.035  46.977  1.00  0.00     0.099 C 
HETATM    7  C   UNL     1      21.918  44.807  46.422  1.00  0.00     0.000 A 
HETATM    8  C   UNL     1      21.463  44.267  45.211  1.00  0.00    -0.044 A 
HETATM    9  C   UNL     1      22.054  43.108  44.683  1.00  0.00     0.008 A 
HETATM   10  C   UNL     1      23.083  42.468  45.371  1.00  0.00     0.001 A 
HETATM   11  C   UNL     1      23.536  42.988  46.578  1.00  0.00     0.001 A 
HETATM   12  C   UNL     1      22.959  44.149  47.098  1.00  0.00     0.014 A 
HETATM   13  C   UNL     1      20.393  44.990  44.443  1.00  0.00     0.054 C 
HETATM   14  C   UNL     1      19.349  45.730  45.342  1.00  0.00    -0.002 C 
HETATM   15  C   UNL     1      18.323  44.725  45.938  1.00  0.00     0.015 C 
HETATM   16  C   UNL     1      17.410  44.068  44.901  1.00  0.00     0.001 C 
HETATM   17  C   UNL     1      16.727  45.094  44.003  1.00  0.00     0.000 C 
HETATM   18  C   UNL     1      17.730  46.039  43.350  1.00  0.00     0.001 C 
HETATM   19  C   UNL     1      18.607  46.729  44.398  1.00  0.00     0.015 C 
HETATM   20  N   UNL     1      21.962  46.660  47.991  1.00  0.00    -0.061 NA
ENDROOT
BRANCH   1  21
HETATM   21  N   UNL     1      22.190  48.351  49.537  1.00  0.00    -0.127 N 
HETATM   22  H   UNL     1      22.195  49.364  49.636  1.00  0.00     0.206 HD
BRANCH  21  23
HETATM   23  N   UNL     1      23.439  47.763  49.832  1.00  0.00    -0.256 N 
HETATM   24  C   UNL     1      24.548  48.513  49.493  1.00  0.00     0.236 C 
HETATM   25  O   UNL     1      24.469  49.701  49.177  1.00  0.00    -0.272 OA
HETATM   26  H   UNL     1      23.435  46.750  49.718  1.00  0.00     0.190 HD
BRANCH  24  27
HETATM   27  C   UNL     1      25.879  47.805  49.644  1.00  0.00     0.100 C 
HETATM   28  C   UNL     1      27.079  48.647  49.253  1.00  0.00     0.014 C 
ENDBRANCH  24  27
ENDBRANCH  21  23
ENDBRANCH   1  21
BRANCH   2  29
HETATM   29  C   UNL     1      19.832  49.594  48.513  1.00  0.00     0.060 A 
HETATM   30  C   UNL     1      20.239  50.791  47.909  1.00  0.00     0.030 A 
HETATM   31  C   UNL     1      19.777  52.023  48.382  1.00  0.00     0.002 A 
HETATM   32  C   UNL     1      18.912  52.075  49.473  1.00  0.00     0.000 A 
HETATM   33  C   UNL     1      18.515  50.897  50.097  1.00  0.00     0.002 A 
HETATM   34  C   UNL     1      18.978  49.666  49.626  1.00  0.00     0.030 A 
ENDBRANCH   2  29
TORSDOF 4
ENDMDL
MODEL 8
REMARK VINA RESULT:      -8.1      2.295      8.217
REMARK  4 active torsions:
REMARK  status: ('A' for Active; 'I' for Inactive)
REMARK    1  A    between atoms: C_2  and  C_3 
REMARK       I    between atoms: C_3  and  N_4 
REMARK    2  A    between atoms: N_4  and  N_5 
REMARK    3  A    between atoms: N_5  and  C_6 
REMARK    4  A    between atoms: N_7  and  C_8 
ROOT
HETATM    1  C   UNL     1      24.197  44.895  49.966  1.00  0.00     0.729 C 
HETATM    2  N   UNL     1      25.249  44.469  50.776  1.00  0.00    -0.108 N 
HETATM    3  C   UNL     1      26.100  43.474  50.309  1.00  0.00     0.276 C 
HETATM    4  O   UNL     1      27.253  43.297  50.700  1.00  0.00    -0.266 OA
HETATM    5  C   UNL     1      25.543  42.572  49.257  1.00  0.00     0.050 C 
HETATM    6  C   UNL     1      24.472  43.053  48.598  1.00  0.00     0.099 C 
HETATM    7  C   UNL     1      23.970  42.318  47.408  1.00  0.00     0.000 A 
HETATM    8  C   UNL     1      24.357  40.989  47.184  1.00  0.00    -0.044 A 
HETATM    9  C   UNL     1      23.885  40.291  46.061  1.00  0.00     0.008 A 
HETATM   10  C   UNL     1      23.045  40.919  45.144  1.00  0.00     0.001 A 
HETATM   11  C   UNL     1      22.663  42.240  45.349  1.00  0.00     0.001 A 
HETATM   12  C   UNL     1      23.120  42.932  46.473  1.00  0.00     0.014 A 
HETATM   13  C   UNL     1      25.215  40.295  48.203  1.00  0.00     0.054 C 
HETATM   14  C   UNL     1      26.236  41.234  48.926  1.00  0.00    -0.002 C 
HETATM   15  C   UNL     1      27.459  41.527  48.011  1.00  0.00     0.015 C 
HETATM   16  C   UNL     1      28.334  40.306  47.718  1.00  0.00     0.001 C 
HETATM   17  C   UNL     1      28.752  39.579  48.991  1.00  0.00     0.000 C 
HETATM   18  C   UNL     1      27.554  39.215  49.862  1.00  0.00     0.001 C 
HETATM   19  C   UNL     1      26.711  40.450  50.192  1.00  0.00     0.015 C 
HETATM   20  N   UNL     1      23.836  44.225  48.905  1.00  0.00    -0.061 NA
ENDROOT
BRANCH   1  21
HETATM   21  N   UNL     1      23.543  46.093  50.218  1.00  0.00    -0.127 N 
HETATM   22  H   UNL     1      22.908  46.159  51.011  1.00  0.00     0.206 HD
BRANCH  21  23
HETATM   23  N   UNL     1      23.075  46.781  49.079  1.00  0.00    -0.256 N 
HETATM   24  C   UNL     1      23.244  48.152  49.096  1.00  0.00     0.236 C 
HETATM   25  O   UNL     1      23.958  48.718  49.925  1.00  0.00    -0.272 OA
HETATM   26  H   UNL     1      22.237  46.361  48.680  1.00  0.00     0.190 HD
BRANCH  24  27
HETATM   27  C   UNL     1      22.581  48.900  47.958  1.00  0.00     0.100 C 
HETATM   28  C   UNL     1      23.030  50.343  47.817  1.00  0.00     0.014 C 
ENDBRANCH  24  27
ENDBRANCH  21  23
ENDBRANCH   1  21
BRANCH   2  29
HETATM   29  C   UNL     1      25.562  45.145  52.002  1.00  0.00     0.060 A 
HETATM   30  C   UNL     1      26.132  46.424  52.020  1.00  0.00     0.030 A 
HETATM   31  C   UNL     1      26.421  47.061  53.230  1.00  0.00     0.002 A 
HETATM   32  C   UNL     1      26.153  46.423  54.439  1.00  0.00     0.000 A 
HETATM   33  C   UNL     1      25.605  45.144  54.440  1.00  0.00     0.002 A 
HETATM   34  C   UNL     1      25.320  44.506  53.230  1.00  0.00     0.030 A 
ENDBRANCH   2  29
TORSDOF 4
ENDMDL
MODEL 9
REMARK VINA RESULT:      -8.0      2.945      6.438
REMARK  4 active torsions:
REMARK  status: ('A' for Active; 'I' for Inactive)
REMARK    1  A    between atoms: C_2  and  C_3 
REMARK       I    between atoms: C_3  and  N_4 
REMARK    2  A    between atoms: N_4  and  N_5 
REMARK    3  A    between atoms: N_5  and  C_6 
REMARK    4  A    between atoms: N_7  and  C_8 
ROOT
HETATM    1  C   UNL     1      23.314  45.404  49.280  1.00  0.00     0.729 C 
HETATM    2  N   UNL     1      23.323  44.382  48.331  1.00  0.00    -0.108 N 
HETATM    3  C   UNL     1      24.043  43.223  48.595  1.00  0.00     0.276 C 
HETATM    4  O   UNL     1      23.821  42.128  48.080  1.00  0.00    -0.266 OA
HETATM    5  C   UNL     1      25.158  43.351  49.579  1.00  0.00     0.050 C 
HETATM    6  C   UNL     1      25.090  44.425  50.387  1.00  0.00     0.099 C 
HETATM    7  C   UNL     1      26.043  44.533  51.523  1.00  0.00     0.000 A 
HETATM    8  C   UNL     1      27.200  43.743  51.551  1.00  0.00    -0.044 A 
HETATM    9  C   UNL     1      28.103  43.842  52.622  1.00  0.00     0.008 A 
HETATM   10  C   UNL     1      27.845  44.710  53.681  1.00  0.00     0.001 A 
HETATM   11  C   UNL     1      26.695  45.491  53.670  1.00  0.00     0.001 A 
HETATM   12  C   UNL     1      25.802  45.404  52.599  1.00  0.00     0.014 A 
HETATM   13  C   UNL     1      27.507  42.852  50.381  1.00  0.00     0.054 C 
HETATM   14  C   UNL     1      26.240  42.255  49.683  1.00  0.00    -0.002 C 
HETATM   15  C   UNL     1      25.662  41.071  50.509  1.00  0.00     0.015 C 
HETATM   16  C   UNL     1      26.573  39.843  50.572  1.00  0.00     0.001 C 
HETATM   17  C   UNL     1      27.025  39.389  49.188  1.00  0.00     0.000 C 
HETATM   18  C   UNL     1      27.665  40.523  48.396  1.00  0.00     0.001 C 
HETATM   19  C   UNL     1      26.728  41.730  48.295  1.00  0.00     0.015 C 
HETATM   20  N   UNL     1      24.150  45.414  50.282  1.00  0.00    -0.061 NA
ENDROOT
BRANCH   1  21
HETATM   21  N   UNL     1      22.360  46.411  49.233  1.00  0.00    -0.127 N 
HETATM   22  H   UNL     1      21.649  46.394  48.505  1.00  0.00     0.206 HD
BRANCH  21  23
HETATM   23  N   UNL     1      22.835  47.711  49.509  1.00  0.00    -0.256 N 
HETATM   24  C   UNL     1      22.926  48.558  48.422  1.00  0.00     0.236 C 
HETATM   25  O   UNL     1      22.415  48.291  47.333  1.00  0.00    -0.272 OA
HETATM   26  H   UNL     1      23.537  47.727  50.247  1.00  0.00     0.190 HD
BRANCH  24  27
HETATM   27  C   UNL     1      23.603  49.886  48.691  1.00  0.00     0.100 C 
HETATM   28  C   UNL     1      24.933  50.061  47.982  1.00  0.00     0.014 C 
ENDBRANCH  24  27
ENDBRANCH  21  23
ENDBRANCH   1  21
BRANCH   2  29
HETATM   29  C   UNL     1      22.483  44.441  47.170  1.00  0.00     0.060 A 
HETATM   30  C   UNL     1      22.966  44.865  45.925  1.00  0.00     0.030 A 
HETATM   31  C   UNL     1      22.126  44.907  44.809  1.00  0.00     0.002 A 
HETATM   32  C   UNL     1      20.788  44.536  44.924  1.00  0.00     0.000 A 
HETATM   33  C   UNL     1      20.286  44.132  46.158  1.00  0.00     0.002 A 
HETATM   34  C   UNL     1      21.125  44.093  47.274  1.00  0.00     0.030 A 
ENDBRANCH   2  29
TORSDOF 4
ENDMDL
MODEL 10
REMARK VINA RESULT:      -8.0      2.136      5.197
REMARK  4 active torsions:
REMARK  status: ('A' for Active; 'I' for Inactive)
REMARK    1  A    between atoms: C_2  and  C_3 
REMARK       I    between atoms: C_3  and  N_4 
REMARK    2  A    between atoms: N_4  and  N_5 
REMARK    3  A    between atoms: N_5  and  C_6 
REMARK    4  A    between atoms: N_7  and  C_8 
ROOT
HETATM    1  C   UNL     1      25.810  41.664  48.490  1.00  0.00     0.729 C 
HETATM    2  N   UNL     1      26.621  41.186  49.518  1.00  0.00    -0.108 N 
HETATM    3  C   UNL     1      26.612  41.839  50.745  1.00  0.00     0.276 C 
HETATM    4  O   UNL     1      26.929  41.324  51.816  1.00  0.00    -0.266 OA
HETATM    5  C   UNL     1      26.179  43.268  50.725  1.00  0.00     0.050 C 
HETATM    6  C   UNL     1      25.474  43.640  49.640  1.00  0.00     0.099 C 
HETATM    7  C   UNL     1      24.836  44.983  49.622  1.00  0.00     0.000 A 
HETATM    8  C   UNL     1      25.241  45.970  50.531  1.00  0.00    -0.044 A 
HETATM    9  C   UNL     1      24.642  47.239  50.517  1.00  0.00     0.008 A 
HETATM   10  C   UNL     1      23.619  47.523  49.614  1.00  0.00     0.001 A 
HETATM   11  C   UNL     1      23.201  46.549  48.714  1.00  0.00     0.001 A 
HETATM   12  C   UNL     1      23.806  45.290  48.718  1.00  0.00     0.014 A 
HETATM   13  C   UNL     1      26.383  45.681  51.464  1.00  0.00     0.054 C 
HETATM   14  C   UNL     1      26.467  44.190  51.930  1.00  0.00    -0.002 C 
HETATM   15  C   UNL     1      25.413  43.897  53.035  1.00  0.00     0.015 C 
HETATM   16  C   UNL     1      25.661  44.635  54.353  1.00  0.00     0.001 C 
HETATM   17  C   UNL     1      27.081  44.430  54.869  1.00  0.00     0.000 C 
HETATM   18  C   UNL     1      28.128  44.789  53.820  1.00  0.00     0.001 C 
HETATM   19  C   UNL     1      27.902  44.010  52.521  1.00  0.00     0.015 C 
HETATM   20  N   UNL     1      25.240  42.837  48.558  1.00  0.00    -0.061 NA
ENDROOT
BRANCH   1  21
HETATM   21  N   UNL     1      25.517  40.874  47.387  1.00  0.00    -0.127 N 
HETATM   22  H   UNL     1      25.325  39.883  47.518  1.00  0.00     0.206 HD
BRANCH  21  23
HETATM   23  N   UNL     1      26.280  41.139  46.230  1.00  0.00    -0.256 N 
HETATM   24  C   UNL     1      25.599  41.057  45.031  1.00  0.00     0.236 C 
HETATM   25  O   UNL     1      24.370  40.992  44.974  1.00  0.00    -0.272 OA
HETATM   26  H   UNL     1      27.243  40.816  46.310  1.00  0.00     0.190 HD
BRANCH  24  27
HETATM   27  C   UNL     1      26.459  41.164  43.789  1.00  0.00     0.100 C 
HETATM   28  C   UNL     1      26.306  42.473  43.037  1.00  0.00     0.014 C 
ENDBRANCH  24  27
ENDBRANCH  21  23
ENDBRANCH   1  21
BRANCH   2  29
HETATM   29  C   UNL     1      27.337  39.951  49.383  1.00  0.00     0.060 A 
HETATM   30  C   UNL     1      26.737  38.713  49.649  1.00  0.00     0.030 A 
HETATM   31  C   UNL     1      27.458  37.524  49.505  1.00  0.00     0.002 A 
HETATM   32  C   UNL     1      28.791  37.557  49.102  1.00  0.00     0.000 A 
HETATM   33  C   UNL     1      29.409  38.779  48.853  1.00  0.00     0.002 A 
HETATM   34  C   UNL     1      28.689  39.967  49.001  1.00  0.00     0.030 A 
ENDBRANCH   2  29
TORSDOF 4
ENDMDL
