MODEL 1
REMARK VINA RESULT:     -10.3      0.000      0.000
REMARK  5 active torsions:
REMARK  status: ('A' for Active; 'I' for Inactive)
REMARK    1  A    between atoms: N_4  and  C_5 
REMARK    2  A    between atoms: C_16  and  N_17 
REMARK       I    between atoms: N_17  and  C_18 
REMARK    3  A    between atoms: C_18  and  C_19 
REMARK       I    between atoms: C_19  and  N_20 
REMARK    4  A    between atoms: N_20  and  C_21 
REMARK    5  A    between atoms: C_21  and  C_22 
ROOT
HETATM    1  C   UNL     1      23.733  41.710  48.488  1.00  0.00     0.072 C 
HETATM    2  C   UNL     1      23.807  43.034  49.155  1.00  0.00     0.055 C 
HETATM    3  N   UNL     1      23.574  44.153  48.463  1.00  0.00    -0.156 NA
HETATM    4  N   UNL     1      23.676  45.165  49.395  1.00  0.00    -0.045 N 
HETATM    5  C   UNL     1      24.183  44.677  50.598  1.00  0.00     0.152 C 
HETATM    6  C   UNL     1      24.138  43.304  50.498  1.00  0.00     0.079 C 
ENDROOT
BRANCH   5   7
HETATM    7  N   UNL     1      24.586  45.405  51.702  1.00  0.00    -0.303 N 
HETATM    8  C   UNL     1      25.774  46.112  51.712  1.00  0.00     0.315 C 
HETATM    9  O   UNL     1      26.606  46.212  50.821  1.00  0.00    -0.262 OA
HETATM   10  H   UNL     1      24.226  45.166  52.623  1.00  0.00     0.171 HD
BRANCH   8  11
HETATM   11  C   UNL     1      26.063  46.726  53.101  1.00  0.00     0.310 C 
HETATM   12  N   UNL     1      27.039  46.068  53.810  1.00  0.00    -0.349 N 
HETATM   13  H   UNL     1      27.420  45.224  53.393  1.00  0.00     0.163 HD
HETATM   14  O   UNL     1      25.422  47.694  53.483  1.00  0.00    -0.262 OA
BRANCH  12  15
HETATM   15  C   UNL     1      27.439  46.469  55.134  1.00  0.00     0.161 C 
BRANCH  15  16
HETATM   16  C   UNL     1      28.626  45.685  55.629  1.00  0.00    -0.040 A 
HETATM   17  C   UNL     1      29.248  46.015  56.842  1.00  0.00     0.010 A 
HETATM   18  C   UNL     1      30.335  45.271  57.308  1.00  0.00     0.024 A 
HETATM   19  C   UNL     1      30.813  44.198  56.559  1.00  0.00     0.034 A 
HETATM   20 CL   UNL     1      32.143  43.273  57.140  1.00  0.00    -0.084 Cl
HETATM   21  C   UNL     1      30.219  43.868  55.343  1.00  0.00     0.024 A 
HETATM   22  C   UNL     1      29.133  44.613  54.877  1.00  0.00     0.010 A 
ENDBRANCH  15  16
ENDBRANCH  12  15
ENDBRANCH   8  11
ENDBRANCH   5   7
BRANCH   4  23
HETATM   23  C   UNL     1      23.097  46.416  49.072  1.00  0.00     0.732 A 
HETATM   24  N   UNL     1      23.694  47.561  49.161  1.00  0.00    -0.067 NA
HETATM   25  C   UNL     1      22.942  48.671  48.839  1.00  0.00     0.065 A 
HETATM   26  C   UNL     1      21.627  48.641  48.556  1.00  0.00     0.036 A 
HETATM   27  C   UNL     1      23.709  49.974  48.811  1.00  0.00     0.060 C 
HETATM   28  C   UNL     1      20.787  49.849  48.261  1.00  0.00     0.046 C 
HETATM   29  C   UNL     1      20.955  47.321  48.534  1.00  0.00     0.268 A 
HETATM   30  C   UNL     1      21.506  51.165  48.567  1.00  0.00     0.005 C 
HETATM   31  C   UNL     1      22.959  51.111  48.110  1.00  0.00     0.006 C 
HETATM   32  O   UNL     1      19.749  47.201  48.361  1.00  0.00    -0.267 OA
HETATM   33  N   UNL     1      21.779  46.259  48.728  1.00  0.00    -0.152 N 
HETATM   34  H   UNL     1      21.380  45.327  48.761  1.00  0.00     0.188 HD
ENDBRANCH   4  23
TORSDOF 5
ENDMDL
MODEL 2
REMARK VINA RESULT:      -9.8      1.768      2.475
REMARK  5 active torsions:
REMARK  status: ('A' for Active; 'I' for Inactive)
REMARK    1  A    between atoms: N_4  and  C_5 
REMARK    2  A    between atoms: C_16  and  N_17 
REMARK       I    between atoms: N_17  and  C_18 
REMARK    3  A    between atoms: C_18  and  C_19 
REMARK       I    between atoms: C_19  and  N_20 
REMARK    4  A    between atoms: N_20  and  C_21 
REMARK    5  A    between atoms: C_21  and  C_22 
ROOT
HETATM    1  C   UNL     1      22.237  43.098  47.040  1.00  0.00     0.072 C 
HETATM    2  C   UNL     1      22.665  44.295  47.806  1.00  0.00     0.055 C 
HETATM    3  N   UNL     1      22.227  45.509  47.464  1.00  0.00    -0.156 NA
HETATM    4  N   UNL     1      22.775  46.355  48.406  1.00  0.00    -0.045 N 
HETATM    5  C   UNL     1      23.715  45.681  49.184  1.00  0.00     0.152 C 
HETATM    6  C   UNL     1      23.551  44.343  48.902  1.00  0.00     0.079 C 
ENDROOT
BRANCH   5   7
HETATM    7  N   UNL     1      24.591  46.222  50.107  1.00  0.00    -0.303 N 
HETATM    8  C   UNL     1      24.727  45.691  51.377  1.00  0.00     0.315 C 
HETATM    9  O   UNL     1      24.148  44.730  51.864  1.00  0.00    -0.262 OA
HETATM   10  H   UNL     1      24.880  47.193  50.019  1.00  0.00     0.171 HD
BRANCH   8  11
HETATM   11  C   UNL     1      25.658  46.552  52.260  1.00  0.00     0.310 C 
HETATM   12  N   UNL     1      25.773  46.105  53.554  1.00  0.00    -0.349 N 
HETATM   13  H   UNL     1      25.197  45.311  53.818  1.00  0.00     0.163 HD
HETATM   14  O   UNL     1      26.192  47.548  51.790  1.00  0.00    -0.262 OA
BRANCH  12  15
HETATM   15  C   UNL     1      26.576  46.781  54.539  1.00  0.00     0.161 C 
BRANCH  15  16
HETATM   16  C   UNL     1      27.770  45.962  54.955  1.00  0.00    -0.040 A 
HETATM   17  C   UNL     1      28.085  44.767  54.291  1.00  0.00     0.010 A 
HETATM   18  C   UNL     1      29.207  44.022  54.665  1.00  0.00     0.024 A 
HETATM   19  C   UNL     1      30.015  44.463  55.711  1.00  0.00     0.034 A 
HETATM   20 CL   UNL     1      31.404  43.552  56.162  1.00  0.00    -0.084 Cl
HETATM   21  C   UNL     1      29.706  45.637  56.393  1.00  0.00     0.024 A 
HETATM   22  C   UNL     1      28.584  46.381  56.019  1.00  0.00     0.010 A 
ENDBRANCH  15  16
ENDBRANCH  12  15
ENDBRANCH   8  11
ENDBRANCH   5   7
BRANCH   4  23
HETATM   23  C   UNL     1      22.189  47.634  48.561  1.00  0.00     0.732 A 
HETATM   24  N   UNL     1      21.010  47.863  49.042  1.00  0.00    -0.067 NA
HETATM   25  C   UNL     1      20.604  49.180  49.071  1.00  0.00     0.065 A 
HETATM   26  C   UNL     1      21.300  50.200  48.536  1.00  0.00     0.036 A 
HETATM   27  C   UNL     1      19.288  49.427  49.774  1.00  0.00     0.060 C 
HETATM   28  C   UNL     1      20.840  51.629  48.511  1.00  0.00     0.046 C 
HETATM   29  C   UNL     1      22.614  49.895  47.925  1.00  0.00     0.268 A 
HETATM   30  C   UNL     1      19.376  51.793  48.922  1.00  0.00     0.005 C 
HETATM   31  C   UNL     1      19.041  50.900  50.110  1.00  0.00     0.006 C 
HETATM   32  O   UNL     1      23.283  50.744  47.348  1.00  0.00    -0.267 OA
HETATM   33  N   UNL     1      23.013  48.603  48.049  1.00  0.00    -0.152 N 
HETATM   34  H   UNL     1      23.888  48.316  47.622  1.00  0.00     0.188 HD
ENDBRANCH   4  23
TORSDOF 5
ENDMDL
MODEL 3
REMARK VINA RESULT:      -9.8      3.889      9.147
REMARK  5 active torsions:
REMARK  status: ('A' for Active; 'I' for Inactive)
REMARK    1  A    between atoms: N_4  and  C_5 
REMARK    2  A    between atoms: C_16  and  N_17 
REMARK       I    between atoms: N_17  and  C_18 
REMARK    3  A    between atoms: C_18  and  C_19 
REMARK       I    between atoms: C_19  and  N_20 
REMARK    4  A    between atoms: N_20  and  C_21 
REMARK    5  A    between atoms: C_21  and  C_22 
ROOT
HETATM    1  C   UNL     1      26.548  40.001  50.102  1.00  0.00     0.072 C 
HETATM    2  C   UNL     1      26.817  41.420  50.444  1.00  0.00     0.055 C 
HETATM    3  N   UNL     1      26.997  41.787  51.716  1.00  0.00    -0.156 NA
HETATM    4  N   UNL     1      27.270  43.137  51.653  1.00  0.00    -0.045 N 
HETATM    5  C   UNL     1      27.041  43.626  50.368  1.00  0.00     0.152 C 
HETATM    6  C   UNL     1      26.888  42.519  49.564  1.00  0.00     0.079 C 
ENDROOT
BRANCH   5   7
HETATM    7  N   UNL     1      27.037  44.946  49.956  1.00  0.00    -0.303 N 
HETATM    8  C   UNL     1      26.016  45.812  50.300  1.00  0.00     0.315 C 
HETATM    9  O   UNL     1      25.022  45.583  50.976  1.00  0.00    -0.262 OA
HETATM   10  H   UNL     1      27.563  45.217  49.128  1.00  0.00     0.171 HD
BRANCH   8  11
HETATM   11  C   UNL     1      26.170  47.184  49.605  1.00  0.00     0.310 C 
HETATM   12  N   UNL     1      25.006  47.911  49.540  1.00  0.00    -0.349 N 
HETATM   13  H   UNL     1      24.164  47.461  49.885  1.00  0.00     0.163 HD
HETATM   14  O   UNL     1      27.256  47.516  49.151  1.00  0.00    -0.262 OA
BRANCH  12  15
HETATM   15  C   UNL     1      24.936  49.205  48.912  1.00  0.00     0.161 C 
BRANCH  15  16
HETATM   16  C   UNL     1      23.518  49.600  48.589  1.00  0.00    -0.040 A 
HETATM   17  C   UNL     1      23.081  50.920  48.777  1.00  0.00     0.010 A 
HETATM   18  C   UNL     1      21.772  51.287  48.454  1.00  0.00     0.024 A 
HETATM   19  C   UNL     1      20.889  50.334  47.951  1.00  0.00     0.034 A 
HETATM   20 CL   UNL     1      19.281  50.790  47.541  1.00  0.00    -0.084 Cl
HETATM   21  C   UNL     1      21.301  49.015  47.776  1.00  0.00     0.024 A 
HETATM   22  C   UNL     1      22.610  48.648  48.099  1.00  0.00     0.010 A 
ENDBRANCH  15  16
ENDBRANCH  12  15
ENDBRANCH   8  11
ENDBRANCH   5   7
BRANCH   4  23
HETATM   23  C   UNL     1      27.894  43.734  52.775  1.00  0.00     0.732 A 
HETATM   24  N   UNL     1      28.900  43.238  53.422  1.00  0.00    -0.067 NA
HETATM   25  C   UNL     1      29.338  43.954  54.516  1.00  0.00     0.065 A 
HETATM   26  C   UNL     1      28.723  45.048  55.003  1.00  0.00     0.036 A 
HETATM   27  C   UNL     1      30.602  43.428  55.158  1.00  0.00     0.060 C 
HETATM   28  C   UNL     1      29.158  45.801  56.227  1.00  0.00     0.046 C 
HETATM   29  C   UNL     1      27.530  45.548  54.282  1.00  0.00     0.268 A 
HETATM   30  C   UNL     1      30.223  45.059  57.037  1.00  0.00     0.005 C 
HETATM   31  C   UNL     1      31.260  44.422  56.119  1.00  0.00     0.006 C 
HETATM   32  O   UNL     1      26.863  46.490  54.692  1.00  0.00    -0.267 OA
HETATM   33  N   UNL     1      27.232  44.878  53.140  1.00  0.00    -0.152 N 
HETATM   34  H   UNL     1      26.406  45.144  52.614  1.00  0.00     0.188 HD
ENDBRANCH   4  23
TORSDOF 5
ENDMDL
MODEL 4
REMARK VINA RESULT:      -9.6      4.209      9.160
REMARK  5 active torsions:
REMARK  status: ('A' for Active; 'I' for Inactive)
REMARK    1  A    between atoms: N_4  and  C_5 
REMARK    2  A    between atoms: C_16  and  N_17 
REMARK       I    between atoms: N_17  and  C_18 
REMARK    3  A    between atoms: C_18  and  C_19 
REMARK       I    between atoms: C_19  and  N_20 
REMARK    4  A    between atoms: N_20  and  C_21 
REMARK    5  A    between atoms: C_21  and  C_22 
ROOT
HETATM    1  C   UNL     1      23.741  41.381  48.452  1.00  0.00     0.072 C 
HETATM    2  C   UNL     1      23.920  42.718  49.072  1.00  0.00     0.055 C 
HETATM    3  N   UNL     1      24.255  42.826  50.360  1.00  0.00    -0.156 NA
HETATM    4  N   UNL     1      24.383  44.183  50.573  1.00  0.00    -0.045 N 
HETATM    5  C   UNL     1      23.914  44.900  49.473  1.00  0.00     0.152 C 
HETATM    6  C   UNL     1      23.748  43.977  48.464  1.00  0.00     0.079 C 
ENDROOT
BRANCH   5   7
HETATM    7  N   UNL     1      23.720  46.265  49.376  1.00  0.00    -0.303 N 
HETATM    8  C   UNL     1      22.543  46.797  48.881  1.00  0.00     0.315 C 
HETATM    9  O   UNL     1      21.551  46.205  48.480  1.00  0.00    -0.262 OA
HETATM   10  H   UNL     1      24.523  46.886  49.322  1.00  0.00     0.171 HD
BRANCH   8  11
HETATM   11  C   UNL     1      22.624  48.335  48.744  1.00  0.00     0.310 C 
HETATM   12  N   UNL     1      21.843  49.018  49.644  1.00  0.00    -0.349 N 
HETATM   13  H   UNL     1      21.250  48.461  50.254  1.00  0.00     0.163 HD
HETATM   14  O   UNL     1      23.321  48.831  47.870  1.00  0.00    -0.262 OA
BRANCH  12  15
HETATM   15  C   UNL     1      21.762  50.456  49.666  1.00  0.00     0.161 C 
BRANCH  15  16
HETATM   16  C   UNL     1      20.350  50.946  49.470  1.00  0.00    -0.040 A 
HETATM   17  C   UNL     1      19.288  50.370  50.183  1.00  0.00     0.010 A 
HETATM   18  C   UNL     1      17.983  50.844  50.015  1.00  0.00     0.024 A 
HETATM   19  C   UNL     1      17.733  51.887  49.127  1.00  0.00     0.034 A 
HETATM   20 CL   UNL     1      16.128  52.478  48.931  1.00  0.00    -0.084 Cl
HETATM   21  C   UNL     1      18.774  52.457  48.399  1.00  0.00     0.024 A 
HETATM   22  C   UNL     1      20.078  51.984  48.566  1.00  0.00     0.010 A 
ENDBRANCH  15  16
ENDBRANCH  12  15
ENDBRANCH   8  11
ENDBRANCH   5   7
BRANCH   4  23
HETATM   23  C   UNL     1      25.110  44.604  51.712  1.00  0.00     0.732 A 
HETATM   24  N   UNL     1      25.216  45.827  52.122  1.00  0.00    -0.067 NA
HETATM   25  C   UNL     1      26.007  46.036  53.232  1.00  0.00     0.065 A 
HETATM   26  C   UNL     1      26.746  45.082  53.828  1.00  0.00     0.036 A 
HETATM   27  C   UNL     1      25.989  47.449  53.770  1.00  0.00     0.060 C 
HETATM   28  C   UNL     1      27.654  45.310  55.001  1.00  0.00     0.046 C 
HETATM   29  C   UNL     1      26.660  43.704  53.290  1.00  0.00     0.268 A 
HETATM   30  C   UNL     1      27.871  46.793  55.307  1.00  0.00     0.005 C 
HETATM   31  C   UNL     1      26.568  47.573  55.183  1.00  0.00     0.006 C 
HETATM   32  O   UNL     1      27.350  42.788  53.718  1.00  0.00    -0.267 OA
HETATM   33  N   UNL     1      25.764  43.542  52.283  1.00  0.00    -0.152 N 
HETATM   34  H   UNL     1      25.679  42.631  51.843  1.00  0.00     0.188 HD
ENDBRANCH   4  23
TORSDOF 5
ENDMDL
MODEL 5
REMARK VINA RESULT:      -9.6      1.714      2.233
REMARK  5 active torsions:
REMARK  status: ('A' for Active; 'I' for Inactive)
REMARK    1  A    between atoms: N_4  and  C_5 
REMARK    2  A    between atoms: C_16  and  N_17 
REMARK       I    between atoms: N_17  and  C_18 
REMARK    3  A    between atoms: C_18  and  C_19 
REMARK       I    between atoms: C_19  and  N_20 
REMARK    4  A    between atoms: N_20  and  C_21 
REMARK    5  A    between atoms: C_21  and  C_22 
ROOT
HETATM    1  C   UNL     1      22.837  43.479  45.967  1.00  0.00     0.072 C 
HETATM    2  C   UNL     1      22.813  44.443  47.096  1.00  0.00     0.055 C 
HETATM    3  N   UNL     1      22.263  45.650  46.942  1.00  0.00    -0.156 NA
HETATM    4  N   UNL     1      22.371  46.242  48.184  1.00  0.00    -0.045 N 
HETATM    5  C   UNL     1      23.178  45.477  49.024  1.00  0.00     0.152 C 
HETATM    6  C   UNL     1      23.349  44.268  48.388  1.00  0.00     0.079 C 
ENDROOT
BRANCH   5   7
HETATM    7  N   UNL     1      23.658  45.820  50.275  1.00  0.00    -0.303 N 
HETATM    8  C   UNL     1      24.913  46.376  50.444  1.00  0.00     0.315 C 
HETATM    9  O   UNL     1      25.747  46.642  49.590  1.00  0.00    -0.262 OA
HETATM   10  H   UNL     1      23.279  45.365  51.102  1.00  0.00     0.171 HD
BRANCH   8  11
HETATM   11  C   UNL     1      25.270  46.539  51.939  1.00  0.00     0.310 C 
HETATM   12  N   UNL     1      25.198  45.372  52.662  1.00  0.00    -0.349 N 
HETATM   13  H   UNL     1      24.860  44.549  52.171  1.00  0.00     0.163 HD
HETATM   14  O   UNL     1      25.554  47.644  52.379  1.00  0.00    -0.262 OA
BRANCH  12  15
HETATM   15  C   UNL     1      25.471  45.317  54.074  1.00  0.00     0.161 C 
BRANCH  15  16
HETATM   16  C   UNL     1      26.859  44.806  54.363  1.00  0.00    -0.040 A 
HETATM   17  C   UNL     1      27.817  45.637  54.961  1.00  0.00     0.010 A 
HETATM   18  C   UNL     1      29.096  45.152  55.248  1.00  0.00     0.024 A 
HETATM   19  C   UNL     1      29.427  43.837  54.929  1.00  0.00     0.034 A 
HETATM   20 CL   UNL     1      30.998  43.236  55.294  1.00  0.00    -0.084 Cl
HETATM   21  C   UNL     1      28.493  43.005  54.318  1.00  0.00     0.024 A 
HETATM   22  C   UNL     1      27.214  43.490  54.031  1.00  0.00     0.010 A 
ENDBRANCH  15  16
ENDBRANCH  12  15
ENDBRANCH   8  11
ENDBRANCH   5   7
BRANCH   4  23
HETATM   23  C   UNL     1      21.536  47.351  48.457  1.00  0.00     0.732 A 
HETATM   24  N   UNL     1      21.891  48.593  48.371  1.00  0.00    -0.067 NA
HETATM   25  C   UNL     1      20.940  49.528  48.722  1.00  0.00     0.065 A 
HETATM   26  C   UNL     1      19.736  49.228  49.244  1.00  0.00     0.036 A 
HETATM   27  C   UNL     1      21.336  50.966  48.469  1.00  0.00     0.060 C 
HETATM   28  C   UNL     1      18.717  50.239  49.683  1.00  0.00     0.046 C 
HETATM   29  C   UNL     1      19.388  47.797  49.399  1.00  0.00     0.268 A 
HETATM   30  C   UNL     1      19.272  51.664  49.728  1.00  0.00     0.005 C 
HETATM   31  C   UNL     1      20.158  51.943  48.520  1.00  0.00     0.006 C 
HETATM   32  O   UNL     1      18.349  47.428  49.932  1.00  0.00    -0.267 OA
HETATM   33  N   UNL     1      20.312  46.930  48.912  1.00  0.00    -0.152 N 
HETATM   34  H   UNL     1      20.155  45.933  49.017  1.00  0.00     0.188 HD
ENDBRANCH   4  23
TORSDOF 5
ENDMDL
MODEL 6
REMARK VINA RESULT:      -9.4      3.240      7.390
REMARK  5 active torsions:
REMARK  status: ('A' for Active; 'I' for Inactive)
REMARK    1  A    between atoms: N_4  and  C_5 
REMARK    2  A    between atoms: C_16  and  N_17 
REMARK       I    between atoms: N_17  and  C_18 
REMARK    3  A    between atoms: C_18  and  C_19 
REMARK       I    between atoms: C_19  and  N_20 
REMARK    4  A    between atoms: N_20  and  C_21 
REMARK    5  A    between atoms: C_21  and  C_22 
ROOT
HETATM    1  C   UNL     1      23.010  49.557  49.315  1.00  0.00     0.072 C 
HETATM    2  C   UNL     1      23.512  48.172  49.499  1.00  0.00     0.055 C 
HETATM    3  N   UNL     1      24.625  47.945  50.203  1.00  0.00    -0.156 NA
HETATM    4  N   UNL     1      24.758  46.572  50.209  1.00  0.00    -0.045 N 
HETATM    5  C   UNL     1      23.849  45.985  49.330  1.00  0.00     0.152 C 
HETATM    6  C   UNL     1      22.964  46.982  48.981  1.00  0.00     0.079 C 
ENDROOT
BRANCH   5   7
HETATM    7  N   UNL     1      23.790  44.662  48.936  1.00  0.00    -0.303 N 
HETATM    8  C   UNL     1      23.385  43.662  49.802  1.00  0.00     0.315 C 
HETATM    9  O   UNL     1      23.036  43.766  50.969  1.00  0.00    -0.262 OA
HETATM   10  H   UNL     1      24.358  44.343  48.154  1.00  0.00     0.171 HD
BRANCH   8  11
HETATM   11  C   UNL     1      23.537  42.260  49.169  1.00  0.00     0.310 C 
HETATM   12  N   UNL     1      24.840  41.889  48.939  1.00  0.00    -0.349 N 
HETATM   13  H   UNL     1      25.556  42.581  49.139  1.00  0.00     0.163 HD
HETATM   14  O   UNL     1      22.540  41.606  48.898  1.00  0.00    -0.262 OA
BRANCH  12  15
HETATM   15  C   UNL     1      25.191  40.630  48.336  1.00  0.00     0.161 C 
BRANCH  15  16
HETATM   16  C   UNL     1      26.410  40.017  48.976  1.00  0.00    -0.040 A 
HETATM   17  C   UNL     1      27.158  40.732  49.923  1.00  0.00     0.010 A 
HETATM   18  C   UNL     1      28.275  40.151  50.531  1.00  0.00     0.024 A 
HETATM   19  C   UNL     1      28.656  38.856  50.187  1.00  0.00     0.034 A 
HETATM   20 CL   UNL     1      30.022  38.136  50.946  1.00  0.00    -0.084 Cl
HETATM   21  C   UNL     1      27.935  38.139  49.235  1.00  0.00     0.024 A 
HETATM   22  C   UNL     1      26.819  38.720  48.627  1.00  0.00     0.010 A 
ENDBRANCH  15  16
ENDBRANCH  12  15
ENDBRANCH   8  11
ENDBRANCH   5   7
BRANCH   4  23
HETATM   23  C   UNL     1      25.598  45.998  51.193  1.00  0.00     0.732 A 
HETATM   24  N   UNL     1      26.411  45.010  50.998  1.00  0.00    -0.067 NA
HETATM   25  C   UNL     1      27.114  44.567  52.099  1.00  0.00     0.065 A 
HETATM   26  C   UNL     1      26.923  45.017  53.353  1.00  0.00     0.036 A 
HETATM   27  C   UNL     1      28.160  43.515  51.806  1.00  0.00     0.060 C 
HETATM   28  C   UNL     1      27.641  44.502  54.566  1.00  0.00     0.046 C 
HETATM   29  C   UNL     1      25.931  46.099  53.555  1.00  0.00     0.268 A 
HETATM   30  C   UNL     1      28.436  43.225  54.291  1.00  0.00     0.005 C 
HETATM   31  C   UNL     1      29.157  43.309  52.950  1.00  0.00     0.006 C 
HETATM   32  O   UNL     1      25.636  46.519  54.667  1.00  0.00    -0.267 OA
HETATM   33  N   UNL     1      25.373  46.580  52.415  1.00  0.00    -0.152 N 
HETATM   34  H   UNL     1      24.658  47.297  52.482  1.00  0.00     0.188 HD
ENDBRANCH   4  23
TORSDOF 5
ENDMDL
MODEL 7
REMARK VINA RESULT:      -9.4      4.088      8.617
REMARK  5 active torsions:
REMARK  status: ('A' for Active; 'I' for Inactive)
REMARK    1  A    between atoms: N_4  and  C_5 
REMARK    2  A    between atoms: C_16  and  N_17 
REMARK       I    between atoms: N_17  and  C_18 
REMARK    3  A    between atoms: C_18  and  C_19 
REMARK       I    between atoms: C_19  and  N_20 
REMARK    4  A    between atoms: N_20  and  C_21 
REMARK    5  A    between atoms: C_21  and  C_22 
ROOT
HETATM    1  C   UNL     1      29.432  38.832  50.780  1.00  0.00     0.072 C 
HETATM    2  C   UNL     1      28.482  39.930  51.089  1.00  0.00     0.055 C 
HETATM    3  N   UNL     1      28.645  40.677  52.184  1.00  0.00    -0.156 NA
HETATM    4  N   UNL     1      27.632  41.612  52.122  1.00  0.00    -0.045 N 
HETATM    5  C   UNL     1      26.731  41.294  51.106  1.00  0.00     0.152 C 
HETATM    6  C   UNL     1      27.337  40.308  50.358  1.00  0.00     0.079 C 
ENDROOT
BRANCH   5   7
HETATM    7  N   UNL     1      25.509  41.886  50.846  1.00  0.00    -0.303 N 
HETATM    8  C   UNL     1      25.384  42.928  49.946  1.00  0.00     0.315 C 
HETATM    9  O   UNL     1      26.257  43.462  49.276  1.00  0.00    -0.262 OA
HETATM   10  H   UNL     1      24.764  41.827  51.536  1.00  0.00     0.171 HD
BRANCH   8  11
HETATM   11  C   UNL     1      23.950  43.505  49.935  1.00  0.00     0.310 C 
HETATM   12  N   UNL     1      23.743  44.469  48.978  1.00  0.00    -0.349 N 
HETATM   13  H   UNL     1      24.550  44.751  48.429  1.00  0.00     0.163 HD
HETATM   14  O   UNL     1      23.131  43.111  50.753  1.00  0.00    -0.262 OA
BRANCH  12  15
HETATM   15  C   UNL     1      22.482  45.145  48.820  1.00  0.00     0.161 C 
BRANCH  15  16
HETATM   16  C   UNL     1      22.651  46.638  48.701  1.00  0.00    -0.040 A 
HETATM   17  C   UNL     1      21.770  47.399  47.919  1.00  0.00     0.010 A 
HETATM   18  C   UNL     1      21.918  48.786  47.830  1.00  0.00     0.024 A 
HETATM   19  C   UNL     1      22.953  49.419  48.514  1.00  0.00     0.034 A 
HETATM   20 CL   UNL     1      23.125  51.128  48.415  1.00  0.00    -0.084 Cl
HETATM   21  C   UNL     1      23.847  48.676  49.281  1.00  0.00     0.024 A 
HETATM   22  C   UNL     1      23.700  47.289  49.369  1.00  0.00     0.010 A 
ENDBRANCH  15  16
ENDBRANCH  12  15
ENDBRANCH   8  11
ENDBRANCH   5   7
BRANCH   4  23
HETATM   23  C   UNL     1      27.766  42.780  52.909  1.00  0.00     0.732 A 
HETATM   24  N   UNL     1      27.085  43.869  52.753  1.00  0.00    -0.067 NA
HETATM   25  C   UNL     1      27.395  44.913  53.599  1.00  0.00     0.065 A 
HETATM   26  C   UNL     1      28.417  44.902  54.476  1.00  0.00     0.036 A 
HETATM   27  C   UNL     1      26.484  46.115  53.490  1.00  0.00     0.060 C 
HETATM   28  C   UNL     1      28.799  46.054  55.360  1.00  0.00     0.046 C 
HETATM   29  C   UNL     1      29.225  43.665  54.579  1.00  0.00     0.268 A 
HETATM   30  C   UNL     1      28.080  47.353  54.991  1.00  0.00     0.005 C 
HETATM   31  C   UNL     1      26.615  47.091  54.663  1.00  0.00     0.006 C 
HETATM   32  O   UNL     1      30.217  43.587  55.293  1.00  0.00    -0.267 OA
HETATM   33  N   UNL     1      28.784  42.632  53.816  1.00  0.00    -0.152 N 
HETATM   34  H   UNL     1      29.312  41.765  53.811  1.00  0.00     0.188 HD
ENDBRANCH   4  23
TORSDOF 5
ENDMDL
MODEL 8
REMARK VINA RESULT:      -9.2      3.620      6.931
REMARK  5 active torsions:
REMARK  status: ('A' for Active; 'I' for Inactive)
REMARK    1  A    between atoms: N_4  and  C_5 
REMARK    2  A    between atoms: C_16  and  N_17 
REMARK       I    between atoms: N_17  and  C_18 
REMARK    3  A    between atoms: C_18  and  C_19 
REMARK       I    between atoms: C_19  and  N_20 
REMARK    4  A    between atoms: N_20  and  C_21 
REMARK    5  A    between atoms: C_21  and  C_22 
ROOT
HETATM    1  C   UNL     1      22.463  42.416  47.039  1.00  0.00     0.072 C 
HETATM    2  C   UNL     1      23.584  42.617  47.991  1.00  0.00     0.055 C 
HETATM    3  N   UNL     1      24.251  41.569  48.482  1.00  0.00    -0.156 NA
HETATM    4  N   UNL     1      25.235  42.122  49.274  1.00  0.00    -0.045 N 
HETATM    5  C   UNL     1      25.026  43.491  49.434  1.00  0.00     0.152 C 
HETATM    6  C   UNL     1      24.062  43.836  48.512  1.00  0.00     0.079 C 
ENDROOT
BRANCH   5   7
HETATM    7  N   UNL     1      25.692  44.353  50.285  1.00  0.00    -0.303 N 
HETATM    8  C   UNL     1      25.397  44.411  51.635  1.00  0.00     0.315 C 
HETATM    9  O   UNL     1      24.569  43.763  52.260  1.00  0.00    -0.262 OA
HETATM   10  H   UNL     1      26.138  45.187  49.911  1.00  0.00     0.171 HD
BRANCH   8  11
HETATM   11  C   UNL     1      26.175  45.544  52.342  1.00  0.00     0.310 C 
HETATM   12  N   UNL     1      26.808  45.152  53.497  1.00  0.00    -0.349 N 
HETATM   13  H   UNL     1      26.651  44.196  53.804  1.00  0.00     0.163 HD
HETATM   14  O   UNL     1      26.163  46.673  51.874  1.00  0.00    -0.262 OA
BRANCH  12  15
HETATM   15  C   UNL     1      27.566  46.063  54.314  1.00  0.00     0.161 C 
BRANCH  15  16
HETATM   16  C   UNL     1      28.721  45.382  55.000  1.00  0.00    -0.040 A 
HETATM   17  C   UNL     1      29.342  45.970  56.112  1.00  0.00     0.010 A 
HETATM   18  C   UNL     1      30.399  45.323  56.759  1.00  0.00     0.024 A 
HETATM   19  C   UNL     1      30.848  44.090  56.291  1.00  0.00     0.034 A 
HETATM   20 CL   UNL     1      32.140  43.288  57.096  1.00  0.00    -0.084 Cl
HETATM   21  C   UNL     1      30.254  43.501  55.177  1.00  0.00     0.024 A 
HETATM   22  C   UNL     1      29.198  44.148  54.530  1.00  0.00     0.010 A 
ENDBRANCH  15  16
ENDBRANCH  12  15
ENDBRANCH   8  11
ENDBRANCH   5   7
BRANCH   4  23
HETATM   23  C   UNL     1      26.342  41.307  49.610  1.00  0.00     0.732 A 
HETATM   24  N   UNL     1      26.829  40.364  48.869  1.00  0.00    -0.067 NA
HETATM   25  C   UNL     1      27.888  39.655  49.396  1.00  0.00     0.065 A 
HETATM   26  C   UNL     1      28.357  39.809  50.648  1.00  0.00     0.036 A 
HETATM   27  C   UNL     1      28.525  38.664  48.448  1.00  0.00     0.060 C 
HETATM   28  C   UNL     1      29.471  39.003  51.250  1.00  0.00     0.046 C 
HETATM   29  C   UNL     1      27.730  40.848  51.498  1.00  0.00     0.268 A 
HETATM   30  C   UNL     1      29.864  37.797  50.395  1.00  0.00     0.005 C 
HETATM   31  C   UNL     1      29.895  38.164  48.916  1.00  0.00     0.006 C 
HETATM   32  O   UNL     1      28.038  41.010  52.672  1.00  0.00    -0.267 OA
HETATM   33  N   UNL     1      26.785  41.598  50.875  1.00  0.00    -0.152 N 
HETATM   34  H   UNL     1      26.288  42.305  51.408  1.00  0.00     0.188 HD
ENDBRANCH   4  23
TORSDOF 5
ENDMDL
MODEL 9
REMARK VINA RESULT:      -9.0      3.747      6.258
REMARK  5 active torsions:
REMARK  status: ('A' for Active; 'I' for Inactive)
REMARK    1  A    between atoms: N_4  and  C_5 
REMARK    2  A    between atoms: C_16  and  N_17 
REMARK       I    between atoms: N_17  and  C_18 
REMARK    3  A    between atoms: C_18  and  C_19 
REMARK       I    between atoms: C_19  and  N_20 
REMARK    4  A    between atoms: N_20  and  C_21 
REMARK    5  A    between atoms: C_21  and  C_22 
ROOT
HETATM    1  C   UNL     1      18.246  51.871  49.915  1.00  0.00     0.072 C 
HETATM    2  C   UNL     1      19.379  50.958  49.622  1.00  0.00     0.055 C 
HETATM    3  N   UNL     1      19.181  49.639  49.544  1.00  0.00    -0.156 NA
HETATM    4  N   UNL     1      20.416  49.121  49.214  1.00  0.00    -0.045 N 
HETATM    5  C   UNL     1      21.402  50.102  49.307  1.00  0.00     0.152 C 
HETATM    6  C   UNL     1      20.732  51.300  49.431  1.00  0.00     0.079 C 
ENDROOT
BRANCH   5   7
HETATM    7  N   UNL     1      22.771  49.934  49.222  1.00  0.00    -0.303 N 
HETATM    8  C   UNL     1      23.455  50.127  48.035  1.00  0.00     0.315 C 
HETATM    9  O   UNL     1      23.006  50.454  46.945  1.00  0.00    -0.262 OA
HETATM   10  H   UNL     1      23.249  49.342  49.896  1.00  0.00     0.171 HD
BRANCH   8  11
HETATM   11  C   UNL     1      24.947  49.744  48.165  1.00  0.00     0.310 C 
HETATM   12  N   UNL     1      25.206  48.838  49.165  1.00  0.00    -0.349 N 
HETATM   13  H   UNL     1      24.423  48.565  49.751  1.00  0.00     0.163 HD
HETATM   14  O   UNL     1      25.773  50.263  47.428  1.00  0.00    -0.262 OA
BRANCH  12  15
HETATM   15  C   UNL     1      26.535  48.371  49.462  1.00  0.00     0.161 C 
BRANCH  15  16
HETATM   16  C   UNL     1      26.521  47.098  50.267  1.00  0.00    -0.040 A 
HETATM   17  C   UNL     1      26.940  45.886  49.697  1.00  0.00     0.010 A 
HETATM   18  C   UNL     1      26.946  44.711  50.455  1.00  0.00     0.024 A 
HETATM   19  C   UNL     1      26.525  44.740  51.782  1.00  0.00     0.034 A 
HETATM   20 CL   UNL     1      26.547  43.296  52.718  1.00  0.00    -0.084 Cl
HETATM   21  C   UNL     1      26.089  45.931  52.357  1.00  0.00     0.024 A 
HETATM   22  C   UNL     1      26.082  47.105  51.600  1.00  0.00     0.010 A 
ENDBRANCH  15  16
ENDBRANCH  12  15
ENDBRANCH   8  11
ENDBRANCH   5   7
BRANCH   4  23
HETATM   23  C   UNL     1      20.457  47.815  48.670  1.00  0.00     0.732 A 
HETATM   24  N   UNL     1      21.523  47.093  48.539  1.00  0.00    -0.067 NA
HETATM   25  C   UNL     1      21.359  45.859  47.945  1.00  0.00     0.065 A 
HETATM   26  C   UNL     1      20.205  45.424  47.406  1.00  0.00     0.036 A 
HETATM   27  C   UNL     1      22.592  44.984  47.943  1.00  0.00     0.060 C 
HETATM   28  C   UNL     1      20.031  44.107  46.707  1.00  0.00     0.046 C 
HETATM   29  C   UNL     1      19.020  46.305  47.507  1.00  0.00     0.268 A 
HETATM   30  C   UNL     1      21.358  43.400  46.426  1.00  0.00     0.005 C 
HETATM   31  C   UNL     1      22.300  43.516  47.619  1.00  0.00     0.006 C 
HETATM   32  O   UNL     1      17.949  46.027  46.982  1.00  0.00    -0.267 OA
HETATM   33  N   UNL     1      19.216  47.445  48.219  1.00  0.00    -0.152 N 
HETATM   34  H   UNL     1      18.456  48.112  48.298  1.00  0.00     0.188 HD
ENDBRANCH   4  23
TORSDOF 5
ENDMDL
MODEL 10
REMARK VINA RESULT:      -8.9      2.123      5.084
REMARK  5 active torsions:
REMARK  status: ('A' for Active; 'I' for Inactive)
REMARK    1  A    between atoms: N_4  and  C_5 
REMARK    2  A    between atoms: C_16  and  N_17 
REMARK       I    between atoms: N_17  and  C_18 
REMARK    3  A    between atoms: C_18  and  C_19 
REMARK       I    between atoms: C_19  and  N_20 
REMARK    4  A    between atoms: N_20  and  C_21 
REMARK    5  A    between atoms: C_21  and  C_22 
ROOT
HETATM    1  C   UNL     1      23.285  49.021  48.956  1.00  0.00     0.072 C 
HETATM    2  C   UNL     1      23.681  47.625  49.269  1.00  0.00     0.055 C 
HETATM    3  N   UNL     1      22.995  46.598  48.761  1.00  0.00    -0.156 NA
HETATM    4  N   UNL     1      23.663  45.478  49.211  1.00  0.00    -0.045 N 
HETATM    5  C   UNL     1      24.619  45.824  50.163  1.00  0.00     0.152 C 
HETATM    6  C   UNL     1      24.732  47.196  50.104  1.00  0.00     0.079 C 
ENDROOT
BRANCH   5   7
HETATM    7  N   UNL     1      25.363  44.975  50.961  1.00  0.00    -0.303 N 
HETATM    8  C   UNL     1      26.654  44.608  50.626  1.00  0.00     0.315 C 
HETATM    9  O   UNL     1      27.310  44.945  49.651  1.00  0.00    -0.262 OA
HETATM   10  H   UNL     1      24.890  44.334  51.594  1.00  0.00     0.171 HD
BRANCH   8  11
HETATM   11  C   UNL     1      27.218  43.548  51.599  1.00  0.00     0.310 C 
HETATM   12  N   UNL     1      28.338  43.956  52.283  1.00  0.00    -0.349 N 
HETATM   13  H   UNL     1      28.717  44.867  52.040  1.00  0.00     0.163 HD
HETATM   14  O   UNL     1      26.681  42.452  51.681  1.00  0.00    -0.262 OA
BRANCH  12  15
HETATM   15  C   UNL     1      29.026  43.107  53.219  1.00  0.00     0.161 C 
BRANCH  15  16
HETATM   16  C   UNL     1      29.456  43.857  54.453  1.00  0.00    -0.040 A 
HETATM   17  C   UNL     1      28.773  45.011  54.864  1.00  0.00     0.010 A 
HETATM   18  C   UNL     1      29.162  45.691  56.022  1.00  0.00     0.024 A 
HETATM   19  C   UNL     1      30.241  45.226  56.770  1.00  0.00     0.034 A 
HETATM   20 CL   UNL     1      30.710  46.056  58.203  1.00  0.00    -0.084 Cl
HETATM   21  C   UNL     1      30.941  44.092  56.366  1.00  0.00     0.024 A 
HETATM   22  C   UNL     1      30.554  43.413  55.208  1.00  0.00     0.010 A 
ENDBRANCH  15  16
ENDBRANCH  12  15
ENDBRANCH   8  11
ENDBRANCH   5   7
BRANCH   4  23
HETATM   23  C   UNL     1      23.430  44.258  48.531  1.00  0.00     0.732 A 
HETATM   24  N   UNL     1      24.321  43.345  48.309  1.00  0.00    -0.067 NA
HETATM   25  C   UNL     1      23.904  42.244  47.591  1.00  0.00     0.065 A 
HETATM   26  C   UNL     1      22.689  42.123  47.024  1.00  0.00     0.036 A 
HETATM   27  C   UNL     1      24.924  41.133  47.478  1.00  0.00     0.060 C 
HETATM   28  C   UNL     1      22.245  40.955  46.192  1.00  0.00     0.046 C 
HETATM   29  C   UNL     1      21.716  43.220  47.235  1.00  0.00     0.268 A 
HETATM   30  C   UNL     1      23.395  40.017  45.820  1.00  0.00     0.005 C 
HETATM   31  C   UNL     1      24.330  39.803  47.004  1.00  0.00     0.006 C 
HETATM   32  O   UNL     1      20.615  43.232  46.698  1.00  0.00    -0.267 OA
HETATM   33  N   UNL     1      22.143  44.209  48.060  1.00  0.00    -0.152 N 
HETATM   34  H   UNL     1      21.541  45.010  48.220  1.00  0.00     0.188 HD
ENDBRANCH   4  23
TORSDOF 5
ENDMDL
