MODEL 1
REMARK VINA RESULT:     -10.4      0.000      0.000
REMARK  6 active torsions:
REMARK  status: ('A' for Active; 'I' for Inactive)
REMARK    1  A    between atoms: C_4  and  N_5 
REMARK       I    between atoms: N_5  and  C_6 
REMARK       I    between atoms: C_6  and  N_16 
REMARK    2  A    between atoms: N_16  and  CA_17 
REMARK    3  A    between atoms: CA_17  and  C_18 
REMARK    4  A    between atoms: CA_17  and  CB_20 
REMARK    5  A    between atoms: C_18  and  O_19 
REMARK    6  A    between atoms: CB_20  and  CG_21 
ROOT
HETATM    1  N   UNK A   0      27.581  46.170  54.821  1.00  0.00    -0.307 N 
HETATM    2  C   UNK A   0      26.593  46.495  53.952  1.00  0.00     0.321 C 
HETATM    3  O   UNK A   0      25.730  47.305  54.290  1.00  0.00    -0.247 OA
HETATM    4  H   UNK A   0      27.594  46.781  55.637  1.00  0.00     0.170 HD
ATOM      5  N   TRP A   1      26.620  45.931  52.715  1.00  0.00    -0.336 N 
ATOM      6  H   TRP A   1      27.544  45.737  52.355  1.00  0.00     0.164 HD
ENDROOT
BRANCH   5   7
ATOM      7  CA  TRP A   1      25.642  46.310  51.686  1.00  0.00     0.114 C 
BRANCH   7   8
ATOM      8  C   TRP A   1      24.494  45.288  51.687  1.00  0.00     0.189 C 
BRANCH   8   9
ATOM      9  O   TRP A   1      24.837  44.137  52.463  1.00  0.00    -0.399 OA
ATOM     10  H   TRP A   1      24.930  44.445  53.381  1.00  0.00     0.209 HD
ENDBRANCH   8   9
ENDBRANCH   7   8
BRANCH   7  11
ATOM     11  CB  TRP A   1      26.326  46.431  50.309  1.00  0.00     0.068 C 
BRANCH  11  12
ATOM     12  CG  TRP A   1      26.102  47.757  49.645  1.00  0.00    -0.028 A 
ATOM     13  CD2 TRP A   1      24.853  48.331  49.243  1.00  0.00    -0.002 A 
ATOM     14  CE2 TRP A   1      25.131  49.564  48.652  1.00  0.00     0.042 A 
ATOM     15  CE3 TRP A   1      23.508  47.914  49.325  1.00  0.00     0.014 A 
ATOM     16  CZ2 TRP A   1      24.134  50.401  48.136  1.00  0.00     0.030 A 
ATOM     17  NE1 TRP A   1      26.495  49.733  48.690  1.00  0.00    -0.365 N 
ATOM     18  CH2 TRP A   1      22.810  49.963  48.230  1.00  0.00     0.002 A 
ATOM     19  CZ3 TRP A   1      22.498  48.739  48.816  1.00  0.00     0.001 A 
ATOM     20  HE1 TRP A   1      26.984  50.537  48.321  1.00  0.00     0.165 HD
ATOM     21  CD1 TRP A   1      27.088  48.655  49.286  1.00  0.00     0.096 A 
ENDBRANCH  11  12
ENDBRANCH   7  11
ENDBRANCH   5   7
BRANCH   1  22
HETATM   22  C   UNK A   0      28.582  45.173  54.868  1.00  0.00     0.066 A 
HETATM   23  C   UNK A   0      28.759  44.192  53.884  1.00  0.00     0.038 A 
HETATM   24  C   UNK A   0      29.782  43.244  53.998  1.00  0.00    -0.059 A 
HETATM   25  C   UNK A   0      29.965  42.183  52.952  1.00  0.00     0.048 C 
HETATM   26  C   UNK A   0      30.596  43.256  55.134  1.00  0.00     0.020 A 
HETATM   27  C   UNK A   0      30.400  44.209  56.145  1.00  0.00    -0.005 A 
HETATM   28  C   UNK A   0      29.385  45.180  56.022  1.00  0.00     0.093 A 
HETATM   29  C   UNK A   0      31.195  44.220  57.300  1.00  0.00     0.015 A 
HETATM   30  N   UNK A   0      29.174  46.106  56.990  1.00  0.00    -0.258 NA
HETATM   31  C   UNK A   0      29.959  46.083  58.088  1.00  0.00     0.117 A 
HETATM   32  C   UNK A   0      30.973  45.169  58.288  1.00  0.00     0.020 A 
ENDBRANCH   1  22
TORSDOF 6
ENDMDL
MODEL 2
REMARK VINA RESULT:     -10.3      1.710      8.989
REMARK  6 active torsions:
REMARK  status: ('A' for Active; 'I' for Inactive)
REMARK    1  A    between atoms: C_4  and  N_5 
REMARK       I    between atoms: N_5  and  C_6 
REMARK       I    between atoms: C_6  and  N_16 
REMARK    2  A    between atoms: N_16  and  CA_17 
REMARK    3  A    between atoms: CA_17  and  C_18 
REMARK    4  A    between atoms: CA_17  and  CB_20 
REMARK    5  A    between atoms: C_18  and  O_19 
REMARK    6  A    between atoms: CB_20  and  CG_21 
ROOT
HETATM    1  N   UNK A   0      24.518  46.114  50.269  1.00  0.00    -0.307 N 
HETATM    2  C   UNK A   0      24.821  45.446  51.408  1.00  0.00     0.321 C 
HETATM    3  O   UNK A   0      24.125  44.492  51.754  1.00  0.00    -0.247 OA
HETATM    4  H   UNK A   0      23.814  45.631  49.713  1.00  0.00     0.170 HD
ATOM      5  N   TRP A   1      25.916  45.843  52.109  1.00  0.00    -0.336 N 
ATOM      6  H   TRP A   1      26.668  46.219  51.548  1.00  0.00     0.164 HD
ENDROOT
BRANCH   5   7
ATOM      7  CA  TRP A   1      26.364  45.106  53.298  1.00  0.00     0.114 C 
BRANCH   7   8
ATOM      8  C   TRP A   1      25.222  45.072  54.326  1.00  0.00     0.189 C 
BRANCH   8   9
ATOM      9  O   TRP A   1      24.786  43.730  54.559  1.00  0.00    -0.399 OA
ATOM     10  H   TRP A   1      25.590  43.209  54.731  1.00  0.00     0.209 HD
ENDBRANCH   8   9
ENDBRANCH   7   8
BRANCH   7  11
ATOM     11  CB  TRP A   1      27.654  45.732  53.868  1.00  0.00     0.068 C 
BRANCH  11  12
ATOM     12  CG  TRP A   1      28.676  44.718  54.289  1.00  0.00    -0.028 A 
ATOM     13  CD2 TRP A   1      29.485  44.735  55.471  1.00  0.00    -0.002 A 
ATOM     14  CE2 TRP A   1      30.301  43.603  55.433  1.00  0.00     0.042 A 
ATOM     15  CE3 TRP A   1      29.603  45.611  56.569  1.00  0.00     0.014 A 
ATOM     16  CZ2 TRP A   1      31.230  43.304  56.437  1.00  0.00     0.030 A 
ATOM     17  NE1 TRP A   1      30.001  42.925  54.275  1.00  0.00    -0.365 N 
ATOM     18  CH2 TRP A   1      31.326  44.189  57.514  1.00  0.00     0.002 A 
ATOM     19  CZ3 TRP A   1      30.526  45.326  57.582  1.00  0.00     0.001 A 
ATOM     20  HE1 TRP A   1      30.447  42.068  53.980  1.00  0.00     0.165 HD
ATOM     21  CD1 TRP A   1      29.025  43.585  53.581  1.00  0.00     0.096 A 
ENDBRANCH  11  12
ENDBRANCH   7  11
ENDBRANCH   5   7
BRANCH   1  22
HETATM   22  C   UNK A   0      24.938  47.331  49.683  1.00  0.00     0.066 A 
HETATM   23  C   UNK A   0      26.260  47.794  49.697  1.00  0.00     0.038 A 
HETATM   24  C   UNK A   0      26.597  49.007  49.085  1.00  0.00    -0.059 A 
HETATM   25  C   UNK A   0      28.010  49.512  49.111  1.00  0.00     0.048 C 
HETATM   26  C   UNK A   0      25.588  49.776  48.501  1.00  0.00     0.020 A 
HETATM   27  C   UNK A   0      24.254  49.341  48.518  1.00  0.00    -0.005 A 
HETATM   28  C   UNK A   0      23.914  48.109  49.114  1.00  0.00     0.093 A 
HETATM   29  C   UNK A   0      23.228  50.114  47.955  1.00  0.00     0.015 A 
HETATM   30  N   UNK A   0      22.630  47.672  49.148  1.00  0.00    -0.258 NA
HETATM   31  C   UNK A   0      21.671  48.445  48.596  1.00  0.00     0.117 A 
HETATM   32  C   UNK A   0      21.916  49.662  47.994  1.00  0.00     0.020 A 
ENDBRANCH   1  22
TORSDOF 6
ENDMDL
MODEL 3
REMARK VINA RESULT:     -10.2      1.683      8.667
REMARK  6 active torsions:
REMARK  status: ('A' for Active; 'I' for Inactive)
REMARK    1  A    between atoms: C_4  and  N_5 
REMARK       I    between atoms: N_5  and  C_6 
REMARK       I    between atoms: C_6  and  N_16 
REMARK    2  A    between atoms: N_16  and  CA_17 
REMARK    3  A    between atoms: CA_17  and  C_18 
REMARK    4  A    between atoms: CA_17  and  CB_20 
REMARK    5  A    between atoms: C_18  and  O_19 
REMARK    6  A    between atoms: CB_20  and  CG_21 
ROOT
HETATM    1  N   UNK A   0      24.216  46.404  50.414  1.00  0.00    -0.307 N 
HETATM    2  C   UNK A   0      24.786  45.381  51.096  1.00  0.00     0.321 C 
HETATM    3  O   UNK A   0      24.078  44.628  51.763  1.00  0.00    -0.247 OA
HETATM    4  H   UNK A   0      23.199  46.337  50.396  1.00  0.00     0.170 HD
ATOM      5  N   TRP A   1      26.130  45.210  50.983  1.00  0.00    -0.336 N 
ATOM      6  H   TRP A   1      26.521  45.481  50.091  1.00  0.00     0.164 HD
ENDROOT
BRANCH   5   7
ATOM      7  CA  TRP A   1      26.805  44.066  51.611  1.00  0.00     0.114 C 
BRANCH   7   8
ATOM      8  C   TRP A   1      26.458  42.789  50.828  1.00  0.00     0.189 C 
BRANCH   8   9
ATOM      9  O   TRP A   1      25.488  42.009  51.530  1.00  0.00    -0.399 OA
ATOM     10  H   TRP A   1      24.618  42.304  51.211  1.00  0.00     0.209 HD
ENDBRANCH   8   9
ENDBRANCH   7   8
BRANCH   7  11
ATOM     11  CB  TRP A   1      26.425  43.967  53.103  1.00  0.00     0.068 C 
BRANCH  11  12
ATOM     12  CG  TRP A   1      27.294  44.798  53.998  1.00  0.00    -0.028 A 
ATOM     13  CD2 TRP A   1      28.543  44.425  54.592  1.00  0.00    -0.002 A 
ATOM     14  CE2 TRP A   1      28.980  45.506  55.358  1.00  0.00     0.042 A 
ATOM     15  CE3 TRP A   1      29.343  43.264  54.552  1.00  0.00     0.014 A 
ATOM     16  CZ2 TRP A   1      30.175  45.486  56.088  1.00  0.00     0.030 A 
ATOM     17  NE1 TRP A   1      28.035  46.497  55.237  1.00  0.00    -0.365 N 
ATOM     18  CH2 TRP A   1      30.948  44.323  56.031  1.00  0.00     0.002 A 
ATOM     19  CZ3 TRP A   1      30.541  43.227  55.274  1.00  0.00     0.001 A 
ATOM     20  HE1 TRP A   1      28.084  47.397  55.695  1.00  0.00     0.165 HD
ATOM     21  CD1 TRP A   1      27.019  46.084  54.421  1.00  0.00     0.096 A 
ENDBRANCH  11  12
ENDBRANCH   7  11
ENDBRANCH   5   7
BRANCH   1  22
HETATM   22  C   UNK A   0      24.701  47.548  49.739  1.00  0.00     0.066 A 
HETATM   23  C   UNK A   0      26.045  47.940  49.727  1.00  0.00     0.038 A 
HETATM   24  C   UNK A   0      26.448  49.083  49.025  1.00  0.00    -0.059 A 
HETATM   25  C   UNK A   0      27.886  49.514  49.022  1.00  0.00     0.048 C 
HETATM   26  C   UNK A   0      25.482  49.857  48.376  1.00  0.00     0.020 A 
HETATM   27  C   UNK A   0      24.128  49.495  48.417  1.00  0.00    -0.005 A 
HETATM   28  C   UNK A   0      23.721  48.332  49.104  1.00  0.00     0.093 A 
HETATM   29  C   UNK A   0      23.146  50.275  47.789  1.00  0.00     0.015 A 
HETATM   30  N   UNK A   0      22.416  47.967  49.162  1.00  0.00    -0.258 NA
HETATM   31  C   UNK A   0      21.501  48.744  48.546  1.00  0.00     0.117 A 
HETATM   32  C   UNK A   0      21.811  49.896  47.853  1.00  0.00     0.020 A 
ENDBRANCH   1  22
TORSDOF 6
ENDMDL
MODEL 4
REMARK VINA RESULT:      -9.9      2.246      8.868
REMARK  6 active torsions:
REMARK  status: ('A' for Active; 'I' for Inactive)
REMARK    1  A    between atoms: C_4  and  N_5 
REMARK       I    between atoms: N_5  and  C_6 
REMARK       I    between atoms: C_6  and  N_16 
REMARK    2  A    between atoms: N_16  and  CA_17 
REMARK    3  A    between atoms: CA_17  and  C_18 
REMARK    4  A    between atoms: CA_17  and  CB_20 
REMARK    5  A    between atoms: C_18  and  O_19 
REMARK    6  A    between atoms: CB_20  and  CG_21 
ROOT
HETATM    1  N   UNK A   0      24.041  46.463  50.190  1.00  0.00    -0.307 N 
HETATM    2  C   UNK A   0      24.600  45.329  50.677  1.00  0.00     0.321 C 
HETATM    3  O   UNK A   0      23.924  44.568  51.369  1.00  0.00    -0.247 OA
HETATM    4  H   UNK A   0      23.030  46.483  50.321  1.00  0.00     0.170 HD
ATOM      5  N   TRP A   1      25.891  45.060  50.344  1.00  0.00    -0.336 N 
ATOM      6  H   TRP A   1      26.175  45.394  49.433  1.00  0.00     0.164 HD
ENDROOT
BRANCH   5   7
ATOM      7  CA  TRP A   1      26.533  43.803  50.750  1.00  0.00     0.114 C 
BRANCH   7   8
ATOM      8  C   TRP A   1      25.760  42.625  50.135  1.00  0.00     0.189 C 
BRANCH   8   9
ATOM      9  O   TRP A   1      25.136  41.838  51.153  1.00  0.00    -0.399 OA
ATOM     10  H   TRP A   1      24.229  41.667  50.847  1.00  0.00     0.209 HD
ENDBRANCH   8   9
ENDBRANCH   7   8
BRANCH   7  11
ATOM     11  CB  TRP A   1      26.623  43.713  52.288  1.00  0.00     0.068 C 
BRANCH  11  12
ATOM     12  CG  TRP A   1      27.968  43.273  52.783  1.00  0.00    -0.028 A 
ATOM     13  CD2 TRP A   1      28.699  43.795  53.899  1.00  0.00    -0.002 A 
ATOM     14  CE2 TRP A   1      29.905  43.096  53.970  1.00  0.00     0.042 A 
ATOM     15  CE3 TRP A   1      28.449  44.800  54.855  1.00  0.00     0.014 A 
ATOM     16  CZ2 TRP A   1      30.874  43.353  54.948  1.00  0.00     0.030 A 
ATOM     17  NE1 TRP A   1      29.909  42.187  52.939  1.00  0.00    -0.365 N 
ATOM     18  CH2 TRP A   1      30.601  44.355  55.883  1.00  0.00     0.002 A 
ATOM     19  CZ3 TRP A   1      29.406  45.069  55.840  1.00  0.00     0.001 A 
ATOM     20  HE1 TRP A   1      30.666  41.548  52.740  1.00  0.00     0.165 HD
ATOM     21  CD1 TRP A   1      28.750  42.283  52.221  1.00  0.00     0.096 A 
ENDBRANCH  11  12
ENDBRANCH   7  11
ENDBRANCH   5   7
BRANCH   1  22
HETATM   22  C   UNK A   0      24.534  47.630  49.562  1.00  0.00     0.066 A 
HETATM   23  C   UNK A   0      25.881  48.015  49.568  1.00  0.00     0.038 A 
HETATM   24  C   UNK A   0      26.292  49.182  48.912  1.00  0.00    -0.059 A 
HETATM   25  C   UNK A   0      27.732  49.605  48.929  1.00  0.00     0.048 C 
HETATM   26  C   UNK A   0      25.332  49.986  48.293  1.00  0.00     0.020 A 
HETATM   27  C   UNK A   0      23.975  49.631  48.317  1.00  0.00    -0.005 A 
HETATM   28  C   UNK A   0      23.560  48.445  48.956  1.00  0.00     0.093 A 
HETATM   29  C   UNK A   0      22.999  50.440  47.718  1.00  0.00     0.015 A 
HETATM   30  N   UNK A   0      22.253  48.085  48.997  1.00  0.00    -0.258 NA
HETATM   31  C   UNK A   0      21.344  48.891  48.410  1.00  0.00     0.117 A 
HETATM   32  C   UNK A   0      21.663  50.067  47.764  1.00  0.00     0.020 A 
ENDBRANCH   1  22
TORSDOF 6
ENDMDL
MODEL 5
REMARK VINA RESULT:      -9.8      4.247      8.820
REMARK  6 active torsions:
REMARK  status: ('A' for Active; 'I' for Inactive)
REMARK    1  A    between atoms: C_4  and  N_5 
REMARK       I    between atoms: N_5  and  C_6 
REMARK       I    between atoms: C_6  and  N_16 
REMARK    2  A    between atoms: N_16  and  CA_17 
REMARK    3  A    between atoms: CA_17  and  C_18 
REMARK    4  A    between atoms: CA_17  and  CB_20 
REMARK    5  A    between atoms: C_18  and  O_19 
REMARK    6  A    between atoms: CB_20  and  CG_21 
ROOT
HETATM    1  N   UNK A   0      27.770  40.443  51.647  1.00  0.00    -0.307 N 
HETATM    2  C   UNK A   0      27.711  41.330  52.670  1.00  0.00     0.321 C 
HETATM    3  O   UNK A   0      28.279  41.071  53.731  1.00  0.00    -0.247 OA
HETATM    4  H   UNK A   0      28.444  39.699  51.819  1.00  0.00     0.170 HD
ATOM      5  N   TRP A   1      27.048  42.499  52.465  1.00  0.00    -0.336 N 
ATOM      6  H   TRP A   1      27.082  42.848  51.517  1.00  0.00     0.164 HD
ENDROOT
BRANCH   5   7
ATOM      7  CA  TRP A   1      27.027  43.550  53.491  1.00  0.00     0.114 C 
BRANCH   7   8
ATOM      8  C   TRP A   1      25.723  44.353  53.357  1.00  0.00     0.189 C 
BRANCH   8   9
ATOM      9  O   TRP A   1      24.708  43.824  54.214  1.00  0.00    -0.399 OA
ATOM     10  H   TRP A   1      24.310  44.587  54.668  1.00  0.00     0.209 HD
ENDBRANCH   8   9
ENDBRANCH   7   8
BRANCH   7  11
ATOM     11  CB  TRP A   1      28.283  44.439  53.380  1.00  0.00     0.068 C 
BRANCH  11  12
ATOM     12  CG  TRP A   1      28.722  45.019  54.692  1.00  0.00    -0.028 A 
ATOM     13  CD2 TRP A   1      29.732  44.514  55.574  1.00  0.00    -0.002 A 
ATOM     14  CE2 TRP A   1      29.784  45.364  56.678  1.00  0.00     0.042 A 
ATOM     15  CE3 TRP A   1      30.606  43.408  55.537  1.00  0.00     0.014 A 
ATOM     16  CZ2 TRP A   1      30.663  45.165  57.750  1.00  0.00     0.030 A 
ATOM     17  NE1 TRP A   1      28.843  46.347  56.478  1.00  0.00    -0.365 N 
ATOM     18  CH2 TRP A   1      31.519  44.061  57.687  1.00  0.00     0.002 A 
ATOM     19  CZ3 TRP A   1      31.492  43.194  56.598  1.00  0.00     0.001 A 
ATOM     20  HE1 TRP A   1      28.652  47.099  57.126  1.00  0.00     0.165 HD
ATOM     21  CD1 TRP A   1      28.201  46.150  55.288  1.00  0.00     0.096 A 
ENDBRANCH  11  12
ENDBRANCH   7  11
ENDBRANCH   5   7
BRANCH   1  22
HETATM   22  C   UNK A   0      27.102  40.302  50.409  1.00  0.00     0.066 A 
HETATM   23  C   UNK A   0      25.873  40.903  50.107  1.00  0.00     0.038 A 
HETATM   24  C   UNK A   0      25.280  40.722  48.851  1.00  0.00    -0.059 A 
HETATM   25  C   UNK A   0      23.957  41.352  48.530  1.00  0.00     0.048 C 
HETATM   26  C   UNK A   0      25.907  39.892  47.918  1.00  0.00     0.020 A 
HETATM   27  C   UNK A   0      27.117  39.252  48.226  1.00  0.00    -0.005 A 
HETATM   28  C   UNK A   0      27.729  39.450  49.482  1.00  0.00     0.093 A 
HETATM   29  C   UNK A   0      27.745  38.399  47.307  1.00  0.00     0.015 A 
HETATM   30  N   UNK A   0      28.895  38.837  49.803  1.00  0.00    -0.258 NA
HETATM   31  C   UNK A   0      29.468  38.023  48.892  1.00  0.00     0.117 A 
HETATM   32  C   UNK A   0      28.938  37.773  47.643  1.00  0.00     0.020 A 
ENDBRANCH   1  22
TORSDOF 6
ENDMDL
MODEL 6
REMARK VINA RESULT:      -9.7      2.294      8.179
REMARK  6 active torsions:
REMARK  status: ('A' for Active; 'I' for Inactive)
REMARK    1  A    between atoms: C_4  and  N_5 
REMARK       I    between atoms: N_5  and  C_6 
REMARK       I    between atoms: C_6  and  N_16 
REMARK    2  A    between atoms: N_16  and  CA_17 
REMARK    3  A    between atoms: CA_17  and  C_18 
REMARK    4  A    between atoms: CA_17  and  CB_20 
REMARK    5  A    between atoms: C_18  and  O_19 
REMARK    6  A    between atoms: CB_20  and  CG_21 
ROOT
HETATM    1  N   UNK A   0      24.111  46.392  50.217  1.00  0.00    -0.307 N 
HETATM    2  C   UNK A   0      24.662  45.254  50.705  1.00  0.00     0.321 C 
HETATM    3  O   UNK A   0      23.973  44.487  51.377  1.00  0.00    -0.247 OA
HETATM    4  H   UNK A   0      23.098  46.409  50.328  1.00  0.00     0.170 HD
ATOM      5  N   TRP A   1      25.959  44.989  50.396  1.00  0.00    -0.336 N 
ATOM      6  H   TRP A   1      26.261  45.331  49.493  1.00  0.00     0.164 HD
ENDROOT
BRANCH   5   7
ATOM      7  CA  TRP A   1      26.595  43.729  50.804  1.00  0.00     0.114 C 
BRANCH   7   8
ATOM      8  C   TRP A   1      26.133  42.608  49.859  1.00  0.00     0.189 C 
BRANCH   8   9
ATOM      9  O   TRP A   1      26.887  42.623  48.644  1.00  0.00    -0.399 OA
ATOM     10  H   TRP A   1      26.558  41.879  48.110  1.00  0.00     0.209 HD
ENDBRANCH   8   9
ENDBRANCH   7   8
BRANCH   7  11
ATOM     11  CB  TRP A   1      26.284  43.421  52.284  1.00  0.00     0.068 C 
BRANCH  11  12
ATOM     12  CG  TRP A   1      27.210  44.107  53.243  1.00  0.00    -0.028 A 
ATOM     13  CD2 TRP A   1      27.051  45.402  53.834  1.00  0.00    -0.002 A 
ATOM     14  CE2 TRP A   1      28.164  45.631  54.644  1.00  0.00     0.042 A 
ATOM     15  CE3 TRP A   1      26.063  46.405  53.753  1.00  0.00     0.014 A 
ATOM     16  CZ2 TRP A   1      28.341  46.812  55.374  1.00  0.00     0.030 A 
ATOM     17  NE1 TRP A   1      28.970  44.520  54.549  1.00  0.00    -0.365 N 
ATOM     18  CH2 TRP A   1      27.347  47.789  55.276  1.00  0.00     0.002 A 
ATOM     19  CZ3 TRP A   1      26.223  47.591  54.478  1.00  0.00     0.001 A 
ATOM     20  HE1 TRP A   1      29.855  44.411  55.024  1.00  0.00     0.165 HD
ATOM     21  CD1 TRP A   1      28.406  43.598  53.712  1.00  0.00     0.096 A 
ENDBRANCH  11  12
ENDBRANCH   7  11
ENDBRANCH   5   7
BRANCH   1  22
HETATM   22  C   UNK A   0      24.615  47.564  49.608  1.00  0.00     0.066 A 
HETATM   23  C   UNK A   0      25.964  47.941  49.628  1.00  0.00     0.038 A 
HETATM   24  C   UNK A   0      26.386  49.114  48.992  1.00  0.00    -0.059 A 
HETATM   25  C   UNK A   0      27.828  49.529  49.025  1.00  0.00     0.048 C 
HETATM   26  C   UNK A   0      25.435  49.933  48.377  1.00  0.00     0.020 A 
HETATM   27  C   UNK A   0      24.076  49.585  48.387  1.00  0.00    -0.005 A 
HETATM   28  C   UNK A   0      23.650  48.392  49.007  1.00  0.00     0.093 A 
HETATM   29  C   UNK A   0      23.109  50.408  47.792  1.00  0.00     0.015 A 
HETATM   30  N   UNK A   0      22.341  48.040  49.034  1.00  0.00    -0.258 NA
HETATM   31  C   UNK A   0      21.440  48.859  48.452  1.00  0.00     0.117 A 
HETATM   32  C   UNK A   0      21.770  50.042  47.824  1.00  0.00     0.020 A 
ENDBRANCH   1  22
TORSDOF 6
ENDMDL
MODEL 7
REMARK VINA RESULT:      -9.4      2.203      9.045
REMARK  6 active torsions:
REMARK  status: ('A' for Active; 'I' for Inactive)
REMARK    1  A    between atoms: C_4  and  N_5 
REMARK       I    between atoms: N_5  and  C_6 
REMARK       I    between atoms: C_6  and  N_16 
REMARK    2  A    between atoms: N_16  and  CA_17 
REMARK    3  A    between atoms: CA_17  and  C_18 
REMARK    4  A    between atoms: CA_17  and  CB_20 
REMARK    5  A    between atoms: C_18  and  O_19 
REMARK    6  A    between atoms: CB_20  and  CG_21 
ROOT
HETATM    1  N   UNK A   0      24.547  48.225  49.275  1.00  0.00    -0.307 N 
HETATM    2  C   UNK A   0      25.572  47.617  49.921  1.00  0.00     0.321 C 
HETATM    3  O   UNK A   0      26.718  48.037  49.768  1.00  0.00    -0.247 OA
HETATM    4  H   UNK A   0      24.830  49.103  48.841  1.00  0.00     0.170 HD
ATOM      5  N   TRP A   1      25.279  46.580  50.749  1.00  0.00    -0.336 N 
ATOM      6  H   TRP A   1      24.379  46.639  51.206  1.00  0.00     0.164 HD
ENDROOT
BRANCH   5   7
ATOM      7  CA  TRP A   1      26.323  45.937  51.559  1.00  0.00     0.114 C 
BRANCH   7   8
ATOM      8  C   TRP A   1      26.762  44.636  50.868  1.00  0.00     0.189 C 
BRANCH   8   9
ATOM      9  O   TRP A   1      27.423  44.915  49.631  1.00  0.00    -0.399 OA
ATOM     10  H   TRP A   1      27.015  44.331  48.968  1.00  0.00     0.209 HD
ENDBRANCH   8   9
ENDBRANCH   7   8
BRANCH   7  11
ATOM     11  CB  TRP A   1      25.820  45.702  52.999  1.00  0.00     0.068 C 
BRANCH  11  12
ATOM     12  CG  TRP A   1      26.834  46.047  54.049  1.00  0.00    -0.028 A 
ATOM     13  CD2 TRP A   1      27.977  45.279  54.444  1.00  0.00    -0.002 A 
ATOM     14  CE2 TRP A   1      28.617  45.981  55.466  1.00  0.00     0.042 A 
ATOM     15  CE3 TRP A   1      28.525  44.048  54.029  1.00  0.00     0.014 A 
ATOM     16  CZ2 TRP A   1      29.778  45.513  56.096  1.00  0.00     0.030 A 
ATOM     17  NE1 TRP A   1      27.893  47.129  55.686  1.00  0.00    -0.365 N 
ATOM     18  CH2 TRP A   1      30.300  44.291  55.665  1.00  0.00     0.002 A 
ATOM     19  CZ3 TRP A   1      29.685  43.567  54.646  1.00  0.00     0.001 A 
ATOM     20  HE1 TRP A   1      28.121  47.826  56.381  1.00  0.00     0.165 HD
ATOM     21  CD1 TRP A   1      26.821  47.180  54.840  1.00  0.00     0.096 A 
ENDBRANCH  11  12
ENDBRANCH   7  11
ENDBRANCH   5   7
BRANCH   1  22
HETATM   22  C   UNK A   0      23.186  47.915  49.048  1.00  0.00     0.066 A 
HETATM   23  C   UNK A   0      22.737  46.703  48.508  1.00  0.00     0.038 A 
HETATM   24  C   UNK A   0      21.369  46.469  48.323  1.00  0.00    -0.059 A 
HETATM   25  C   UNK A   0      20.885  45.177  47.731  1.00  0.00     0.048 C 
HETATM   26  C   UNK A   0      20.458  47.481  48.638  1.00  0.00     0.020 A 
HETATM   27  C   UNK A   0      20.901  48.713  49.140  1.00  0.00    -0.005 A 
HETATM   28  C   UNK A   0      22.277  48.945  49.349  1.00  0.00     0.093 A 
HETATM   29  C   UNK A   0      20.000  49.745  49.440  1.00  0.00     0.015 A 
HETATM   30  N   UNK A   0      22.728  50.131  49.828  1.00  0.00    -0.258 NA
HETATM   31  C   UNK A   0      21.830  51.099  50.104  1.00  0.00     0.117 A 
HETATM   32  C   UNK A   0      20.468  50.957  49.929  1.00  0.00     0.020 A 
ENDBRANCH   1  22
TORSDOF 6
ENDMDL
MODEL 8
REMARK VINA RESULT:      -9.4      2.324      3.766
REMARK  6 active torsions:
REMARK  status: ('A' for Active; 'I' for Inactive)
REMARK    1  A    between atoms: C_4  and  N_5 
REMARK       I    between atoms: N_5  and  C_6 
REMARK       I    between atoms: C_6  and  N_16 
REMARK    2  A    between atoms: N_16  and  CA_17 
REMARK    3  A    between atoms: CA_17  and  C_18 
REMARK    4  A    between atoms: CA_17  and  CB_20 
REMARK    5  A    between atoms: C_18  and  O_19 
REMARK    6  A    between atoms: CB_20  and  CG_21 
ROOT
HETATM    1  N   UNK A   0      25.511  44.307  53.412  1.00  0.00    -0.307 N 
HETATM    2  C   UNK A   0      24.981  44.332  52.164  1.00  0.00     0.321 C 
HETATM    3  O   UNK A   0      24.369  43.350  51.747  1.00  0.00    -0.247 OA
HETATM    4  H   UNK A   0      25.190  43.505  53.952  1.00  0.00     0.170 HD
ATOM      5  N   TRP A   1      25.122  45.469  51.433  1.00  0.00    -0.336 N 
ATOM      6  H   TRP A   1      25.141  46.324  51.973  1.00  0.00     0.164 HD
ENDROOT
BRANCH   5   7
ATOM      7  CA  TRP A   1      24.490  45.607  50.114  1.00  0.00     0.114 C 
BRANCH   7   8
ATOM      8  C   TRP A   1      25.288  44.785  49.089  1.00  0.00     0.189 C 
BRANCH   8   9
ATOM      9  O   TRP A   1      26.672  45.142  49.117  1.00  0.00    -0.399 OA
ATOM     10  H   TRP A   1      26.715  46.083  48.870  1.00  0.00     0.209 HD
ENDBRANCH   8   9
ENDBRANCH   7   8
BRANCH   7  11
ATOM     11  CB  TRP A   1      24.378  47.095  49.721  1.00  0.00     0.068 C 
BRANCH  11  12
ATOM     12  CG  TRP A   1      23.095  47.433  49.021  1.00  0.00    -0.028 A 
ATOM     13  CD2 TRP A   1      22.537  48.734  48.804  1.00  0.00    -0.002 A 
ATOM     14  CE2 TRP A   1      21.328  48.562  48.129  1.00  0.00     0.042 A 
ATOM     15  CE3 TRP A   1      22.947  50.045  49.124  1.00  0.00     0.014 A 
ATOM     16  CZ2 TRP A   1      20.506  49.634  47.759  1.00  0.00     0.030 A 
ATOM     17  NE1 TRP A   1      21.156  47.211  47.943  1.00  0.00    -0.365 N 
ATOM     18  CH2 TRP A   1      20.936  50.922  48.088  1.00  0.00     0.002 A 
ATOM     19  CZ3 TRP A   1      22.138  51.128  48.760  1.00  0.00     0.001 A 
ATOM     20  HE1 TRP A   1      20.357  46.791  47.488  1.00  0.00     0.165 HD
ATOM     21  CD1 TRP A   1      22.212  46.523  48.473  1.00  0.00     0.096 A 
ENDBRANCH  11  12
ENDBRANCH   7  11
ENDBRANCH   5   7
BRANCH   1  22
HETATM   22  C   UNK A   0      26.416  45.124  54.129  1.00  0.00     0.066 A 
HETATM   23  C   UNK A   0      26.161  46.455  54.481  1.00  0.00     0.038 A 
HETATM   24  C   UNK A   0      27.106  47.195  55.201  1.00  0.00    -0.059 A 
HETATM   25  C   UNK A   0      26.842  48.627  55.568  1.00  0.00     0.048 C 
HETATM   26  C   UNK A   0      28.330  46.604  55.522  1.00  0.00     0.020 A 
HETATM   27  C   UNK A   0      28.611  45.284  55.138  1.00  0.00    -0.005 A 
HETATM   28  C   UNK A   0      27.653  44.528  54.432  1.00  0.00     0.093 A 
HETATM   29  C   UNK A   0      29.844  44.685  55.434  1.00  0.00     0.015 A 
HETATM   30  N   UNK A   0      27.905  43.253  54.044  1.00  0.00    -0.258 NA
HETATM   31  C   UNK A   0      29.104  42.712  54.348  1.00  0.00     0.117 A 
HETATM   32  C   UNK A   0      30.097  43.380  55.034  1.00  0.00     0.020 A 
ENDBRANCH   1  22
TORSDOF 6
ENDMDL
MODEL 9
REMARK VINA RESULT:      -9.4      2.453      4.470
REMARK  6 active torsions:
REMARK  status: ('A' for Active; 'I' for Inactive)
REMARK    1  A    between atoms: C_4  and  N_5 
REMARK       I    between atoms: N_5  and  C_6 
REMARK       I    between atoms: C_6  and  N_16 
REMARK    2  A    between atoms: N_16  and  CA_17 
REMARK    3  A    between atoms: CA_17  and  C_18 
REMARK    4  A    between atoms: CA_17  and  CB_20 
REMARK    5  A    between atoms: C_18  and  O_19 
REMARK    6  A    between atoms: CB_20  and  CG_21 
ROOT
HETATM    1  N   UNK A   0      25.986  45.420  51.535  1.00  0.00    -0.307 N 
HETATM    2  C   UNK A   0      25.742  46.091  50.383  1.00  0.00     0.321 C 
HETATM    3  O   UNK A   0      25.410  45.466  49.376  1.00  0.00    -0.247 OA
HETATM    4  H   UNK A   0      25.696  44.444  51.482  1.00  0.00     0.170 HD
ATOM      5  N   TRP A   1      25.843  47.446  50.401  1.00  0.00    -0.336 N 
ATOM      6  H   TRP A   1      25.599  47.881  51.280  1.00  0.00     0.164 HD
ENDROOT
BRANCH   5   7
ATOM      7  CA  TRP A   1      25.497  48.249  49.219  1.00  0.00     0.114 C 
BRANCH   7   8
ATOM      8  C   TRP A   1      26.739  49.036  48.769  1.00  0.00     0.189 C 
BRANCH   8   9
ATOM      9  O   TRP A   1      26.434  49.871  47.649  1.00  0.00    -0.399 OA
ATOM     10  H   TRP A   1      25.529  49.639  47.375  1.00  0.00     0.209 HD
ENDBRANCH   8   9
ENDBRANCH   7   8
BRANCH   7  11
ATOM     11  CB  TRP A   1      24.293  49.165  49.521  1.00  0.00     0.068 C 
BRANCH  11  12
ATOM     12  CG  TRP A   1      23.056  48.798  48.757  1.00  0.00    -0.028 A 
ATOM     13  CD2 TRP A   1      21.931  49.635  48.465  1.00  0.00    -0.002 A 
ATOM     14  CE2 TRP A   1      21.013  48.865  47.750  1.00  0.00     0.042 A 
ATOM     15  CE3 TRP A   1      21.606  50.978  48.746  1.00  0.00     0.014 A 
ATOM     16  CZ2 TRP A   1      19.785  49.368  47.303  1.00  0.00     0.030 A 
ATOM     17  NE1 TRP A   1      21.557  47.609  47.613  1.00  0.00    -0.365 N 
ATOM     18  CH2 TRP A   1      19.488  50.702  47.595  1.00  0.00     0.002 A 
ATOM     19  CZ3 TRP A   1      20.384  51.498  48.306  1.00  0.00     0.001 A 
ATOM     20  HE1 TRP A   1      21.105  46.836  47.144  1.00  0.00     0.165 HD
ATOM     21  CD1 TRP A   1      22.784  47.558  48.213  1.00  0.00     0.096 A 
ENDBRANCH  11  12
ENDBRANCH   7  11
ENDBRANCH   5   7
BRANCH   1  22
HETATM   22  C   UNK A   0      26.562  45.753  52.783  1.00  0.00     0.066 A 
HETATM   23  C   UNK A   0      26.193  46.869  53.544  1.00  0.00     0.038 A 
HETATM   24  C   UNK A   0      26.805  47.125  54.777  1.00  0.00    -0.059 A 
HETATM   25  C   UNK A   0      26.422  48.328  55.588  1.00  0.00     0.048 C 
HETATM   26  C   UNK A   0      27.828  46.280  55.216  1.00  0.00     0.020 A 
HETATM   27  C   UNK A   0      28.234  45.184  54.440  1.00  0.00    -0.005 A 
HETATM   28  C   UNK A   0      27.603  44.909  53.209  1.00  0.00     0.093 A 
HETATM   29  C   UNK A   0      29.273  44.340  54.858  1.00  0.00     0.015 A 
HETATM   30  N   UNK A   0      27.984  43.859  52.440  1.00  0.00    -0.258 NA
HETATM   31  C   UNK A   0      28.989  43.070  52.876  1.00  0.00     0.117 A 
HETATM   32  C   UNK A   0      29.659  43.268  54.066  1.00  0.00     0.020 A 
ENDBRANCH   1  22
TORSDOF 6
ENDMDL
MODEL 10
REMARK VINA RESULT:      -9.2      2.224      3.713
REMARK  6 active torsions:
REMARK  status: ('A' for Active; 'I' for Inactive)
REMARK    1  A    between atoms: C_4  and  N_5 
REMARK       I    between atoms: N_5  and  C_6 
REMARK       I    between atoms: C_6  and  N_16 
REMARK    2  A    between atoms: N_16  and  CA_17 
REMARK    3  A    between atoms: CA_17  and  C_18 
REMARK    4  A    between atoms: CA_17  and  CB_20 
REMARK    5  A    between atoms: C_18  and  O_19 
REMARK    6  A    between atoms: CB_20  and  CG_21 
ROOT
HETATM    1  N   UNK A   0      25.738  44.612  52.151  1.00  0.00    -0.307 N 
HETATM    2  C   UNK A   0      25.327  45.317  51.070  1.00  0.00     0.321 C 
HETATM    3  O   UNK A   0      24.403  44.886  50.381  1.00  0.00    -0.247 OA
HETATM    4  H   UNK A   0      25.102  43.849  52.380  1.00  0.00     0.170 HD
ATOM      5  N   TRP A   1      25.937  46.504  50.811  1.00  0.00    -0.336 N 
ATOM      6  H   TRP A   1      26.259  47.006  51.628  1.00  0.00     0.164 HD
ENDROOT
BRANCH   5   7
ATOM      7  CA  TRP A   1      25.479  47.371  49.717  1.00  0.00     0.114 C 
BRANCH   7   8
ATOM      8  C   TRP A   1      26.646  48.264  49.265  1.00  0.00     0.189 C 
BRANCH   8   9
ATOM      9  O   TRP A   1      27.747  47.473  48.810  1.00  0.00    -0.399 OA
ATOM     10  H   TRP A   1      27.662  46.609  49.251  1.00  0.00     0.209 HD
ENDBRANCH   8   9
ENDBRANCH   7   8
BRANCH   7  11
ATOM     11  CB  TRP A   1      24.244  48.187  50.154  1.00  0.00     0.068 C 
BRANCH  11  12
ATOM     12  CG  TRP A   1      23.126  48.159  49.155  1.00  0.00    -0.028 A 
ATOM     13  CD2 TRP A   1      22.216  49.219  48.836  1.00  0.00    -0.002 A 
ATOM     14  CE2 TRP A   1      21.337  48.735  47.867  1.00  0.00     0.042 A 
ATOM     15  CE3 TRP A   1      22.057  50.546  49.285  1.00  0.00     0.014 A 
ATOM     16  CZ2 TRP A   1      20.304  49.509  47.325  1.00  0.00     0.030 A 
ATOM     17  NE1 TRP A   1      21.696  47.433  47.607  1.00  0.00    -0.365 N 
ATOM     18  CH2 TRP A   1      20.168  50.821  47.788  1.00  0.00     0.002 A 
ATOM     19  CZ3 TRP A   1      21.030  51.335  48.753  1.00  0.00     0.001 A 
ATOM     20  HE1 TRP A   1      21.223  46.828  46.950  1.00  0.00     0.165 HD
ATOM     21  CD1 TRP A   1      22.770  47.078  48.374  1.00  0.00     0.096 A 
ENDBRANCH  11  12
ENDBRANCH   7  11
ENDBRANCH   5   7
BRANCH   1  22
HETATM   22  C   UNK A   0      26.850  44.678  53.023  1.00  0.00     0.066 A 
HETATM   23  C   UNK A   0      27.842  43.692  53.105  1.00  0.00     0.038 A 
HETATM   24  C   UNK A   0      28.919  43.836  53.988  1.00  0.00    -0.059 A 
HETATM   25  C   UNK A   0      29.975  42.775  54.089  1.00  0.00     0.048 C 
HETATM   26  C   UNK A   0      28.967  44.955  54.823  1.00  0.00     0.020 A 
HETATM   27  C   UNK A   0      27.957  45.928  54.777  1.00  0.00    -0.005 A 
HETATM   28  C   UNK A   0      26.882  45.797  53.873  1.00  0.00     0.093 A 
HETATM   29  C   UNK A   0      27.981  47.045  55.625  1.00  0.00     0.015 A 
HETATM   30  N   UNK A   0      25.891  46.722  53.816  1.00  0.00    -0.258 NA
HETATM   31  C   UNK A   0      25.950  47.782  54.650  1.00  0.00     0.117 A 
HETATM   32  C   UNK A   0      26.963  47.987  55.563  1.00  0.00     0.020 A 
ENDBRANCH   1  22
TORSDOF 6
ENDMDL
