MODEL 1
REMARK VINA RESULT:      -8.9      0.000      0.000
REMARK  5 active torsions:
REMARK  status: ('A' for Active; 'I' for Inactive)
REMARK    1  A    between atoms: C_7  and  C_8 
REMARK       I    between atoms: C_8  and  N_9 
REMARK    2  A    between atoms: N_9  and  C_10 
REMARK    3  A    between atoms: C_10  and  C_11 
REMARK    4  A    between atoms: C_11  and  O_12 
REMARK    5  A    between atoms: C_11  and  C_13 
ROOT
HETATM    1  C   UNL     1      26.412  45.562  53.645  1.00  0.00     0.254 C 
HETATM    2  N   UNL     1      26.455  46.275  52.468  1.00  0.00    -0.354 N 
HETATM    3  O   UNL     1      25.515  45.716  54.470  1.00  0.00    -0.268 OA
HETATM    4  H   UNL     1      27.022  45.893  51.721  1.00  0.00     0.162 HD
ENDROOT
BRANCH   2   5
HETATM    5  C   UNL     1      25.330  47.098  52.050  1.00  0.00     0.159 C 
BRANCH   5   6
HETATM    6  C   UNL     1      24.845  46.756  50.628  1.00  0.00     0.175 C 
BRANCH   6   7
HETATM    7  O   UNL     1      25.518  45.568  50.184  1.00  0.00    -0.389 OA
HETATM    8  H   UNL     1      26.115  45.805  49.454  1.00  0.00     0.210 HD
ENDBRANCH   6   7
BRANCH   6   9
HETATM    9  C   UNL     1      24.976  47.926  49.681  1.00  0.00     0.049 A 
HETATM   10  C   UNL     1      23.820  48.538  49.186  1.00  0.00     0.128 A 
HETATM   11  F   UNL     1      22.617  48.055  49.527  1.00  0.00    -0.205 F 
HETATM   12  C   UNL     1      23.877  49.645  48.339  1.00  0.00     0.043 A 
HETATM   13  C   UNL     1      25.113  50.174  47.976  1.00  0.00     0.006 A 
HETATM   14  C   UNL     1      26.279  49.588  48.462  1.00  0.00     0.043 A 
HETATM   15  C   UNL     1      26.200  48.478  49.305  1.00  0.00     0.128 A 
HETATM   16  F   UNL     1      27.344  47.926  49.736  1.00  0.00    -0.205 F 
ENDBRANCH   6   9
ENDBRANCH   5   6
ENDBRANCH   2   5
BRANCH   1  17
HETATM   17  C   UNL     1      27.474  44.566  53.812  1.00  0.00     0.066 A 
HETATM   18  C   UNL     1      27.632  43.353  53.142  1.00  0.00     0.022 A 
HETATM   19  C   UNL     1      26.859  42.706  52.047  1.00  0.00     0.069 C 
HETATM   20  N   UNL     1      28.760  42.745  53.638  1.00  0.00    -0.358 N 
HETATM   21  H   UNL     1      29.119  41.850  53.336  1.00  0.00     0.166 HD
HETATM   22  C   UNL     1      29.370  43.536  54.579  1.00  0.00     0.043 A 
HETATM   23  C   UNL     1      28.597  44.688  54.705  1.00  0.00     0.008 A 
HETATM   24  C   UNL     1      30.541  43.319  55.316  1.00  0.00     0.030 A 
HETATM   25  C   UNL     1      29.020  45.674  55.622  1.00  0.00     0.015 A 
HETATM   26  C   UNL     1      30.189  45.477  56.367  1.00  0.00     0.001 A 
HETATM   27  C   UNL     1      30.937  44.313  56.215  1.00  0.00     0.002 A 
ENDBRANCH   1  17
TORSDOF 5
ENDMDL
MODEL 2
REMARK VINA RESULT:      -8.8      2.551      3.729
REMARK  5 active torsions:
REMARK  status: ('A' for Active; 'I' for Inactive)
REMARK    1  A    between atoms: C_7  and  C_8 
REMARK       I    between atoms: C_8  and  N_9 
REMARK    2  A    between atoms: N_9  and  C_10 
REMARK    3  A    between atoms: C_10  and  C_11 
REMARK    4  A    between atoms: C_11  and  O_12 
REMARK    5  A    between atoms: C_11  and  C_13 
ROOT
HETATM    1  C   UNL     1      28.886  43.721  53.575  1.00  0.00     0.254 C 
HETATM    2  N   UNL     1      27.617  43.197  53.468  1.00  0.00    -0.354 N 
HETATM    3  O   UNL     1      29.748  43.524  52.723  1.00  0.00    -0.268 OA
HETATM    4  H   UNL     1      26.891  43.635  54.020  1.00  0.00     0.162 HD
ENDROOT
BRANCH   2   5
HETATM    5  C   UNL     1      27.175  42.553  52.240  1.00  0.00     0.159 C 
BRANCH   5   6
HETATM    6  C   UNL     1      25.790  43.048  51.781  1.00  0.00     0.175 C 
BRANCH   6   7
HETATM    7  O   UNL     1      25.224  42.075  50.890  1.00  0.00    -0.389 OA
HETATM    8  H   UNL     1      24.256  42.099  50.979  1.00  0.00     0.210 HD
ENDBRANCH   6   7
BRANCH   6   9
HETATM    9  C   UNL     1      25.841  44.446  51.211  1.00  0.00     0.049 A 
HETATM   10  C   UNL     1      25.161  45.477  51.865  1.00  0.00     0.128 A 
HETATM   11  F   UNL     1      24.442  45.204  52.964  1.00  0.00    -0.205 F 
HETATM   12  C   UNL     1      25.202  46.795  51.408  1.00  0.00     0.043 A 
HETATM   13  C   UNL     1      25.948  47.110  50.276  1.00  0.00     0.006 A 
HETATM   14  C   UNL     1      26.643  46.102  49.610  1.00  0.00     0.043 A 
HETATM   15  C   UNL     1      26.585  44.790  50.082  1.00  0.00     0.128 A 
HETATM   16  F   UNL     1      27.247  43.842  49.403  1.00  0.00    -0.205 F 
ENDBRANCH   6   9
ENDBRANCH   5   6
ENDBRANCH   2   5
BRANCH   1  17
HETATM   17  C   UNL     1      29.111  44.580  54.741  1.00  0.00     0.066 A 
HETATM   18  C   UNL     1      28.459  45.766  55.078  1.00  0.00     0.022 A 
HETATM   19  C   UNL     1      27.334  46.505  54.443  1.00  0.00     0.069 C 
HETATM   20  N   UNL     1      29.013  46.230  56.247  1.00  0.00    -0.358 N 
HETATM   21  H   UNL     1      28.736  47.076  56.727  1.00  0.00     0.166 HD
HETATM   22  C   UNL     1      29.975  45.369  56.710  1.00  0.00     0.043 A 
HETATM   23  C   UNL     1      30.056  44.319  55.797  1.00  0.00     0.008 A 
HETATM   24  C   UNL     1      30.769  45.439  57.862  1.00  0.00     0.030 A 
HETATM   25  C   UNL     1      30.983  43.286  56.052  1.00  0.00     0.015 A 
HETATM   26  C   UNL     1      31.784  43.337  57.199  1.00  0.00     0.001 A 
HETATM   27  C   UNL     1      31.677  44.401  58.090  1.00  0.00     0.002 A 
ENDBRANCH   1  17
TORSDOF 5
ENDMDL
MODEL 3
REMARK VINA RESULT:      -8.7      1.734      2.693
REMARK  5 active torsions:
REMARK  status: ('A' for Active; 'I' for Inactive)
REMARK    1  A    between atoms: C_7  and  C_8 
REMARK       I    between atoms: C_8  and  N_9 
REMARK    2  A    between atoms: N_9  and  C_10 
REMARK    3  A    between atoms: C_10  and  C_11 
REMARK    4  A    between atoms: C_11  and  O_12 
REMARK    5  A    between atoms: C_11  and  C_13 
ROOT
HETATM    1  C   UNL     1      26.221  44.556  53.393  1.00  0.00     0.254 C 
HETATM    2  N   UNL     1      26.572  44.364  52.076  1.00  0.00    -0.354 N 
HETATM    3  O   UNL     1      25.157  44.149  53.852  1.00  0.00    -0.268 OA
HETATM    4  H   UNL     1      27.554  44.443  51.847  1.00  0.00     0.162 HD
ENDROOT
BRANCH   2   5
HETATM    5  C   UNL     1      25.790  43.491  51.213  1.00  0.00     0.159 C 
BRANCH   5   6
HETATM    6  C   UNL     1      25.742  43.991  49.756  1.00  0.00     0.175 C 
BRANCH   6   7
HETATM    7  O   UNL     1      26.882  43.473  49.053  1.00  0.00    -0.389 OA
HETATM    8  H   UNL     1      27.150  44.121  48.379  1.00  0.00     0.210 HD
ENDBRANCH   6   7
BRANCH   6   9
HETATM    9  C   UNL     1      25.598  45.493  49.671  1.00  0.00     0.049 A 
HETATM   10  C   UNL     1      24.322  46.061  49.720  1.00  0.00     0.128 A 
HETATM   11  F   UNL     1      23.245  45.266  49.803  1.00  0.00    -0.205 F 
HETATM   12  C   UNL     1      24.127  47.442  49.683  1.00  0.00     0.043 A 
HETATM   13  C   UNL     1      25.227  48.293  49.607  1.00  0.00     0.006 A 
HETATM   14  C   UNL     1      26.510  47.751  49.565  1.00  0.00     0.043 A 
HETATM   15  C   UNL     1      26.682  46.367  49.598  1.00  0.00     0.128 A 
HETATM   16  F   UNL     1      27.930  45.881  49.534  1.00  0.00    -0.205 F 
ENDBRANCH   6   9
ENDBRANCH   5   6
ENDBRANCH   2   5
BRANCH   1  17
HETATM   17  C   UNL     1      27.232  45.222  54.220  1.00  0.00     0.066 A 
HETATM   18  C   UNL     1      27.212  46.521  54.728  1.00  0.00     0.022 A 
HETATM   19  C   UNL     1      26.195  47.605  54.664  1.00  0.00     0.069 C 
HETATM   20  N   UNL     1      28.378  46.713  55.429  1.00  0.00    -0.358 N 
HETATM   21  H   UNL     1      28.636  47.566  55.907  1.00  0.00     0.166 HD
HETATM   22  C   UNL     1      29.142  45.573  55.434  1.00  0.00     0.043 A 
HETATM   23  C   UNL     1      28.449  44.617  54.695  1.00  0.00     0.008 A 
HETATM   24  C   UNL     1      30.380  45.320  56.038  1.00  0.00     0.030 A 
HETATM   25  C   UNL     1      29.032  43.338  54.552  1.00  0.00     0.015 A 
HETATM   26  C   UNL     1      30.268  43.065  55.149  1.00  0.00     0.001 A 
HETATM   27  C   UNL     1      30.931  44.046  55.882  1.00  0.00     0.002 A 
ENDBRANCH   1  17
TORSDOF 5
ENDMDL
MODEL 4
REMARK VINA RESULT:      -8.5      0.638      1.789
REMARK  5 active torsions:
REMARK  status: ('A' for Active; 'I' for Inactive)
REMARK    1  A    between atoms: C_7  and  C_8 
REMARK       I    between atoms: C_8  and  N_9 
REMARK    2  A    between atoms: N_9  and  C_10 
REMARK    3  A    between atoms: C_10  and  C_11 
REMARK    4  A    between atoms: C_11  and  O_12 
REMARK    5  A    between atoms: C_11  and  C_13 
ROOT
HETATM    1  C   UNL     1      26.103  44.824  53.065  1.00  0.00     0.254 C 
HETATM    2  N   UNL     1      26.336  46.008  52.402  1.00  0.00    -0.354 N 
HETATM    3  O   UNL     1      24.974  44.473  53.398  1.00  0.00    -0.268 OA
HETATM    4  H   UNL     1      27.211  46.088  51.899  1.00  0.00     0.162 HD
ENDROOT
BRANCH   2   5
HETATM    5  C   UNL     1      25.234  46.805  51.884  1.00  0.00     0.159 C 
BRANCH   5   6
HETATM    6  C   UNL     1      24.959  46.532  50.393  1.00  0.00     0.175 C 
BRANCH   6   7
HETATM    7  O   UNL     1      25.940  45.604  49.905  1.00  0.00    -0.389 OA
HETATM    8  H   UNL     1      25.479  44.845  49.510  1.00  0.00     0.210 HD
ENDBRANCH   6   7
BRANCH   6   9
HETATM    9  C   UNL     1      24.863  47.806  49.585  1.00  0.00     0.049 A 
HETATM   10  C   UNL     1      26.026  48.532  49.312  1.00  0.00     0.128 A 
HETATM   11  F   UNL     1      27.201  48.111  49.802  1.00  0.00    -0.205 F 
HETATM   12  C   UNL     1      26.005  49.695  48.541  1.00  0.00     0.043 A 
HETATM   13  C   UNL     1      24.800  50.151  48.012  1.00  0.00     0.006 A 
HETATM   14  C   UNL     1      23.629  49.440  48.262  1.00  0.00     0.043 A 
HETATM   15  C   UNL     1      23.671  48.282  49.040  1.00  0.00     0.128 A 
HETATM   16  F   UNL     1      22.521  47.636  49.279  1.00  0.00    -0.205 F 
ENDBRANCH   6   9
ENDBRANCH   5   6
ENDBRANCH   2   5
BRANCH   1  17
HETATM   17  C   UNL     1      27.286  43.987  53.285  1.00  0.00     0.066 A 
HETATM   18  C   UNL     1      27.638  42.803  52.637  1.00  0.00     0.022 A 
HETATM   19  C   UNL     1      27.007  42.047  51.522  1.00  0.00     0.069 C 
HETATM   20  N   UNL     1      28.819  42.363  53.184  1.00  0.00    -0.358 N 
HETATM   21  H   UNL     1      29.312  41.524  52.907  1.00  0.00     0.166 HD
HETATM   22  C   UNL     1      29.275  43.238  54.137  1.00  0.00     0.043 A 
HETATM   23  C   UNL     1      28.345  44.272  54.219  1.00  0.00     0.008 A 
HETATM   24  C   UNL     1      30.435  43.192  54.921  1.00  0.00     0.030 A 
HETATM   25  C   UNL     1      28.590  45.314  55.139  1.00  0.00     0.015 A 
HETATM   26  C   UNL     1      29.744  45.288  55.930  1.00  0.00     0.001 A 
HETATM   27  C   UNL     1      30.653  44.239  55.821  1.00  0.00     0.002 A 
ENDBRANCH   1  17
TORSDOF 5
ENDMDL
MODEL 5
REMARK VINA RESULT:      -8.5      2.447      7.565
REMARK  5 active torsions:
REMARK  status: ('A' for Active; 'I' for Inactive)
REMARK    1  A    between atoms: C_7  and  C_8 
REMARK       I    between atoms: C_8  and  N_9 
REMARK    2  A    between atoms: N_9  and  C_10 
REMARK    3  A    between atoms: C_10  and  C_11 
REMARK    4  A    between atoms: C_11  and  O_12 
REMARK    5  A    between atoms: C_11  and  C_13 
ROOT
HETATM    1  C   UNL     1      26.773  45.216  50.410  1.00  0.00     0.254 C 
HETATM    2  N   UNL     1      26.841  44.811  51.725  1.00  0.00    -0.354 N 
HETATM    3  O   UNL     1      27.635  44.916  49.589  1.00  0.00    -0.268 OA
HETATM    4  H   UNL     1      25.979  44.825  52.254  1.00  0.00     0.162 HD
ENDROOT
BRANCH   2   5
HETATM    5  C   UNL     1      27.833  43.838  52.158  1.00  0.00     0.159 C 
BRANCH   5   6
HETATM    6  C   UNL     1      27.630  43.401  53.621  1.00  0.00     0.175 C 
BRANCH   6   7
HETATM    7  O   UNL     1      26.228  43.442  53.924  1.00  0.00    -0.389 OA
HETATM    8  H   UNL     1      25.887  44.323  53.693  1.00  0.00     0.210 HD
ENDBRANCH   6   7
BRANCH   6   9
HETATM    9  C   UNL     1      28.490  44.190  54.580  1.00  0.00     0.049 A 
HETATM   10  C   UNL     1      29.730  43.676  54.969  1.00  0.00     0.128 A 
HETATM   11  F   UNL     1      30.120  42.475  54.519  1.00  0.00    -0.205 F 
HETATM   12  C   UNL     1      30.584  44.376  55.822  1.00  0.00     0.043 A 
HETATM   13  C   UNL     1      30.209  45.630  56.298  1.00  0.00     0.006 A 
HETATM   14  C   UNL     1      28.982  46.169  55.918  1.00  0.00     0.043 A 
HETATM   15  C   UNL     1      28.141  45.450  55.067  1.00  0.00     0.128 A 
HETATM   16  F   UNL     1      26.957  45.989  54.740  1.00  0.00    -0.205 F 
ENDBRANCH   6   9
ENDBRANCH   5   6
ENDBRANCH   2   5
BRANCH   1  17
HETATM   17  C   UNL     1      25.570  45.971  50.050  1.00  0.00     0.066 A 
HETATM   18  C   UNL     1      24.240  45.556  50.113  1.00  0.00     0.022 A 
HETATM   19  C   UNL     1      23.605  44.299  50.592  1.00  0.00     0.069 C 
HETATM   20  N   UNL     1      23.458  46.592  49.660  1.00  0.00    -0.358 N 
HETATM   21  H   UNL     1      22.449  46.573  49.594  1.00  0.00     0.166 HD
HETATM   22  C   UNL     1      24.224  47.684  49.343  1.00  0.00     0.043 A 
HETATM   23  C   UNL     1      25.551  47.334  49.585  1.00  0.00     0.008 A 
HETATM   24  C   UNL     1      23.843  48.946  48.869  1.00  0.00     0.030 A 
HETATM   25  C   UNL     1      26.549  48.301  49.335  1.00  0.00     0.015 A 
HETATM   26  C   UNL     1      26.188  49.568  48.863  1.00  0.00     0.001 A 
HETATM   27  C   UNL     1      24.852  49.884  48.633  1.00  0.00     0.002 A 
ENDBRANCH   1  17
TORSDOF 5
ENDMDL
MODEL 6
REMARK VINA RESULT:      -8.5      4.326      6.263
REMARK  5 active torsions:
REMARK  status: ('A' for Active; 'I' for Inactive)
REMARK    1  A    between atoms: C_7  and  C_8 
REMARK       I    between atoms: C_8  and  N_9 
REMARK    2  A    between atoms: N_9  and  C_10 
REMARK    3  A    between atoms: C_10  and  C_11 
REMARK    4  A    between atoms: C_11  and  O_12 
REMARK    5  A    between atoms: C_11  and  C_13 
ROOT
HETATM    1  C   UNL     1      29.627  42.957  53.377  1.00  0.00     0.254 C 
HETATM    2  N   UNL     1      28.700  41.948  53.234  1.00  0.00    -0.354 N 
HETATM    3  O   UNL     1      30.628  43.029  52.670  1.00  0.00    -0.268 OA
HETATM    4  H   UNL     1      27.779  42.114  53.619  1.00  0.00     0.162 HD
ENDROOT
BRANCH   2   5
HETATM    5  C   UNL     1      28.759  41.032  52.105  1.00  0.00     0.159 C 
BRANCH   5   6
HETATM    6  C   UNL     1      27.500  41.108  51.220  1.00  0.00     0.175 C 
BRANCH   6   7
HETATM    7  O   UNL     1      26.421  40.444  51.894  1.00  0.00    -0.389 OA
HETATM    8  H   UNL     1      26.439  40.699  52.832  1.00  0.00     0.210 HD
ENDBRANCH   6   7
BRANCH   6   9
HETATM    9  C   UNL     1      27.755  40.602  49.819  1.00  0.00     0.049 A 
HETATM   10  C   UNL     1      27.432  41.414  48.728  1.00  0.00     0.128 A 
HETATM   11  F   UNL     1      26.866  42.612  48.939  1.00  0.00    -0.205 F 
HETATM   12  C   UNL     1      27.678  41.016  47.414  1.00  0.00     0.043 A 
HETATM   13  C   UNL     1      28.272  39.782  47.165  1.00  0.00     0.006 A 
HETATM   14  C   UNL     1      28.612  38.957  48.236  1.00  0.00     0.043 A 
HETATM   15  C   UNL     1      28.353  39.372  49.543  1.00  0.00     0.128 A 
HETATM   16  F   UNL     1      28.673  38.543  50.547  1.00  0.00    -0.205 F 
ENDBRANCH   6   9
ENDBRANCH   5   6
ENDBRANCH   2   5
BRANCH   1  17
HETATM   17  C   UNL     1      29.299  43.970  54.384  1.00  0.00     0.066 A 
HETATM   18  C   UNL     1      28.261  44.902  54.364  1.00  0.00     0.022 A 
HETATM   19  C   UNL     1      27.153  45.146  53.402  1.00  0.00     0.069 C 
HETATM   20  N   UNL     1      28.354  45.655  55.510  1.00  0.00    -0.358 N 
HETATM   21  H   UNL     1      27.730  46.409  55.763  1.00  0.00     0.166 HD
HETATM   22  C   UNL     1      29.389  45.222  56.299  1.00  0.00     0.043 A 
HETATM   23  C   UNL     1      29.996  44.162  55.630  1.00  0.00     0.008 A 
HETATM   24  C   UNL     1      29.825  45.685  57.548  1.00  0.00     0.030 A 
HETATM   25  C   UNL     1      31.101  43.533  56.244  1.00  0.00     0.015 A 
HETATM   26  C   UNL     1      31.551  43.980  57.492  1.00  0.00     0.001 A 
HETATM   27  C   UNL     1      30.920  45.042  58.133  1.00  0.00     0.002 A 
ENDBRANCH   1  17
TORSDOF 5
ENDMDL
MODEL 7
REMARK VINA RESULT:      -8.4      3.104      4.672
REMARK  5 active torsions:
REMARK  status: ('A' for Active; 'I' for Inactive)
REMARK    1  A    between atoms: C_7  and  C_8 
REMARK       I    between atoms: C_8  and  N_9 
REMARK    2  A    between atoms: N_9  and  C_10 
REMARK    3  A    between atoms: C_10  and  C_11 
REMARK    4  A    between atoms: C_11  and  O_12 
REMARK    5  A    between atoms: C_11  and  C_13 
ROOT
HETATM    1  C   UNL     1      25.816  45.127  53.664  1.00  0.00     0.254 C 
HETATM    2  N   UNL     1      25.651  45.746  52.445  1.00  0.00    -0.354 N 
HETATM    3  O   UNL     1      25.062  44.240  54.054  1.00  0.00    -0.268 OA
HETATM    4  H   UNL     1      26.456  46.227  52.063  1.00  0.00     0.162 HD
ENDROOT
BRANCH   2   5
HETATM    5  C   UNL     1      24.697  45.239  51.471  1.00  0.00     0.159 C 
BRANCH   5   6
HETATM    6  C   UNL     1      25.383  44.653  50.223  1.00  0.00     0.175 C 
BRANCH   6   7
HETATM    7  O   UNL     1      24.445  44.656  49.136  1.00  0.00    -0.389 OA
HETATM    8  H   UNL     1      24.875  45.046  48.356  1.00  0.00     0.210 HD
ENDBRANCH   6   7
BRANCH   6   9
HETATM    9  C   UNL     1      26.007  43.304  50.492  1.00  0.00     0.049 A 
HETATM   10  C   UNL     1      25.236  42.149  50.332  1.00  0.00     0.128 A 
HETATM   11  F   UNL     1      23.946  42.257  49.981  1.00  0.00    -0.205 F 
HETATM   12  C   UNL     1      25.767  40.874  50.530  1.00  0.00     0.043 A 
HETATM   13  C   UNL     1      27.106  40.731  50.886  1.00  0.00     0.006 A 
HETATM   14  C   UNL     1      27.898  41.866  51.043  1.00  0.00     0.043 A 
HETATM   15  C   UNL     1      27.346  43.133  50.845  1.00  0.00     0.128 A 
HETATM   16  F   UNL     1      28.132  44.203  51.026  1.00  0.00    -0.205 F 
ENDBRANCH   6   9
ENDBRANCH   5   6
ENDBRANCH   2   5
BRANCH   1  17
HETATM   17  C   UNL     1      26.990  45.556  54.430  1.00  0.00     0.066 A 
HETATM   18  C   UNL     1      27.207  46.782  55.061  1.00  0.00     0.022 A 
HETATM   19  C   UNL     1      26.355  47.991  55.218  1.00  0.00     0.069 C 
HETATM   20  N   UNL     1      28.452  46.738  55.640  1.00  0.00    -0.358 N 
HETATM   21  H   UNL     1      28.876  47.490  56.166  1.00  0.00     0.166 HD
HETATM   22  C   UNL     1      29.041  45.514  55.448  1.00  0.00     0.043 A 
HETATM   23  C   UNL     1      28.148  44.746  54.703  1.00  0.00     0.008 A 
HETATM   24  C   UNL     1      30.284  45.033  55.881  1.00  0.00     0.030 A 
HETATM   25  C   UNL     1      28.524  43.426  54.372  1.00  0.00     0.015 A 
HETATM   26  C   UNL     1      29.761  42.926  54.795  1.00  0.00     0.001 A 
HETATM   27  C   UNL     1      30.628  43.722  55.539  1.00  0.00     0.002 A 
ENDBRANCH   1  17
TORSDOF 5
ENDMDL
MODEL 8
REMARK VINA RESULT:      -8.2      3.822      5.764
REMARK  5 active torsions:
REMARK  status: ('A' for Active; 'I' for Inactive)
REMARK    1  A    between atoms: C_7  and  C_8 
REMARK       I    between atoms: C_8  and  N_9 
REMARK    2  A    between atoms: N_9  and  C_10 
REMARK    3  A    between atoms: C_10  and  C_11 
REMARK    4  A    between atoms: C_11  and  O_12 
REMARK    5  A    between atoms: C_11  and  C_13 
ROOT
HETATM    1  C   UNL     1      27.002  43.806  51.609  1.00  0.00     0.254 C 
HETATM    2  N   UNL     1      26.044  42.835  51.800  1.00  0.00    -0.354 N 
HETATM    3  O   UNL     1      27.401  44.120  50.491  1.00  0.00    -0.268 OA
HETATM    4  H   UNL     1      25.553  42.844  52.685  1.00  0.00     0.162 HD
ENDROOT
BRANCH   2   5
HETATM    5  C   UNL     1      25.310  42.277  50.675  1.00  0.00     0.159 C 
BRANCH   5   6
HETATM    6  C   UNL     1      25.665  40.800  50.414  1.00  0.00     0.175 C 
BRANCH   6   7
HETATM    7  O   UNL     1      26.261  40.253  51.599  1.00  0.00    -0.389 OA
HETATM    8  H   UNL     1      25.928  40.746  52.369  1.00  0.00     0.210 HD
ENDBRANCH   6   7
BRANCH   6   9
HETATM    9  C   UNL     1      26.500  40.623  49.168  1.00  0.00     0.049 A 
HETATM   10  C   UNL     1      25.867  40.333  47.955  1.00  0.00     0.128 A 
HETATM   11  F   UNL     1      24.536  40.178  47.923  1.00  0.00    -0.205 F 
HETATM   12  C   UNL     1      26.582  40.195  46.765  1.00  0.00     0.043 A 
HETATM   13  C   UNL     1      27.964  40.360  46.766  1.00  0.00     0.006 A 
HETATM   14  C   UNL     1      28.618  40.659  47.960  1.00  0.00     0.043 A 
HETATM   15  C   UNL     1      27.885  40.788  49.140  1.00  0.00     0.128 A 
HETATM   16  F   UNL     1      28.550  41.053  50.274  1.00  0.00    -0.205 F 
ENDBRANCH   6   9
ENDBRANCH   5   6
ENDBRANCH   2   5
BRANCH   1  17
HETATM   17  C   UNL     1      27.462  44.479  52.828  1.00  0.00     0.066 A 
HETATM   18  C   UNL     1      26.902  45.587  53.465  1.00  0.00     0.022 A 
HETATM   19  C   UNL     1      25.684  46.393  53.184  1.00  0.00     0.069 C 
HETATM   20  N   UNL     1      27.680  45.875  54.560  1.00  0.00    -0.358 N 
HETATM   21  H   UNL     1      27.512  46.632  55.210  1.00  0.00     0.166 HD
HETATM   22  C   UNL     1      28.704  44.972  54.688  1.00  0.00     0.043 A 
HETATM   23  C   UNL     1      28.591  44.077  53.626  1.00  0.00     0.008 A 
HETATM   24  C   UNL     1      29.708  44.879  55.660  1.00  0.00     0.030 A 
HETATM   25  C   UNL     1      29.539  43.035  53.532  1.00  0.00     0.015 A 
HETATM   26  C   UNL     1      30.549  42.924  54.494  1.00  0.00     0.001 A 
HETATM   27  C   UNL     1      30.631  43.835  55.543  1.00  0.00     0.002 A 
ENDBRANCH   1  17
TORSDOF 5
ENDMDL
MODEL 9
REMARK VINA RESULT:      -8.1      2.715      4.164
REMARK  5 active torsions:
REMARK  status: ('A' for Active; 'I' for Inactive)
REMARK    1  A    between atoms: C_7  and  C_8 
REMARK       I    between atoms: C_8  and  N_9 
REMARK    2  A    between atoms: N_9  and  C_10 
REMARK    3  A    between atoms: C_10  and  C_11 
REMARK    4  A    between atoms: C_11  and  O_12 
REMARK    5  A    between atoms: C_11  and  C_13 
ROOT
HETATM    1  C   UNL     1      27.876  42.959  53.210  1.00  0.00     0.254 C 
HETATM    2  N   UNL     1      27.727  43.249  51.872  1.00  0.00    -0.354 N 
HETATM    3  O   UNL     1      27.753  41.818  53.649  1.00  0.00    -0.268 OA
HETATM    4  H   UNL     1      28.133  44.116  51.543  1.00  0.00     0.162 HD
ENDROOT
BRANCH   2   5
HETATM    5  C   UNL     1      27.619  42.187  50.884  1.00  0.00     0.159 C 
BRANCH   5   6
HETATM    6  C   UNL     1      26.634  42.534  49.751  1.00  0.00     0.175 C 
BRANCH   6   7
HETATM    7  O   UNL     1      27.331  42.470  48.498  1.00  0.00    -0.389 OA
HETATM    8  H   UNL     1      27.268  41.562  48.155  1.00  0.00     0.210 HD
ENDBRANCH   6   7
BRANCH   6   9
HETATM    9  C   UNL     1      25.923  43.845  49.992  1.00  0.00     0.049 A 
HETATM   10  C   UNL     1      24.602  43.834  50.449  1.00  0.00     0.128 A 
HETATM   11  F   UNL     1      23.974  42.662  50.629  1.00  0.00    -0.205 F 
HETATM   12  C   UNL     1      23.906  45.011  50.726  1.00  0.00     0.043 A 
HETATM   13  C   UNL     1      24.536  46.241  50.557  1.00  0.00     0.006 A 
HETATM   14  C   UNL     1      25.855  46.280  50.111  1.00  0.00     0.043 A 
HETATM   15  C   UNL     1      26.532  45.091  49.836  1.00  0.00     0.128 A 
HETATM   16  F   UNL     1      27.793  45.167  49.387  1.00  0.00    -0.205 F 
ENDBRANCH   6   9
ENDBRANCH   5   6
ENDBRANCH   2   5
BRANCH   1  17
HETATM   17  C   UNL     1      28.253  44.093  54.058  1.00  0.00     0.066 A 
HETATM   18  C   UNL     1      29.386  44.232  54.860  1.00  0.00     0.022 A 
HETATM   19  C   UNL     1      30.568  43.356  55.082  1.00  0.00     0.069 C 
HETATM   20  N   UNL     1      29.308  45.454  55.485  1.00  0.00    -0.358 N 
HETATM   21  H   UNL     1      29.995  45.822  56.129  1.00  0.00     0.166 HD
HETATM   22  C   UNL     1      28.187  46.138  55.088  1.00  0.00     0.043 A 
HETATM   23  C   UNL     1      27.509  45.320  54.187  1.00  0.00     0.008 A 
HETATM   24  C   UNL     1      27.732  47.411  55.454  1.00  0.00     0.030 A 
HETATM   25  C   UNL     1      26.308  45.804  53.625  1.00  0.00     0.015 A 
HETATM   26  C   UNL     1      25.837  47.074  53.976  1.00  0.00     0.001 A 
HETATM   27  C   UNL     1      26.541  47.865  54.880  1.00  0.00     0.002 A 
ENDBRANCH   1  17
TORSDOF 5
ENDMDL
MODEL 10
REMARK VINA RESULT:      -8.0      5.124      8.514
REMARK  5 active torsions:
REMARK  status: ('A' for Active; 'I' for Inactive)
REMARK    1  A    between atoms: C_7  and  C_8 
REMARK       I    between atoms: C_8  and  N_9 
REMARK    2  A    between atoms: N_9  and  C_10 
REMARK    3  A    between atoms: C_10  and  C_11 
REMARK    4  A    between atoms: C_11  and  O_12 
REMARK    5  A    between atoms: C_11  and  C_13 
ROOT
HETATM    1  C   UNL     1      27.818  40.138  50.491  1.00  0.00     0.254 C 
HETATM    2  N   UNL     1      28.789  40.931  51.060  1.00  0.00    -0.354 N 
HETATM    3  O   UNL     1      26.628  40.263  50.765  1.00  0.00    -0.268 OA
HETATM    4  H   UNL     1      29.677  40.985  50.577  1.00  0.00     0.162 HD
ENDROOT
BRANCH   2   5
HETATM    5  C   UNL     1      28.433  42.092  51.861  1.00  0.00     0.159 C 
BRANCH   5   6
HETATM    6  C   UNL     1      28.546  41.822  53.373  1.00  0.00     0.175 C 
BRANCH   6   7
HETATM    7  O   UNL     1      27.519  40.894  53.754  1.00  0.00    -0.389 OA
HETATM    8  H   UNL     1      27.602  40.714  54.706  1.00  0.00     0.210 HD
ENDBRANCH   6   7
BRANCH   6   9
HETATM    9  C   UNL     1      28.552  43.097  54.184  1.00  0.00     0.049 A 
HETATM   10  C   UNL     1      29.749  43.537  54.757  1.00  0.00     0.128 A 
HETATM   11  F   UNL     1      30.862  42.803  54.613  1.00  0.00    -0.205 F 
HETATM   12  C   UNL     1      29.825  44.726  55.484  1.00  0.00     0.043 A 
HETATM   13  C   UNL     1      28.688  45.513  55.642  1.00  0.00     0.006 A 
HETATM   14  C   UNL     1      27.485  45.101  55.073  1.00  0.00     0.043 A 
HETATM   15  C   UNL     1      27.429  43.906  54.353  1.00  0.00     0.128 A 
HETATM   16  F   UNL     1      26.249  43.530  53.839  1.00  0.00    -0.205 F 
ENDBRANCH   6   9
ENDBRANCH   5   6
ENDBRANCH   2   5
BRANCH   1  17
HETATM   17  C   UNL     1      28.299  39.180  49.490  1.00  0.00     0.066 A 
HETATM   18  C   UNL     1      29.165  38.102  49.674  1.00  0.00     0.022 A 
HETATM   19  C   UNL     1      29.821  37.541  50.885  1.00  0.00     0.069 C 
HETATM   20  N   UNL     1      29.344  37.498  48.453  1.00  0.00    -0.358 N 
HETATM   21  H   UNL     1      29.925  36.688  48.284  1.00  0.00     0.166 HD
HETATM   22  C   UNL     1      28.595  38.116  47.484  1.00  0.00     0.043 A 
HETATM   23  C   UNL     1      27.920  39.167  48.101  1.00  0.00     0.008 A 
HETATM   24  C   UNL     1      28.463  37.820  46.121  1.00  0.00     0.030 A 
HETATM   25  C   UNL     1      27.068  39.966  47.307  1.00  0.00     0.015 A 
HETATM   26  C   UNL     1      26.921  39.686  45.944  1.00  0.00     0.001 A 
HETATM   27  C   UNL     1      27.611  38.626  45.361  1.00  0.00     0.002 A 
ENDBRANCH   1  17
TORSDOF 5
ENDMDL
