MODEL 1
REMARK VINA RESULT:      -8.6      0.000      0.000
REMARK  3 active torsions:
REMARK  status: ('A' for Active; 'I' for Inactive)
REMARK    1  A    between atoms: C_5  and  N_6 
REMARK       I    between atoms: N_6  and  C_7 
REMARK    2  A    between atoms: C_7  and  C_8 
REMARK    3  A    between atoms: C_8  and  C_9 
ROOT
HETATM    1  C   UNL     1      26.355  44.028  51.729  1.00  0.00     0.286 C 
HETATM    2  N   UNL     1      27.390  43.030  51.209  1.00  0.00    -0.056 N 
HETATM    3  H   UNL     1      27.561  43.246  50.220  1.00  0.00     0.278 HD
HETATM    4  H   UNL     1      28.291  43.249  51.682  1.00  0.00     0.278 HD
HETATM    5  C   UNL     1      26.998  41.588  51.386  1.00  0.00     0.209 C 
HETATM    6  C   UNL     1      25.658  41.358  50.643  1.00  0.00     0.115 C 
HETATM    7  N   UNL     1      24.650  42.344  51.033  1.00  0.00    -0.353 N 
HETATM    8  C   UNL     1      24.911  43.651  51.358  1.00  0.00     0.249 C 
HETATM    9  O   UNL     1      23.991  44.460  51.431  1.00  0.00    -0.271 OA
HETATM   10  C   UNL     1      28.119  40.687  50.874  1.00  0.00     0.035 C 
HETATM   11  C   UNL     1      28.261  40.700  49.355  1.00  0.00     0.002 C 
HETATM   12  C   UNL     1      26.933  40.409  48.664  1.00  0.00     0.002 C 
HETATM   13  C   UNL     1      25.835  41.367  49.117  1.00  0.00     0.027 C 
HETATM   14  H   UNL     1      23.675  42.165  50.796  1.00  0.00     0.163 HD
ENDROOT
BRANCH   1  15
HETATM   15  C   UNL     1      26.453  44.209  53.254  1.00  0.00     0.146 C 
BRANCH  15  16
HETATM   16  C   UNL     1      26.817  45.627  53.599  1.00  0.00     0.224 C 
HETATM   17  N   UNL     1      27.833  45.943  54.440  1.00  0.00    -0.327 N 
HETATM   18  H   UNL     1      27.855  46.940  54.641  1.00  0.00     0.169 HD
HETATM   19  O   UNL     1      26.176  46.546  53.070  1.00  0.00    -0.273 OA
BRANCH  17  20
HETATM   20  C   UNL     1      28.856  45.200  55.060  1.00  0.00     0.034 A 
HETATM   21  C   UNL     1      29.407  44.014  54.578  1.00  0.00     0.030 A 
HETATM   22  C   UNL     1      30.455  43.384  55.264  1.00  0.00     0.009 A 
HETATM   23  C   UNL     1      30.966  43.923  56.447  1.00  0.00    -0.062 A 
HETATM   24  C   UNL     1      32.119  43.273  57.152  1.00  0.00     0.048 C 
HETATM   25  C   UNL     1      30.429  45.120  56.923  1.00  0.00     0.009 A 
HETATM   26  C   UNL     1      29.387  45.749  56.236  1.00  0.00     0.030 A 
ENDBRANCH  17  20
ENDBRANCH  15  16
ENDBRANCH   1  15
TORSDOF 3
ENDMDL
MODEL 2
REMARK VINA RESULT:      -8.6      2.866      3.767
REMARK  3 active torsions:
REMARK  status: ('A' for Active; 'I' for Inactive)
REMARK    1  A    between atoms: C_5  and  N_6 
REMARK       I    between atoms: N_6  and  C_7 
REMARK    2  A    between atoms: C_7  and  C_8 
REMARK    3  A    between atoms: C_8  and  C_9 
ROOT
HETATM    1  C   UNL     1      25.867  46.535  53.687  1.00  0.00     0.286 C 
HETATM    2  N   UNL     1      25.389  47.165  52.379  1.00  0.00    -0.056 N 
HETATM    3  H   UNL     1      24.366  47.085  52.350  1.00  0.00     0.278 HD
HETATM    4  H   UNL     1      25.566  48.189  52.449  1.00  0.00     0.278 HD
HETATM    5  C   UNL     1      26.011  46.570  51.144  1.00  0.00     0.209 C 
HETATM    6  C   UNL     1      25.686  45.056  51.123  1.00  0.00     0.115 C 
HETATM    7  N   UNL     1      26.038  44.411  52.388  1.00  0.00    -0.353 N 
HETATM    8  C   UNL     1      25.952  45.001  53.624  1.00  0.00     0.249 C 
HETATM    9  O   UNL     1      26.031  44.314  54.637  1.00  0.00    -0.271 OA
HETATM   10  C   UNL     1      25.496  47.303  49.908  1.00  0.00     0.035 C 
HETATM   11  C   UNL     1      24.033  47.004  49.592  1.00  0.00     0.002 C 
HETATM   12  C   UNL     1      23.770  45.504  49.519  1.00  0.00     0.002 C 
HETATM   13  C   UNL     1      24.209  44.787  50.793  1.00  0.00     0.027 C 
HETATM   14  H   UNL     1      26.090  43.394  52.419  1.00  0.00     0.163 HD
ENDROOT
BRANCH   1  15
HETATM   15  C   UNL     1      27.230  47.098  54.126  1.00  0.00     0.146 C 
BRANCH  15  16
HETATM   16  C   UNL     1      27.164  47.605  55.542  1.00  0.00     0.224 C 
HETATM   17  N   UNL     1      27.871  47.048  56.556  1.00  0.00    -0.327 N 
HETATM   18  H   UNL     1      27.612  47.449  57.455  1.00  0.00     0.169 HD
HETATM   19  O   UNL     1      26.452  48.590  55.783  1.00  0.00    -0.273 OA
BRANCH  17  20
HETATM   20  C   UNL     1      28.882  46.071  56.623  1.00  0.00     0.034 A 
HETATM   21  C   UNL     1      29.285  45.244  55.575  1.00  0.00     0.030 A 
HETATM   22  C   UNL     1      30.337  44.334  55.750  1.00  0.00     0.009 A 
HETATM   23  C   UNL     1      31.000  44.228  56.975  1.00  0.00    -0.062 A 
HETATM   24  C   UNL     1      32.156  43.288  57.143  1.00  0.00     0.048 C 
HETATM   25  C   UNL     1      30.611  45.067  58.020  1.00  0.00     0.009 A 
HETATM   26  C   UNL     1      29.565  45.977  57.844  1.00  0.00     0.030 A 
ENDBRANCH  17  20
ENDBRANCH  15  16
ENDBRANCH   1  15
TORSDOF 3
ENDMDL
MODEL 3
REMARK VINA RESULT:      -8.5      1.621      2.109
REMARK  3 active torsions:
REMARK  status: ('A' for Active; 'I' for Inactive)
REMARK    1  A    between atoms: C_5  and  N_6 
REMARK       I    between atoms: N_6  and  C_7 
REMARK    2  A    between atoms: C_7  and  C_8 
REMARK    3  A    between atoms: C_8  and  C_9 
ROOT
HETATM    1  C   UNL     1      26.649  45.900  52.885  1.00  0.00     0.286 C 
HETATM    2  N   UNL     1      27.192  44.548  52.422  1.00  0.00    -0.056 N 
HETATM    3  H   UNL     1      27.794  44.716  51.607  1.00  0.00     0.278 HD
HETATM    4  H   UNL     1      27.845  44.211  53.160  1.00  0.00     0.278 HD
HETATM    5  C   UNL     1      26.128  43.531  52.105  1.00  0.00     0.209 C 
HETATM    6  C   UNL     1      25.219  44.116  50.996  1.00  0.00     0.115 C 
HETATM    7  N   UNL     1      24.739  45.454  51.342  1.00  0.00    -0.353 N 
HETATM    8  C   UNL     1      25.450  46.387  52.053  1.00  0.00     0.249 C 
HETATM    9  O   UNL     1      25.072  47.553  52.083  1.00  0.00    -0.271 OA
HETATM   10  C   UNL     1      26.785  42.214  51.699  1.00  0.00     0.035 C 
HETATM   11  C   UNL     1      27.461  42.271  50.332  1.00  0.00     0.002 C 
HETATM   12  C   UNL     1      26.513  42.793  49.258  1.00  0.00     0.002 C 
HETATM   13  C   UNL     1      25.924  44.151  49.630  1.00  0.00     0.027 C 
HETATM   14  H   UNL     1      23.961  45.844  50.812  1.00  0.00     0.163 HD
ENDROOT
BRANCH   1  15
HETATM   15  C   UNL     1      26.255  45.877  54.372  1.00  0.00     0.146 C 
BRANCH  15  16
HETATM   16  C   UNL     1      26.823  47.071  55.091  1.00  0.00     0.224 C 
HETATM   17  N   UNL     1      27.930  47.002  55.870  1.00  0.00    -0.327 N 
HETATM   18  H   UNL     1      28.095  47.878  56.362  1.00  0.00     0.169 HD
HETATM   19  O   UNL     1      26.268  48.169  54.941  1.00  0.00    -0.273 OA
BRANCH  17  20
HETATM   20  C   UNL     1      28.891  46.004  56.119  1.00  0.00     0.034 A 
HETATM   21  C   UNL     1      29.328  45.049  55.202  1.00  0.00     0.030 A 
HETATM   22  C   UNL     1      30.325  44.129  55.553  1.00  0.00     0.009 A 
HETATM   23  C   UNL     1      30.899  44.141  56.827  1.00  0.00    -0.062 A 
HETATM   24  C   UNL     1      32.000  43.186  57.181  1.00  0.00     0.048 C 
HETATM   25  C   UNL     1      30.478  45.107  57.740  1.00  0.00     0.009 A 
HETATM   26  C   UNL     1      29.486  46.027  57.388  1.00  0.00     0.030 A 
ENDBRANCH  17  20
ENDBRANCH  15  16
ENDBRANCH   1  15
TORSDOF 3
ENDMDL
MODEL 4
REMARK VINA RESULT:      -8.2      5.716      8.906
REMARK  3 active torsions:
REMARK  status: ('A' for Active; 'I' for Inactive)
REMARK    1  A    between atoms: C_5  and  N_6 
REMARK       I    between atoms: N_6  and  C_7 
REMARK    2  A    between atoms: C_7  and  C_8 
REMARK    3  A    between atoms: C_8  and  C_9 
ROOT
HETATM    1  C   UNL     1      25.652  46.859  50.169  1.00  0.00     0.286 C 
HETATM    2  N   UNL     1      26.207  47.314  51.520  1.00  0.00    -0.056 N 
HETATM    3  H   UNL     1      27.170  46.966  51.594  1.00  0.00     0.278 HD
HETATM    4  H   UNL     1      26.309  48.349  51.476  1.00  0.00     0.278 HD
HETATM    5  C   UNL     1      25.385  46.878  52.703  1.00  0.00     0.209 C 
HETATM    6  C   UNL     1      25.300  45.331  52.687  1.00  0.00     0.115 C 
HETATM    7  N   UNL     1      24.860  44.829  51.386  1.00  0.00    -0.353 N 
HETATM    8  C   UNL     1      25.165  45.401  50.176  1.00  0.00     0.249 C 
HETATM    9  O   UNL     1      24.963  44.780  49.137  1.00  0.00    -0.271 OA
HETATM   10  C   UNL     1      26.006  47.423  53.986  1.00  0.00     0.035 C 
HETATM   11  C   UNL     1      27.320  46.743  54.359  1.00  0.00     0.002 C 
HETATM   12  C   UNL     1      27.177  45.225  54.393  1.00  0.00     0.002 C 
HETATM   13  C   UNL     1      26.635  44.676  53.076  1.00  0.00     0.027 C 
HETATM   14  H   UNL     1      24.545  43.862  51.317  1.00  0.00     0.163 HD
ENDROOT
BRANCH   1  15
HETATM   15  C   UNL     1      24.511  47.771  49.687  1.00  0.00     0.146 C 
BRANCH  15  16
HETATM   16  C   UNL     1      25.060  48.993  49.001  1.00  0.00     0.224 C 
HETATM   17  N   UNL     1      24.279  50.026  48.602  1.00  0.00    -0.327 N 
HETATM   18  H   UNL     1      24.807  50.705  48.058  1.00  0.00     0.169 HD
HETATM   19  O   UNL     1      26.283  49.067  48.818  1.00  0.00    -0.273 OA
BRANCH  17  20
HETATM   20  C   UNL     1      22.925  50.361  48.797  1.00  0.00     0.034 A 
HETATM   21  C   UNL     1      22.350  50.751  50.005  1.00  0.00     0.030 A 
HETATM   22  C   UNL     1      20.994  51.103  50.069  1.00  0.00     0.009 A 
HETATM   23  C   UNL     1      20.187  51.065  48.929  1.00  0.00    -0.062 A 
HETATM   24  C   UNL     1      18.750  51.489  48.991  1.00  0.00     0.048 C 
HETATM   25  C   UNL     1      20.764  50.692  47.714  1.00  0.00     0.009 A 
HETATM   26  C   UNL     1      22.117  50.346  47.651  1.00  0.00     0.030 A 
ENDBRANCH  17  20
ENDBRANCH  15  16
ENDBRANCH   1  15
TORSDOF 3
ENDMDL
MODEL 5
REMARK VINA RESULT:      -8.2      2.361      7.078
REMARK  3 active torsions:
REMARK  status: ('A' for Active; 'I' for Inactive)
REMARK    1  A    between atoms: C_5  and  N_6 
REMARK       I    between atoms: N_6  and  C_7 
REMARK    2  A    between atoms: C_7  and  C_8 
REMARK    3  A    between atoms: C_8  and  C_9 
ROOT
HETATM    1  C   UNL     1      28.275  44.008  54.500  1.00  0.00     0.286 C 
HETATM    2  N   UNL     1      29.418  43.450  55.349  1.00  0.00    -0.056 N 
HETATM    3  H   UNL     1      29.043  43.253  56.285  1.00  0.00     0.278 HD
HETATM    4  H   UNL     1      29.656  42.512  54.964  1.00  0.00     0.278 HD
HETATM    5  C   UNL     1      30.622  44.349  55.430  1.00  0.00     0.209 C 
HETATM    6  C   UNL     1      30.170  45.707  56.022  1.00  0.00     0.115 C 
HETATM    7  N   UNL     1      29.017  46.250  55.305  1.00  0.00    -0.353 N 
HETATM    8  C   UNL     1      28.010  45.502  54.750  1.00  0.00     0.249 C 
HETATM    9  O   UNL     1      26.971  46.045  54.389  1.00  0.00    -0.271 OA
HETATM   10  C   UNL     1      31.709  43.673  56.262  1.00  0.00     0.035 C 
HETATM   11  C   UNL     1      31.378  43.603  57.750  1.00  0.00     0.002 C 
HETATM   12  C   UNL     1      30.999  44.971  58.306  1.00  0.00     0.002 C 
HETATM   13  C   UNL     1      29.853  45.606  57.522  1.00  0.00     0.027 C 
HETATM   14  H   UNL     1      28.773  47.230  55.445  1.00  0.00     0.163 HD
ENDROOT
BRANCH   1  15
HETATM   15  C   UNL     1      28.519  43.783  52.998  1.00  0.00     0.146 C 
BRANCH  15  16
HETATM   16  C   UNL     1      27.435  42.924  52.406  1.00  0.00     0.224 C 
HETATM   17  N   UNL     1      26.417  43.430  51.667  1.00  0.00    -0.327 N 
HETATM   18  H   UNL     1      25.723  42.718  51.451  1.00  0.00     0.169 HD
HETATM   19  O   UNL     1      27.491  41.698  52.581  1.00  0.00    -0.273 OA
BRANCH  17  20
HETATM   20  C   UNL     1      26.136  44.700  51.128  1.00  0.00     0.034 A 
HETATM   21  C   UNL     1      25.120  45.556  51.548  1.00  0.00     0.030 A 
HETATM   22  C   UNL     1      24.963  46.819  50.960  1.00  0.00     0.009 A 
HETATM   23  C   UNL     1      25.814  47.247  49.939  1.00  0.00    -0.062 A 
HETATM   24  C   UNL     1      25.674  48.618  49.347  1.00  0.00     0.048 C 
HETATM   25  C   UNL     1      26.845  46.400  49.529  1.00  0.00     0.009 A 
HETATM   26  C   UNL     1      27.002  45.143  50.118  1.00  0.00     0.030 A 
ENDBRANCH  17  20
ENDBRANCH  15  16
ENDBRANCH   1  15
TORSDOF 3
ENDMDL
MODEL 6
REMARK VINA RESULT:      -8.2      2.009      2.660
REMARK  3 active torsions:
REMARK  status: ('A' for Active; 'I' for Inactive)
REMARK    1  A    between atoms: C_5  and  N_6 
REMARK       I    between atoms: N_6  and  C_7 
REMARK    2  A    between atoms: C_7  and  C_8 
REMARK    3  A    between atoms: C_8  and  C_9 
ROOT
HETATM    1  C   UNL     1      27.289  41.667  50.167  1.00  0.00     0.286 C 
HETATM    2  N   UNL     1      28.513  40.753  50.096  1.00  0.00    -0.056 N 
HETATM    3  H   UNL     1      28.872  40.787  49.135  1.00  0.00     0.278 HD
HETATM    4  H   UNL     1      29.261  41.197  50.668  1.00  0.00     0.278 HD
HETATM    5  C   UNL     1      28.248  39.333  50.522  1.00  0.00     0.209 C 
HETATM    6  C   UNL     1      27.134  38.758  49.612  1.00  0.00     0.115 C 
HETATM    7  N   UNL     1      25.967  39.638  49.566  1.00  0.00    -0.353 N 
HETATM    8  C   UNL     1      26.010  41.008  49.626  1.00  0.00     0.249 C 
HETATM    9  O   UNL     1      25.015  41.665  49.335  1.00  0.00    -0.271 OA
HETATM   10  C   UNL     1      29.543  38.529  50.453  1.00  0.00     0.035 C 
HETATM   11  C   UNL     1      30.011  38.255  49.026  1.00  0.00     0.002 C 
HETATM   12  C   UNL     1      28.905  37.632  48.182  1.00  0.00     0.002 C 
HETATM   13  C   UNL     1      27.639  38.484  48.186  1.00  0.00     0.027 C 
HETATM   14  H   UNL     1      25.092  39.269  49.196  1.00  0.00     0.163 HD
ENDROOT
BRANCH   1  15
HETATM   15  C   UNL     1      27.033  42.165  51.600  1.00  0.00     0.146 C 
BRANCH  15  16
HETATM   16  C   UNL     1      26.977  43.669  51.638  1.00  0.00     0.224 C 
HETATM   17  N   UNL     1      27.652  44.407  52.553  1.00  0.00    -0.327 N 
HETATM   18  H   UNL     1      27.403  45.392  52.495  1.00  0.00     0.169 HD
HETATM   19  O   UNL     1      26.306  44.256  50.778  1.00  0.00    -0.273 OA
BRANCH  17  20
HETATM   20  C   UNL     1      28.621  44.107  53.530  1.00  0.00     0.034 A 
HETATM   21  C   UNL     1      29.559  43.079  53.456  1.00  0.00     0.030 A 
HETATM   22  C   UNL     1      30.505  42.903  54.476  1.00  0.00     0.009 A 
HETATM   23  C   UNL     1      30.527  43.746  55.589  1.00  0.00    -0.062 A 
HETATM   24  C   UNL     1      31.572  43.585  56.653  1.00  0.00     0.048 C 
HETATM   25  C   UNL     1      29.602  44.788  55.657  1.00  0.00     0.009 A 
HETATM   26  C   UNL     1      28.661  44.965  54.638  1.00  0.00     0.030 A 
ENDBRANCH  17  20
ENDBRANCH  15  16
ENDBRANCH   1  15
TORSDOF 3
ENDMDL
MODEL 7
REMARK VINA RESULT:      -8.1      1.245      6.604
REMARK  3 active torsions:
REMARK  status: ('A' for Active; 'I' for Inactive)
REMARK    1  A    between atoms: C_5  and  N_6 
REMARK       I    between atoms: N_6  and  C_7 
REMARK    2  A    between atoms: C_7  and  C_8 
REMARK    3  A    between atoms: C_8  and  C_9 
ROOT
HETATM    1  C   UNL     1      27.231  44.753  54.633  1.00  0.00     0.286 C 
HETATM    2  N   UNL     1      28.374  43.827  55.050  1.00  0.00    -0.056 N 
HETATM    3  H   UNL     1      28.240  43.594  56.041  1.00  0.00     0.278 HD
HETATM    4  H   UNL     1      28.233  42.924  54.551  1.00  0.00     0.278 HD
HETATM    5  C   UNL     1      29.747  44.395  54.811  1.00  0.00     0.209 C 
HETATM    6  C   UNL     1      29.862  45.724  55.598  1.00  0.00     0.115 C 
HETATM    7  N   UNL     1      28.743  46.620  55.310  1.00  0.00    -0.353 N 
HETATM    8  C   UNL     1      27.457  46.217  55.046  1.00  0.00     0.249 C 
HETATM    9  O   UNL     1      26.544  47.036  55.060  1.00  0.00    -0.271 OA
HETATM   10  C   UNL     1      30.802  43.371  55.221  1.00  0.00     0.035 C 
HETATM   11  C   UNL     1      30.898  43.171  56.731  1.00  0.00     0.002 C 
HETATM   12  C   UNL     1      31.072  44.498  57.463  1.00  0.00     0.002 C 
HETATM   13  C   UNL     1      29.966  45.489  57.114  1.00  0.00     0.027 C 
HETATM   14  H   UNL     1      28.820  47.600  55.579  1.00  0.00     0.163 HD
ENDROOT
BRANCH   1  15
HETATM   15  C   UNL     1      26.971  44.692  53.117  1.00  0.00     0.146 C 
BRANCH  15  16
HETATM   16  C   UNL     1      25.646  44.039  52.831  1.00  0.00     0.224 C 
HETATM   17  N   UNL     1      25.496  43.048  51.920  1.00  0.00    -0.327 N 
HETATM   18  H   UNL     1      24.515  42.813  51.782  1.00  0.00     0.169 HD
HETATM   19  O   UNL     1      24.655  44.409  53.477  1.00  0.00    -0.273 OA
BRANCH  17  20
HETATM   20  C   UNL     1      26.393  42.274  51.158  1.00  0.00     0.034 A 
HETATM   21  C   UNL     1      27.295  41.341  51.665  1.00  0.00     0.030 A 
HETATM   22  C   UNL     1      28.113  40.598  50.801  1.00  0.00     0.009 A 
HETATM   23  C   UNL     1      28.048  40.779  49.417  1.00  0.00    -0.062 A 
HETATM   24  C   UNL     1      28.889  39.948  48.494  1.00  0.00     0.048 C 
HETATM   25  C   UNL     1      27.132  41.700  48.906  1.00  0.00     0.009 A 
HETATM   26  C   UNL     1      26.316  42.437  49.767  1.00  0.00     0.030 A 
ENDBRANCH  17  20
ENDBRANCH  15  16
ENDBRANCH   1  15
TORSDOF 3
ENDMDL
MODEL 8
REMARK VINA RESULT:      -8.1      1.901      2.709
REMARK  3 active torsions:
REMARK  status: ('A' for Active; 'I' for Inactive)
REMARK    1  A    between atoms: C_5  and  N_6 
REMARK       I    between atoms: N_6  and  C_7 
REMARK    2  A    between atoms: C_7  and  C_8 
REMARK    3  A    between atoms: C_8  and  C_9 
ROOT
HETATM    1  C   UNL     1      26.837  42.674  51.455  1.00  0.00     0.286 C 
HETATM    2  N   UNL     1      25.492  43.136  50.893  1.00  0.00    -0.056 N 
HETATM    3  H   UNL     1      24.789  42.435  51.153  1.00  0.00     0.278 HD
HETATM    4  H   UNL     1      25.216  43.989  51.422  1.00  0.00     0.278 HD
HETATM    5  C   UNL     1      25.494  43.371  49.406  1.00  0.00     0.209 C 
HETATM    6  C   UNL     1      25.905  42.050  48.710  1.00  0.00     0.115 C 
HETATM    7  N   UNL     1      27.142  41.508  49.270  1.00  0.00    -0.353 N 
HETATM    8  C   UNL     1      27.522  41.607  50.585  1.00  0.00     0.249 C 
HETATM    9  O   UNL     1      28.444  40.918  51.009  1.00  0.00    -0.271 OA
HETATM   10  C   UNL     1      24.119  43.870  48.967  1.00  0.00     0.035 C 
HETATM   11  C   UNL     1      23.038  42.794  49.026  1.00  0.00     0.002 C 
HETATM   12  C   UNL     1      23.457  41.534  48.276  1.00  0.00     0.002 C 
HETATM   13  C   UNL     1      24.792  40.992  48.778  1.00  0.00     0.027 C 
HETATM   14  H   UNL     1      27.634  40.781  48.752  1.00  0.00     0.163 HD
ENDROOT
BRANCH   1  15
HETATM   15  C   UNL     1      27.803  43.853  51.663  1.00  0.00     0.146 C 
BRANCH  15  16
HETATM   16  C   UNL     1      27.192  44.887  52.569  1.00  0.00     0.224 C 
HETATM   17  N   UNL     1      27.601  45.081  53.846  1.00  0.00    -0.327 N 
HETATM   18  H   UNL     1      26.998  45.738  54.336  1.00  0.00     0.169 HD
HETATM   19  O   UNL     1      26.293  45.611  52.116  1.00  0.00    -0.273 OA
BRANCH  17  20
HETATM   20  C   UNL     1      28.675  44.592  54.614  1.00  0.00     0.034 A 
HETATM   21  C   UNL     1      29.288  43.349  54.458  1.00  0.00     0.030 A 
HETATM   22  C   UNL     1      30.381  42.988  55.258  1.00  0.00     0.009 A 
HETATM   23  C   UNL     1      30.877  43.858  56.232  1.00  0.00    -0.062 A 
HETATM   24  C   UNL     1      32.078  43.487  57.052  1.00  0.00     0.048 C 
HETATM   25  C   UNL     1      30.279  45.110  56.378  1.00  0.00     0.009 A 
HETATM   26  C   UNL     1      29.191  45.470  55.578  1.00  0.00     0.030 A 
ENDBRANCH  17  20
ENDBRANCH  15  16
ENDBRANCH   1  15
TORSDOF 3
ENDMDL
MODEL 9
REMARK VINA RESULT:      -8.1     13.169     15.489
REMARK  3 active torsions:
REMARK  status: ('A' for Active; 'I' for Inactive)
REMARK    1  A    between atoms: C_5  and  N_6 
REMARK       I    between atoms: N_6  and  C_7 
REMARK    2  A    between atoms: C_7  and  C_8 
REMARK    3  A    between atoms: C_8  and  C_9 
ROOT
HETATM    1  C   UNL     1      32.131  50.250  41.242  1.00  0.00     0.286 C 
HETATM    2  N   UNL     1      30.903  50.703  40.451  1.00  0.00    -0.056 N 
HETATM    3  H   UNL     1      31.233  51.267  39.659  1.00  0.00     0.278 HD
HETATM    4  H   UNL     1      30.493  49.853  40.010  1.00  0.00     0.278 HD
HETATM    5  C   UNL     1      29.889  51.460  41.266  1.00  0.00     0.209 C 
HETATM    6  C   UNL     1      30.588  52.704  41.869  1.00  0.00     0.115 C 
HETATM    7  N   UNL     1      31.823  52.344  42.564  1.00  0.00    -0.353 N 
HETATM    8  C   UNL     1      32.672  51.332  42.191  1.00  0.00     0.249 C 
HETATM    9  O   UNL     1      33.795  51.263  42.680  1.00  0.00    -0.271 OA
HETATM   10  C   UNL     1      28.694  51.820  40.388  1.00  0.00     0.035 C 
HETATM   11  C   UNL     1      29.005  52.899  39.353  1.00  0.00     0.002 C 
HETATM   12  C   UNL     1      29.634  54.129  39.997  1.00  0.00     0.002 C 
HETATM   13  C   UNL     1      30.879  53.774  40.806  1.00  0.00     0.027 C 
HETATM   14  H   UNL     1      32.247  53.027  43.192  1.00  0.00     0.163 HD
ENDROOT
BRANCH   1  15
HETATM   15  C   UNL     1      31.850  48.969  42.046  1.00  0.00     0.146 C 
BRANCH  15  16
HETATM   16  C   UNL     1      31.974  47.753  41.168  1.00  0.00     0.224 C 
HETATM   17  N   UNL     1      30.933  47.244  40.464  1.00  0.00    -0.327 N 
HETATM   18  H   UNL     1      31.177  46.360  40.023  1.00  0.00     0.169 HD
HETATM   19  O   UNL     1      33.083  47.209  41.066  1.00  0.00    -0.273 OA
BRANCH  17  20
HETATM   20  C   UNL     1      29.622  47.685  40.201  1.00  0.00     0.034 A 
HETATM   21  C   UNL     1      28.603  47.818  41.143  1.00  0.00     0.030 A 
HETATM   22  C   UNL     1      27.344  48.308  40.768  1.00  0.00     0.009 A 
HETATM   23  C   UNL     1      27.078  48.668  39.445  1.00  0.00    -0.062 A 
HETATM   24  C   UNL     1      25.746  49.239  39.058  1.00  0.00     0.048 C 
HETATM   25  C   UNL     1      28.101  48.554  38.502  1.00  0.00     0.009 A 
HETATM   26  C   UNL     1      29.357  48.069  38.878  1.00  0.00     0.030 A 
ENDBRANCH  17  20
ENDBRANCH  15  16
ENDBRANCH   1  15
TORSDOF 3
ENDMDL
MODEL 10
REMARK VINA RESULT:      -8.0      1.952      2.718
REMARK  3 active torsions:
REMARK  status: ('A' for Active; 'I' for Inactive)
REMARK    1  A    between atoms: C_5  and  N_6 
REMARK       I    between atoms: N_6  and  C_7 
REMARK    2  A    between atoms: C_7  and  C_8 
REMARK    3  A    between atoms: C_8  and  C_9 
ROOT
HETATM    1  C   UNL     1      27.433  41.958  51.526  1.00  0.00     0.286 C 
HETATM    2  N   UNL     1      26.537  41.889  50.289  1.00  0.00    -0.056 N 
HETATM    3  H   UNL     1      25.791  41.210  50.482  1.00  0.00     0.278 HD
HETATM    4  H   UNL     1      26.042  42.802  50.217  1.00  0.00     0.278 HD
HETATM    5  C   UNL     1      27.265  41.541  49.018  1.00  0.00     0.209 C 
HETATM    6  C   UNL     1      27.956  40.169  49.219  1.00  0.00     0.115 C 
HETATM    7  N   UNL     1      28.759  40.144  50.441  1.00  0.00    -0.353 N 
HETATM    8  C   UNL     1      28.450  40.807  51.602  1.00  0.00     0.249 C 
HETATM    9  O   UNL     1      29.042  40.533  52.640  1.00  0.00    -0.271 OA
HETATM   10  C   UNL     1      26.284  41.544  47.849  1.00  0.00     0.035 C 
HETATM   11  C   UNL     1      25.304  40.374  47.878  1.00  0.00     0.002 C 
HETATM   12  C   UNL     1      26.028  39.039  48.014  1.00  0.00     0.002 C 
HETATM   13  C   UNL     1      26.945  39.011  49.233  1.00  0.00     0.027 C 
HETATM   14  H   UNL     1      29.437  39.392  50.563  1.00  0.00     0.163 HD
ENDROOT
BRANCH   1  15
HETATM   15  C   UNL     1      28.182  43.299  51.612  1.00  0.00     0.146 C 
BRANCH  15  16
HETATM   16  C   UNL     1      27.378  44.308  52.386  1.00  0.00     0.224 C 
HETATM   17  N   UNL     1      27.659  44.644  53.669  1.00  0.00    -0.327 N 
HETATM   18  H   UNL     1      26.943  45.251  54.062  1.00  0.00     0.169 HD
HETATM   19  O   UNL     1      26.435  44.875  51.816  1.00  0.00    -0.273 OA
BRANCH  17  20
HETATM   20  C   UNL     1      28.722  44.354  54.546  1.00  0.00     0.034 A 
HETATM   21  C   UNL     1      29.452  43.166  54.576  1.00  0.00     0.030 A 
HETATM   22  C   UNL     1      30.520  43.009  55.470  1.00  0.00     0.009 A 
HETATM   23  C   UNL     1      30.873  44.030  56.355  1.00  0.00    -0.062 A 
HETATM   24  C   UNL     1      32.048  43.876  57.276  1.00  0.00     0.048 C 
HETATM   25  C   UNL     1      30.157  45.227  56.316  1.00  0.00     0.009 A 
HETATM   26  C   UNL     1      29.095  45.385  55.421  1.00  0.00     0.030 A 
ENDBRANCH  17  20
ENDBRANCH  15  16
ENDBRANCH   1  15
TORSDOF 3
ENDMDL
