MODEL 1
REMARK VINA RESULT:     -10.7      0.000      0.000
REMARK  6 active torsions:
REMARK  status: ('A' for Active; 'I' for Inactive)
REMARK    1  A    between atoms: C_4  and  C_5 
REMARK    2  A    between atoms: C_7  and  N_8 
REMARK    3  A    between atoms: N_11  and  C_13 
REMARK    4  A    between atoms: C_13  and  C_14 
REMARK       I    between atoms: C_14  and  N_15 
REMARK    5  A    between atoms: N_15  and  N_16 
REMARK       I    between atoms: N_16  and  C_17 
REMARK    6  A    between atoms: C_17  and  C_18 
ROOT
HETATM    1  N   UNL     1      26.522  44.272  52.364  1.00  0.00    -0.357 N 
HETATM    2  C   UNL     1      26.174  43.930  50.977  1.00  0.00     0.152 C 
HETATM    3  C   UNL     1      26.602  45.067  50.024  1.00  0.00     0.255 C 
HETATM    4  N   UNL     1      25.977  46.392  50.481  1.00  0.00    -0.060 N 
HETATM    5  H   UNL     1      24.955  46.246  50.431  1.00  0.00     0.280 HD
HETATM    6  C   UNL     1      26.346  46.707  51.929  1.00  0.00     0.255 C 
HETATM    7  C   UNL     1      25.929  45.535  52.842  1.00  0.00     0.152 C 
ENDROOT
BRANCH   4   8
HETATM    8  C   UNL     1      26.255  47.540  49.516  1.00  0.00     0.338 C 
BRANCH   8   9
HETATM    9  C   UNL     1      25.027  48.446  49.382  1.00  0.00     0.262 C 
HETATM   10  N   UNL     1      23.814  47.802  49.487  1.00  0.00    -0.266 N 
HETATM   11  H   UNL     1      23.754  46.871  49.909  1.00  0.00     0.190 HD
HETATM   12  O   UNL     1      25.165  49.656  49.187  1.00  0.00    -0.270 OA
BRANCH  10  13
HETATM   13  N   UNL     1      22.689  48.594  49.796  1.00  0.00    -0.263 N 
HETATM   14  C   UNL     1      21.884  48.952  48.729  1.00  0.00     0.270 C 
HETATM   15  O   UNL     1      22.144  48.559  47.592  1.00  0.00    -0.266 OA
HETATM   16  H   UNL     1      22.594  48.950  50.744  1.00  0.00     0.190 HD
BRANCH  14  17
HETATM   17  C   UNL     1      20.722  49.840  48.998  1.00  0.00     0.033 A 
HETATM   18  C   UNL     1      19.624  49.435  49.769  1.00  0.00     0.018 A 
HETATM   19  C   UNL     1      18.553  50.313  49.976  1.00  0.00     0.020 A 
HETATM   20  C   UNL     1      18.579  51.590  49.412  1.00  0.00     0.011 A 
HETATM   21 BR   UNL     1      17.129  52.768  49.692  1.00  0.00    -0.051 Br
HETATM   22  C   UNL     1      19.662  51.997  48.638  1.00  0.00     0.020 A 
HETATM   23  C   UNL     1      20.731  51.122  48.428  1.00  0.00     0.018 A 
ENDBRANCH  14  17
ENDBRANCH  10  13
ENDBRANCH   8   9
ENDBRANCH   4   8
BRANCH   1  24
HETATM   24  C   UNL     1      27.743  43.926  52.883  1.00  0.00     0.169 A 
HETATM   25  N   UNL     1      28.205  44.428  54.009  1.00  0.00    -0.223 NA
HETATM   26  C   UNL     1      29.418  43.847  54.363  1.00  0.00     0.076 A 
HETATM   27  C   UNL     1      29.898  42.929  53.452  1.00  0.00     0.085 A 
HETATM   28  S   UNL     1      28.809  42.778  52.147  1.00  0.00    -0.062 SA
BRANCH  26  29
HETATM   29  C   UNL     1      30.078  44.168  55.625  1.00  0.00    -0.007 A 
HETATM   30  C   UNL     1      29.711  45.329  56.321  1.00  0.00     0.014 A 
HETATM   31  C   UNL     1      30.299  45.643  57.549  1.00  0.00     0.001 A 
HETATM   32  C   UNL     1      31.267  44.802  58.094  1.00  0.00     0.000 A 
HETATM   33  C   UNL     1      31.651  43.651  57.410  1.00  0.00     0.001 A 
HETATM   34  C   UNL     1      31.062  43.335  56.181  1.00  0.00     0.014 A 
ENDBRANCH  26  29
ENDBRANCH   1  24
TORSDOF 6
ENDMDL
MODEL 2
REMARK VINA RESULT:     -10.3      1.535      2.181
REMARK  6 active torsions:
REMARK  status: ('A' for Active; 'I' for Inactive)
REMARK    1  A    between atoms: C_4  and  C_5 
REMARK    2  A    between atoms: C_7  and  N_8 
REMARK    3  A    between atoms: N_11  and  C_13 
REMARK    4  A    between atoms: C_13  and  C_14 
REMARK       I    between atoms: C_14  and  N_15 
REMARK    5  A    between atoms: N_15  and  N_16 
REMARK       I    between atoms: N_16  and  C_17 
REMARK    6  A    between atoms: C_17  and  C_18 
ROOT
HETATM    1  N   UNL     1      26.554  44.403  52.465  1.00  0.00    -0.357 N 
HETATM    2  C   UNL     1      27.239  44.290  51.169  1.00  0.00     0.152 C 
HETATM    3  C   UNL     1      26.921  45.520  50.289  1.00  0.00     0.255 C 
HETATM    4  N   UNL     1      25.402  45.677  50.144  1.00  0.00    -0.060 N 
HETATM    5  H   UNL     1      25.078  44.811  49.683  1.00  0.00     0.280 HD
HETATM    6  C   UNL     1      24.723  45.775  51.509  1.00  0.00     0.255 C 
HETATM    7  C   UNL     1      25.090  44.544  52.365  1.00  0.00     0.152 C 
ENDROOT
BRANCH   4   8
HETATM    8  C   UNL     1      25.013  46.799  49.187  1.00  0.00     0.338 C 
BRANCH   8   9
HETATM    9  C   UNL     1      23.512  47.093  49.276  1.00  0.00     0.262 C 
HETATM   10  N   UNL     1      23.189  48.298  49.862  1.00  0.00    -0.266 N 
HETATM   11  H   UNL     1      23.891  49.039  49.947  1.00  0.00     0.190 HD
HETATM   12  O   UNL     1      22.692  46.278  48.851  1.00  0.00    -0.270 OA
BRANCH  10  13
HETATM   13  N   UNL     1      21.905  48.816  49.601  1.00  0.00    -0.263 N 
HETATM   14  C   UNL     1      21.782  50.194  49.649  1.00  0.00     0.270 C 
HETATM   15  O   UNL     1      22.764  50.899  49.878  1.00  0.00    -0.266 OA
HETATM   16  H   UNL     1      21.129  48.164  49.508  1.00  0.00     0.190 HD
BRANCH  14  17
HETATM   17  C   UNL     1      20.432  50.782  49.443  1.00  0.00     0.033 A 
HETATM   18  C   UNL     1      20.195  51.837  48.553  1.00  0.00     0.018 A 
HETATM   19  C   UNL     1      18.902  52.357  48.412  1.00  0.00     0.020 A 
HETATM   20  C   UNL     1      17.852  51.826  49.161  1.00  0.00     0.011 A 
HETATM   21 BR   UNL     1      16.112  52.535  48.970  1.00  0.00    -0.051 Br
HETATM   22  C   UNL     1      18.079  50.783  50.055  1.00  0.00     0.020 A 
HETATM   23  C   UNL     1      19.369  50.264  50.199  1.00  0.00     0.018 A 
ENDBRANCH  14  17
ENDBRANCH  10  13
ENDBRANCH   8   9
ENDBRANCH   4   8
BRANCH   1  24
HETATM   24  C   UNL     1      27.165  45.022  53.525  1.00  0.00     0.169 A 
HETATM   25  N   UNL     1      28.045  44.414  54.292  1.00  0.00    -0.223 NA
HETATM   26  C   UNL     1      28.584  45.285  55.234  1.00  0.00     0.076 A 
HETATM   27  C   UNL     1      28.053  46.557  55.202  1.00  0.00     0.085 A 
HETATM   28  S   UNL     1      26.880  46.671  53.968  1.00  0.00    -0.062 SA
BRANCH  26  29
HETATM   29  C   UNL     1      29.656  44.868  56.133  1.00  0.00    -0.007 A 
HETATM   30  C   UNL     1      30.454  43.766  55.791  1.00  0.00     0.014 A 
HETATM   31  C   UNL     1      31.511  43.366  56.615  1.00  0.00     0.001 A 
HETATM   32  C   UNL     1      31.778  44.059  57.792  1.00  0.00     0.000 A 
HETATM   33  C   UNL     1      30.988  45.149  58.151  1.00  0.00     0.001 A 
HETATM   34  C   UNL     1      29.931  45.551  57.328  1.00  0.00     0.014 A 
ENDBRANCH  26  29
ENDBRANCH   1  24
TORSDOF 6
ENDMDL
MODEL 3
REMARK VINA RESULT:     -10.2      1.671      2.238
REMARK  6 active torsions:
REMARK  status: ('A' for Active; 'I' for Inactive)
REMARK    1  A    between atoms: C_4  and  C_5 
REMARK    2  A    between atoms: C_7  and  N_8 
REMARK    3  A    between atoms: N_11  and  C_13 
REMARK    4  A    between atoms: C_13  and  C_14 
REMARK       I    between atoms: C_14  and  N_15 
REMARK    5  A    between atoms: N_15  and  N_16 
REMARK       I    between atoms: N_16  and  C_17 
REMARK    6  A    between atoms: C_17  and  C_18 
ROOT
HETATM    1  N   UNL     1      26.446  42.844  50.878  1.00  0.00    -0.357 N 
HETATM    2  C   UNL     1      26.773  43.431  49.570  1.00  0.00     0.152 C 
HETATM    3  C   UNL     1      26.641  44.969  49.629  1.00  0.00     0.255 C 
HETATM    4  N   UNL     1      25.237  45.353  50.115  1.00  0.00    -0.060 N 
HETATM    5  H   UNL     1      24.586  44.962  49.414  1.00  0.00     0.280 HD
HETATM    6  C   UNL     1      24.926  44.713  51.467  1.00  0.00     0.255 C 
HETATM    7  C   UNL     1      25.099  43.182  51.373  1.00  0.00     0.152 C 
ENDROOT
BRANCH   4   8
HETATM    8  C   UNL     1      24.991  46.858  50.081  1.00  0.00     0.338 C 
BRANCH   8   9
HETATM    9  C   UNL     1      23.595  47.167  49.531  1.00  0.00     0.262 C 
HETATM   10  N   UNL     1      23.108  48.417  49.848  1.00  0.00    -0.266 N 
HETATM   11  H   UNL     1      23.743  49.158  50.159  1.00  0.00     0.190 HD
HETATM   12  O   UNL     1      22.987  46.325  48.867  1.00  0.00    -0.270 OA
BRANCH  10  13
HETATM   13  N   UNL     1      22.060  48.920  49.051  1.00  0.00    -0.263 N 
HETATM   14  C   UNL     1      21.659  50.217  49.319  1.00  0.00     0.270 C 
HETATM   15  O   UNL     1      22.227  50.878  50.188  1.00  0.00    -0.266 OA
HETATM   16  H   UNL     1      21.585  48.282  48.416  1.00  0.00     0.190 HD
BRANCH  14  17
HETATM   17  C   UNL     1      20.515  50.768  48.546  1.00  0.00     0.033 A 
HETATM   18  C   UNL     1      19.788  51.889  48.968  1.00  0.00     0.018 A 
HETATM   19  C   UNL     1      18.711  52.352  48.202  1.00  0.00     0.020 A 
HETATM   20  C   UNL     1      18.361  51.696  47.021  1.00  0.00     0.011 A 
HETATM   21 BR   UNL     1      16.905  52.324  45.995  1.00  0.00    -0.051 Br
HETATM   22  C   UNL     1      19.073  50.577  46.599  1.00  0.00     0.020 A 
HETATM   23  C   UNL     1      20.147  50.110  47.362  1.00  0.00     0.018 A 
ENDBRANCH  14  17
ENDBRANCH  10  13
ENDBRANCH   8   9
ENDBRANCH   4   8
BRANCH   1  24
HETATM   24  C   UNL     1      27.422  42.654  51.822  1.00  0.00     0.169 A 
HETATM   25  N   UNL     1      27.826  43.612  52.629  1.00  0.00    -0.223 NA
HETATM   26  C   UNL     1      28.754  43.141  53.552  1.00  0.00     0.076 A 
HETATM   27  C   UNL     1      29.089  41.812  53.394  1.00  0.00     0.085 A 
HETATM   28  S   UNL     1      28.219  41.141  52.088  1.00  0.00    -0.062 SA
BRANCH  26  29
HETATM   29  C   UNL     1      29.272  43.994  54.617  1.00  0.00    -0.007 A 
HETATM   30  C   UNL     1      30.459  43.636  55.273  1.00  0.00     0.014 A 
HETATM   31  C   UNL     1      30.998  44.452  56.271  1.00  0.00     0.001 A 
HETATM   32  C   UNL     1      30.354  45.633  56.631  1.00  0.00     0.000 A 
HETATM   33  C   UNL     1      29.168  45.997  55.996  1.00  0.00     0.001 A 
HETATM   34  C   UNL     1      28.627  45.182  54.997  1.00  0.00     0.014 A 
ENDBRANCH  26  29
ENDBRANCH   1  24
TORSDOF 6
ENDMDL
MODEL 4
REMARK VINA RESULT:      -9.7      1.896      2.089
REMARK  6 active torsions:
REMARK  status: ('A' for Active; 'I' for Inactive)
REMARK    1  A    between atoms: C_4  and  C_5 
REMARK    2  A    between atoms: C_7  and  N_8 
REMARK    3  A    between atoms: N_11  and  C_13 
REMARK    4  A    between atoms: C_13  and  C_14 
REMARK       I    between atoms: C_14  and  N_15 
REMARK    5  A    between atoms: N_15  and  N_16 
REMARK       I    between atoms: N_16  and  C_17 
REMARK    6  A    between atoms: C_17  and  C_18 
ROOT
HETATM    1  N   UNL     1      26.217  43.342  51.076  1.00  0.00    -0.357 N 
HETATM    2  C   UNL     1      26.378  43.780  49.681  1.00  0.00     0.152 C 
HETATM    3  C   UNL     1      26.515  45.318  49.618  1.00  0.00     0.255 C 
HETATM    4  N   UNL     1      25.315  45.976  50.311  1.00  0.00    -0.060 N 
HETATM    5  H   UNL     1      24.485  45.667  49.778  1.00  0.00     0.280 HD
HETATM    6  C   UNL     1      25.170  45.487  51.751  1.00  0.00     0.255 C 
HETATM    7  C   UNL     1      25.066  43.947  51.771  1.00  0.00     0.152 C 
ENDROOT
BRANCH   4   8
HETATM    8  C   UNL     1      25.319  47.496  50.180  1.00  0.00     0.338 C 
BRANCH   8   9
HETATM    9  C   UNL     1      23.964  48.001  49.674  1.00  0.00     0.262 C 
HETATM   10  N   UNL     1      23.091  47.017  49.266  1.00  0.00    -0.266 N 
HETATM   11  H   UNL     1      23.230  46.045  49.558  1.00  0.00     0.190 HD
HETATM   12  O   UNL     1      23.722  49.210  49.645  1.00  0.00    -0.270 OA
BRANCH  10  13
HETATM   13  N   UNL     1      21.725  47.356  49.198  1.00  0.00    -0.263 N 
HETATM   14  C   UNL     1      21.198  47.515  47.929  1.00  0.00     0.270 C 
HETATM   15  O   UNL     1      21.901  47.333  46.935  1.00  0.00    -0.266 OA
HETATM   16  H   UNL     1      21.237  47.575  50.064  1.00  0.00     0.190 HD
BRANCH  14  17
HETATM   17  C   UNL     1      19.777  47.934  47.810  1.00  0.00     0.033 A 
HETATM   18  C   UNL     1      19.005  48.314  48.916  1.00  0.00     0.018 A 
HETATM   19  C   UNL     1      17.667  48.687  48.740  1.00  0.00     0.020 A 
HETATM   20  C   UNL     1      17.102  48.678  47.464  1.00  0.00     0.011 A 
HETATM   21 BR   UNL     1      15.295  49.178  47.234  1.00  0.00    -0.051 Br
HETATM   22  C   UNL     1      17.859  48.295  46.360  1.00  0.00     0.020 A 
HETATM   23  C   UNL     1      19.195  47.919  46.533  1.00  0.00     0.018 A 
ENDBRANCH  14  17
ENDBRANCH  10  13
ENDBRANCH   8   9
ENDBRANCH   4   8
BRANCH   1  24
HETATM   24  C   UNL     1      27.313  43.038  51.842  1.00  0.00     0.169 A 
HETATM   25  N   UNL     1      27.765  43.837  52.785  1.00  0.00    -0.223 NA
HETATM   26  C   UNL     1      28.824  43.258  53.476  1.00  0.00     0.076 A 
HETATM   27  C   UNL     1      29.206  42.021  53.001  1.00  0.00     0.085 A 
HETATM   28  S   UNL     1      28.215  41.569  51.687  1.00  0.00    -0.062 SA
BRANCH  26  29
HETATM   29  C   UNL     1      29.427  43.911  54.634  1.00  0.00    -0.007 A 
HETATM   30  C   UNL     1      28.871  45.103  55.122  1.00  0.00     0.014 A 
HETATM   31  C   UNL     1      29.405  45.731  56.251  1.00  0.00     0.001 A 
HETATM   32  C   UNL     1      30.505  45.178  56.903  1.00  0.00     0.000 A 
HETATM   33  C   UNL     1      31.075  44.000  56.424  1.00  0.00     0.001 A 
HETATM   34  C   UNL     1      30.541  43.370  55.295  1.00  0.00     0.014 A 
ENDBRANCH  26  29
ENDBRANCH   1  24
TORSDOF 6
ENDMDL
MODEL 5
REMARK VINA RESULT:      -9.2      4.801     12.595
REMARK  6 active torsions:
REMARK  status: ('A' for Active; 'I' for Inactive)
REMARK    1  A    between atoms: C_4  and  C_5 
REMARK    2  A    between atoms: C_7  and  N_8 
REMARK    3  A    between atoms: N_11  and  C_13 
REMARK    4  A    between atoms: C_13  and  C_14 
REMARK       I    between atoms: C_14  and  N_15 
REMARK    5  A    between atoms: N_15  and  N_16 
REMARK       I    between atoms: N_16  and  C_17 
REMARK    6  A    between atoms: C_17  and  C_18 
ROOT
HETATM    1  N   UNL     1      19.411  50.215  50.266  1.00  0.00    -0.357 N 
HETATM    2  C   UNL     1      20.648  50.883  50.699  1.00  0.00     0.152 C 
HETATM    3  C   UNL     1      21.781  50.615  49.684  1.00  0.00     0.255 C 
HETATM    4  N   UNL     1      21.962  49.103  49.493  1.00  0.00    -0.060 N 
HETATM    5  H   UNL     1      22.218  48.736  50.424  1.00  0.00     0.280 HD
HETATM    6  C   UNL     1      20.655  48.441  49.059  1.00  0.00     0.255 C 
HETATM    7  C   UNL     1      19.544  48.758  50.083  1.00  0.00     0.152 C 
ENDROOT
BRANCH   4   8
HETATM    8  C   UNL     1      23.148  48.759  48.597  1.00  0.00     0.338 C 
BRANCH   8   9
HETATM    9  C   UNL     1      24.289  48.149  49.417  1.00  0.00     0.262 C 
HETATM   10  N   UNL     1      23.892  47.281  50.411  1.00  0.00    -0.266 N 
HETATM   11  H   UNL     1      22.957  46.865  50.395  1.00  0.00     0.190 HD
HETATM   12  O   UNL     1      25.459  48.450  49.175  1.00  0.00    -0.270 OA
BRANCH  10  13
HETATM   13  N   UNL     1      24.860  46.383  50.905  1.00  0.00    -0.263 N 
HETATM   14  C   UNL     1      25.410  46.695  52.136  1.00  0.00     0.270 C 
HETATM   15  O   UNL     1      25.031  47.691  52.753  1.00  0.00    -0.266 OA
HETATM   16  H   UNL     1      25.182  45.634  50.296  1.00  0.00     0.190 HD
BRANCH  14  17
HETATM   17  C   UNL     1      26.480  45.811  52.668  1.00  0.00     0.033 A 
HETATM   18  C   UNL     1      27.058  45.998  53.930  1.00  0.00     0.018 A 
HETATM   19  C   UNL     1      28.072  45.139  54.370  1.00  0.00     0.020 A 
HETATM   20  C   UNL     1      28.508  44.098  53.549  1.00  0.00     0.011 A 
HETATM   21 BR   UNL     1      29.880  42.945  54.146  1.00  0.00    -0.051 Br
HETATM   22  C   UNL     1      27.946  43.910  52.289  1.00  0.00     0.020 A 
HETATM   23  C   UNL     1      26.936  44.768  51.847  1.00  0.00     0.018 A 
ENDBRANCH  14  17
ENDBRANCH  10  13
ENDBRANCH   8   9
ENDBRANCH   4   8
BRANCH   1  24
HETATM   24  C   UNL     1      18.516  50.862  49.455  1.00  0.00     0.169 A 
HETATM   25  N   UNL     1      17.402  51.397  49.909  1.00  0.00    -0.223 NA
HETATM   26  C   UNL     1      16.718  52.074  48.905  1.00  0.00     0.076 A 
HETATM   27  C   UNL     1      17.308  51.995  47.660  1.00  0.00     0.085 A 
HETATM   28  S   UNL     1      18.746  51.080  47.753  1.00  0.00    -0.062 SA
BRANCH  26  29
HETATM   29  C   UNL     1      15.505  52.835  49.188  1.00  0.00    -0.007 A 
HETATM   30  C   UNL     1      14.861  53.519  48.147  1.00  0.00     0.014 A 
HETATM   31  C   UNL     1      13.677  54.226  48.380  1.00  0.00     0.001 A 
HETATM   32  C   UNL     1      13.128  54.263  49.659  1.00  0.00     0.000 A 
HETATM   33  C   UNL     1      13.762  53.597  50.706  1.00  0.00     0.001 A 
HETATM   34  C   UNL     1      14.945  52.888  50.474  1.00  0.00     0.014 A 
ENDBRANCH  26  29
ENDBRANCH   1  24
TORSDOF 6
ENDMDL
MODEL 6
REMARK VINA RESULT:      -9.0      2.885      3.531
REMARK  6 active torsions:
REMARK  status: ('A' for Active; 'I' for Inactive)
REMARK    1  A    between atoms: C_4  and  C_5 
REMARK    2  A    between atoms: C_7  and  N_8 
REMARK    3  A    between atoms: N_11  and  C_13 
REMARK    4  A    between atoms: C_13  and  C_14 
REMARK       I    between atoms: C_14  and  N_15 
REMARK    5  A    between atoms: N_15  and  N_16 
REMARK       I    between atoms: N_16  and  C_17 
REMARK    6  A    between atoms: C_17  and  C_18 
ROOT
HETATM    1  N   UNL     1      27.083  43.593  50.087  1.00  0.00    -0.357 N 
HETATM    2  C   UNL     1      26.437  44.913  50.128  1.00  0.00     0.152 C 
HETATM    3  C   UNL     1      24.966  44.773  50.578  1.00  0.00     0.255 C 
HETATM    4  N   UNL     1      24.233  43.785  49.662  1.00  0.00    -0.060 N 
HETATM    5  H   UNL     1      24.282  44.198  48.716  1.00  0.00     0.280 HD
HETATM    6  C   UNL     1      24.939  42.431  49.631  1.00  0.00     0.255 C 
HETATM    7  C   UNL     1      26.411  42.619  49.206  1.00  0.00     0.152 C 
ENDROOT
BRANCH   4   8
HETATM    8  C   UNL     1      22.742  43.689  49.969  1.00  0.00     0.338 C 
BRANCH   8   9
HETATM    9  C   UNL     1      21.952  44.720  49.156  1.00  0.00     0.262 C 
HETATM   10  N   UNL     1      20.626  44.848  49.508  1.00  0.00    -0.266 N 
HETATM   11  H   UNL     1      20.294  44.506  50.415  1.00  0.00     0.190 HD
HETATM   12  O   UNL     1      22.503  45.357  48.256  1.00  0.00    -0.270 OA
BRANCH  10  13
HETATM   13  N   UNL     1      19.968  46.032  49.118  1.00  0.00    -0.263 N 
HETATM   14  C   UNL     1      18.772  45.870  48.442  1.00  0.00     0.270 C 
HETATM   15  O   UNL     1      18.320  44.744  48.236  1.00  0.00    -0.266 OA
HETATM   16  H   UNL     1      20.450  46.919  49.247  1.00  0.00     0.190 HD
BRANCH  14  17
HETATM   17  C   UNL     1      18.074  47.089  47.955  1.00  0.00     0.033 A 
HETATM   18  C   UNL     1      16.710  47.318  48.175  1.00  0.00     0.018 A 
HETATM   19  C   UNL     1      16.107  48.480  47.680  1.00  0.00     0.020 A 
HETATM   20  C   UNL     1      16.865  49.409  46.965  1.00  0.00     0.011 A 
HETATM   21 BR   UNL     1      16.044  50.973  46.296  1.00  0.00    -0.051 Br
HETATM   22  C   UNL     1      18.219  49.186  46.734  1.00  0.00     0.020 A 
HETATM   23  C   UNL     1      18.823  48.025  47.225  1.00  0.00     0.018 A 
ENDBRANCH  14  17
ENDBRANCH  10  13
ENDBRANCH   8   9
ENDBRANCH   4   8
BRANCH   1  24
HETATM   24  C   UNL     1      27.717  43.091  51.194  1.00  0.00     0.169 A 
HETATM   25  N   UNL     1      28.271  43.862  52.105  1.00  0.00    -0.223 NA
HETATM   26  C   UNL     1      28.763  43.116  53.171  1.00  0.00     0.076 A 
HETATM   27  C   UNL     1      28.621  41.751  53.024  1.00  0.00     0.085 A 
HETATM   28  S   UNL     1      27.845  41.401  51.544  1.00  0.00    -0.062 SA
BRANCH  26  29
HETATM   29  C   UNL     1      29.333  43.755  54.352  1.00  0.00    -0.007 A 
HETATM   30  C   UNL     1      30.451  43.183  54.977  1.00  0.00     0.014 A 
HETATM   31  C   UNL     1      31.040  43.793  56.088  1.00  0.00     0.001 A 
HETATM   32  C   UNL     1      30.514  44.979  56.593  1.00  0.00     0.000 A 
HETATM   33  C   UNL     1      29.397  45.555  55.991  1.00  0.00     0.001 A 
HETATM   34  C   UNL     1      28.807  44.946  54.878  1.00  0.00     0.014 A 
ENDBRANCH  26  29
ENDBRANCH   1  24
TORSDOF 6
ENDMDL
MODEL 7
REMARK VINA RESULT:      -8.9      3.069      4.864
REMARK  6 active torsions:
REMARK  status: ('A' for Active; 'I' for Inactive)
REMARK    1  A    between atoms: C_4  and  C_5 
REMARK    2  A    between atoms: C_7  and  N_8 
REMARK    3  A    between atoms: N_11  and  C_13 
REMARK    4  A    between atoms: C_13  and  C_14 
REMARK       I    between atoms: C_14  and  N_15 
REMARK    5  A    between atoms: N_15  and  N_16 
REMARK       I    between atoms: N_16  and  C_17 
REMARK    6  A    between atoms: C_17  and  C_18 
ROOT
HETATM    1  N   UNL     1      26.841  44.124  51.887  1.00  0.00    -0.357 N 
HETATM    2  C   UNL     1      25.439  44.352  52.272  1.00  0.00     0.152 C 
HETATM    3  C   UNL     1      24.509  44.112  51.062  1.00  0.00     0.255 C 
HETATM    4  N   UNL     1      24.949  44.991  49.884  1.00  0.00    -0.060 N 
HETATM    5  H   UNL     1      24.861  45.965  50.219  1.00  0.00     0.280 HD
HETATM    6  C   UNL     1      26.413  44.740  49.523  1.00  0.00     0.255 C 
HETATM    7  C   UNL     1      27.302  44.961  50.765  1.00  0.00     0.152 C 
ENDROOT
BRANCH   4   8
HETATM    8  C   UNL     1      24.002  44.900  48.692  1.00  0.00     0.338 C 
BRANCH   8   9
HETATM    9  C   UNL     1      22.696  45.647  48.979  1.00  0.00     0.262 C 
HETATM   10  N   UNL     1      22.848  46.962  49.360  1.00  0.00    -0.266 N 
HETATM   11  H   UNL     1      23.725  47.459  49.174  1.00  0.00     0.190 HD
HETATM   12  O   UNL     1      21.612  45.069  48.872  1.00  0.00    -0.270 OA
BRANCH  10  13
HETATM   13  N   UNL     1      21.726  47.805  49.227  1.00  0.00    -0.263 N 
HETATM   14  C   UNL     1      21.944  49.151  49.461  1.00  0.00     0.270 C 
HETATM   15  O   UNL     1      23.071  49.562  49.738  1.00  0.00    -0.266 OA
HETATM   16  H   UNL     1      20.814  47.378  49.083  1.00  0.00     0.190 HD
BRANCH  14  17
HETATM   17  C   UNL     1      20.776  50.070  49.394  1.00  0.00     0.033 A 
HETATM   18  C   UNL     1      20.771  51.230  48.609  1.00  0.00     0.018 A 
HETATM   19  C   UNL     1      19.645  52.062  48.597  1.00  0.00     0.020 A 
HETATM   20  C   UNL     1      18.530  51.737  49.371  1.00  0.00     0.011 A 
HETATM   21 BR   UNL     1      17.016  52.866  49.355  1.00  0.00    -0.051 Br
HETATM   22  C   UNL     1      18.529  50.590  50.161  1.00  0.00     0.020 A 
HETATM   23  C   UNL     1      19.653  49.759  50.176  1.00  0.00     0.018 A 
ENDBRANCH  14  17
ENDBRANCH  10  13
ENDBRANCH   8   9
ENDBRANCH   4   8
BRANCH   1  24
HETATM   24  C   UNL     1      27.402  42.879  52.004  1.00  0.00     0.169 A 
HETATM   25  N   UNL     1      27.524  42.056  50.984  1.00  0.00    -0.223 NA
HETATM   26  C   UNL     1      28.210  40.900  51.343  1.00  0.00     0.076 A 
HETATM   27  C   UNL     1      28.559  40.837  52.676  1.00  0.00     0.085 A 
HETATM   28  S   UNL     1      28.041  42.249  53.483  1.00  0.00    -0.062 SA
BRANCH  26  29
HETATM   29  C   UNL     1      28.557  39.881  50.358  1.00  0.00    -0.007 A 
HETATM   30  C   UNL     1      28.160  40.048  49.023  1.00  0.00     0.014 A 
HETATM   31  C   UNL     1      28.510  39.107  48.050  1.00  0.00     0.001 A 
HETATM   32  C   UNL     1      29.255  37.985  48.401  1.00  0.00     0.000 A 
HETATM   33  C   UNL     1      29.648  37.799  49.725  1.00  0.00     0.001 A 
HETATM   34  C   UNL     1      29.300  38.740  50.699  1.00  0.00     0.014 A 
ENDBRANCH  26  29
ENDBRANCH   1  24
TORSDOF 6
ENDMDL
MODEL 8
REMARK VINA RESULT:      -8.7      2.116      3.077
REMARK  6 active torsions:
REMARK  status: ('A' for Active; 'I' for Inactive)
REMARK    1  A    between atoms: C_4  and  C_5 
REMARK    2  A    between atoms: C_7  and  N_8 
REMARK    3  A    between atoms: N_11  and  C_13 
REMARK    4  A    between atoms: C_13  and  C_14 
REMARK       I    between atoms: C_14  and  N_15 
REMARK    5  A    between atoms: N_15  and  N_16 
REMARK       I    between atoms: N_16  and  C_17 
REMARK    6  A    between atoms: C_17  and  C_18 
ROOT
HETATM    1  N   UNL     1      25.211  42.877  51.126  1.00  0.00    -0.357 N 
HETATM    2  C   UNL     1      25.817  42.575  49.821  1.00  0.00     0.152 C 
HETATM    3  C   UNL     1      25.291  43.556  48.749  1.00  0.00     0.255 C 
HETATM    4  N   UNL     1      23.758  43.514  48.713  1.00  0.00    -0.060 N 
HETATM    5  H   UNL     1      23.515  42.541  48.462  1.00  0.00     0.280 HD
HETATM    6  C   UNL     1      23.164  43.816  50.088  1.00  0.00     0.255 C 
HETATM    7  C   UNL     1      23.737  42.835  51.132  1.00  0.00     0.152 C 
ENDROOT
BRANCH   4   8
HETATM    8  C   UNL     1      23.170  44.365  47.593  1.00  0.00     0.338 C 
BRANCH   8   9
HETATM    9  C   UNL     1      22.021  45.233  48.116  1.00  0.00     0.262 C 
HETATM   10  N   UNL     1      22.362  46.534  48.414  1.00  0.00    -0.266 N 
HETATM   11  H   UNL     1      23.220  46.946  48.036  1.00  0.00     0.190 HD
HETATM   12  O   UNL     1      20.893  44.754  48.253  1.00  0.00    -0.270 OA
BRANCH  10  13
HETATM   13  N   UNL     1      21.314  47.474  48.485  1.00  0.00    -0.263 N 
HETATM   14  C   UNL     1      21.640  48.712  49.009  1.00  0.00     0.270 C 
HETATM   15  O   UNL     1      22.795  48.958  49.355  1.00  0.00    -0.266 OA
HETATM   16  H   UNL     1      20.370  47.165  48.263  1.00  0.00     0.190 HD
BRANCH  14  17
HETATM   17  C   UNL     1      20.553  49.714  49.163  1.00  0.00     0.033 A 
HETATM   18  C   UNL     1      20.627  51.001  48.615  1.00  0.00     0.018 A 
HETATM   19  C   UNL     1      19.575  51.905  48.805  1.00  0.00     0.020 A 
HETATM   20  C   UNL     1      18.453  51.523  49.543  1.00  0.00     0.011 A 
HETATM   21 BR   UNL     1      17.039  52.749  49.799  1.00  0.00    -0.051 Br
HETATM   22  C   UNL     1      18.374  50.249  50.098  1.00  0.00     0.020 A 
HETATM   23  C   UNL     1      19.424  49.346  49.911  1.00  0.00     0.018 A 
ENDBRANCH  14  17
ENDBRANCH  10  13
ENDBRANCH   8   9
ENDBRANCH   4   8
BRANCH   1  24
HETATM   24  C   UNL     1      25.808  43.764  51.985  1.00  0.00     0.169 A 
HETATM   25  N   UNL     1      26.817  43.431  52.762  1.00  0.00    -0.223 NA
HETATM   26  C   UNL     1      27.301  44.529  53.464  1.00  0.00     0.076 A 
HETATM   27  C   UNL     1      26.602  45.698  53.245  1.00  0.00     0.085 A 
HETATM   28  S   UNL     1      25.337  45.422  52.134  1.00  0.00    -0.062 SA
BRANCH  26  29
HETATM   29  C   UNL     1      28.483  44.431  54.315  1.00  0.00    -0.007 A 
HETATM   30  C   UNL     1      29.358  43.346  54.159  1.00  0.00     0.014 A 
HETATM   31  C   UNL     1      30.517  43.244  54.934  1.00  0.00     0.001 A 
HETATM   32  C   UNL     1      30.810  44.223  55.881  1.00  0.00     0.000 A 
HETATM   33  C   UNL     1      29.945  45.301  56.056  1.00  0.00     0.001 A 
HETATM   34  C   UNL     1      28.787  45.404  55.280  1.00  0.00     0.014 A 
ENDBRANCH  26  29
ENDBRANCH   1  24
TORSDOF 6
ENDMDL
MODEL 9
REMARK VINA RESULT:      -8.6      3.092      3.727
REMARK  6 active torsions:
REMARK  status: ('A' for Active; 'I' for Inactive)
REMARK    1  A    between atoms: C_4  and  C_5 
REMARK    2  A    between atoms: C_7  and  N_8 
REMARK    3  A    between atoms: N_11  and  C_13 
REMARK    4  A    between atoms: C_13  and  C_14 
REMARK       I    between atoms: C_14  and  N_15 
REMARK    5  A    between atoms: N_15  and  N_16 
REMARK       I    between atoms: N_16  and  C_17 
REMARK    6  A    between atoms: C_17  and  C_18 
ROOT
HETATM    1  N   UNL     1      26.903  44.639  51.158  1.00  0.00    -0.357 N 
HETATM    2  C   UNL     1      26.121  45.498  50.256  1.00  0.00     0.152 C 
HETATM    3  C   UNL     1      24.621  45.139  50.346  1.00  0.00     0.255 C 
HETATM    4  N   UNL     1      24.426  43.645  50.056  1.00  0.00    -0.060 N 
HETATM    5  H   UNL     1      24.773  43.502  49.094  1.00  0.00     0.280 HD
HETATM    6  C   UNL     1      25.264  42.784  51.001  1.00  0.00     0.255 C 
HETATM    7  C   UNL     1      26.749  43.195  50.902  1.00  0.00     0.152 C 
ENDROOT
BRANCH   4   8
HETATM    8  C   UNL     1      22.956  43.241  50.005  1.00  0.00     0.338 C 
BRANCH   8   9
HETATM    9  C   UNL     1      22.186  44.117  49.012  1.00  0.00     0.262 C 
HETATM   10  N   UNL     1      21.144  44.836  49.555  1.00  0.00    -0.266 N 
HETATM   11  H   UNL     1      21.092  44.992  50.566  1.00  0.00     0.190 HD
HETATM   12  O   UNL     1      22.507  44.137  47.821  1.00  0.00    -0.270 OA
BRANCH  10  13
HETATM   13  N   UNL     1      20.681  45.949  48.825  1.00  0.00    -0.263 N 
HETATM   14  C   UNL     1      19.441  45.813  48.226  1.00  0.00     0.270 C 
HETATM   15  O   UNL     1      18.791  44.777  48.368  1.00  0.00    -0.266 OA
HETATM   16  H   UNL     1      21.315  46.732  48.682  1.00  0.00     0.190 HD
BRANCH  14  17
HETATM   17  C   UNL     1      18.940  46.938  47.394  1.00  0.00     0.033 A 
HETATM   18  C   UNL     1      19.484  48.227  47.458  1.00  0.00     0.018 A 
HETATM   19  C   UNL     1      18.959  49.249  46.657  1.00  0.00     0.020 A 
HETATM   20  C   UNL     1      17.893  48.982  45.797  1.00  0.00     0.011 A 
HETATM   21 BR   UNL     1      17.187  50.366  44.722  1.00  0.00    -0.051 Br
HETATM   22  C   UNL     1      17.340  47.706  45.733  1.00  0.00     0.020 A 
HETATM   23  C   UNL     1      17.861  46.685  46.533  1.00  0.00     0.018 A 
ENDBRANCH  14  17
ENDBRANCH  10  13
ENDBRANCH   8   9
ENDBRANCH   4   8
BRANCH   1  24
HETATM   24  C   UNL     1      27.133  45.016  52.456  1.00  0.00     0.169 A 
HETATM   25  N   UNL     1      28.091  44.491  53.190  1.00  0.00    -0.223 NA
HETATM   26  C   UNL     1      28.176  45.110  54.433  1.00  0.00     0.076 A 
HETATM   27  C   UNL     1      27.223  46.083  54.650  1.00  0.00     0.085 A 
HETATM   28  S   UNL     1      26.222  46.238  53.276  1.00  0.00    -0.062 SA
BRANCH  26  29
HETATM   29  C   UNL     1      29.228  44.769  55.385  1.00  0.00    -0.007 A 
HETATM   30  C   UNL     1      30.033  43.644  55.151  1.00  0.00     0.014 A 
HETATM   31  C   UNL     1      31.072  43.314  56.027  1.00  0.00     0.001 A 
HETATM   32  C   UNL     1      31.313  44.100  57.150  1.00  0.00     0.000 A 
HETATM   33  C   UNL     1      30.515  45.214  57.403  1.00  0.00     0.001 A 
HETATM   34  C   UNL     1      29.477  45.546  56.527  1.00  0.00     0.014 A 
ENDBRANCH  26  29
ENDBRANCH   1  24
TORSDOF 6
ENDMDL
MODEL 10
REMARK VINA RESULT:      -8.6      4.699     11.382
REMARK  6 active torsions:
REMARK  status: ('A' for Active; 'I' for Inactive)
REMARK    1  A    between atoms: C_4  and  C_5 
REMARK    2  A    between atoms: C_7  and  N_8 
REMARK    3  A    between atoms: N_11  and  C_13 
REMARK    4  A    between atoms: C_13  and  C_14 
REMARK       I    between atoms: C_14  and  N_15 
REMARK    5  A    between atoms: N_15  and  N_16 
REMARK       I    between atoms: N_16  and  C_17 
REMARK    6  A    between atoms: C_17  and  C_18 
ROOT
HETATM    1  N   UNL     1      22.127  46.607  47.572  1.00  0.00    -0.357 N 
HETATM    2  C   UNL     1      22.149  45.516  46.586  1.00  0.00     0.152 C 
HETATM    3  C   UNL     1      22.142  44.148  47.304  1.00  0.00     0.255 C 
HETATM    4  N   UNL     1      23.312  44.074  48.294  1.00  0.00    -0.060 N 
HETATM    5  H   UNL     1      24.166  44.176  47.721  1.00  0.00     0.280 HD
HETATM    6  C   UNL     1      23.265  45.230  49.292  1.00  0.00     0.255 C 
HETATM    7  C   UNL     1      23.244  46.575  48.534  1.00  0.00     0.152 C 
ENDROOT
BRANCH   4   8
HETATM    8  C   UNL     1      23.443  42.705  48.952  1.00  0.00     0.338 C 
BRANCH   8   9
HETATM    9  C   UNL     1      24.342  42.781  50.190  1.00  0.00     0.262 C 
HETATM   10  N   UNL     1      25.687  42.917  49.926  1.00  0.00    -0.266 N 
HETATM   11  H   UNL     1      26.006  43.236  49.006  1.00  0.00     0.190 HD
HETATM   12  O   UNL     1      23.852  42.712  51.320  1.00  0.00    -0.270 OA
BRANCH  10  13
HETATM   13  N   UNL     1      26.501  43.409  50.966  1.00  0.00    -0.263 N 
HETATM   14  C   UNL     1      27.477  42.549  51.436  1.00  0.00     0.270 C 
HETATM   15  O   UNL     1      27.622  41.436  50.931  1.00  0.00    -0.266 OA
HETATM   16  H   UNL     1      26.260  44.304  51.387  1.00  0.00     0.190 HD
BRANCH  14  17
HETATM   17  C   UNL     1      28.318  43.002  52.575  1.00  0.00     0.033 A 
HETATM   18  C   UNL     1      29.600  42.492  52.818  1.00  0.00     0.018 A 
HETATM   19  C   UNL     1      30.339  42.950  53.917  1.00  0.00     0.020 A 
HETATM   20  C   UNL     1      29.796  43.912  54.769  1.00  0.00     0.011 A 
HETATM   21 BR   UNL     1      30.795  44.522  56.252  1.00  0.00    -0.051 Br
HETATM   22  C   UNL     1      28.519  44.418  54.540  1.00  0.00     0.020 A 
HETATM   23  C   UNL     1      27.779  43.961  53.446  1.00  0.00     0.018 A 
ENDBRANCH  14  17
ENDBRANCH  10  13
ENDBRANCH   8   9
ENDBRANCH   4   8
BRANCH   1  24
HETATM   24  C   UNL     1      20.936  47.116  48.021  1.00  0.00     0.169 A 
HETATM   25  N   UNL     1      20.748  48.401  48.233  1.00  0.00    -0.223 NA
HETATM   26  C   UNL     1      19.431  48.669  48.594  1.00  0.00     0.076 A 
HETATM   27  C   UNL     1      18.633  47.549  48.708  1.00  0.00     0.085 A 
HETATM   28  S   UNL     1      19.537  46.149  48.338  1.00  0.00    -0.062 SA
BRANCH  26  29
HETATM   29  C   UNL     1      18.954  50.035  48.783  1.00  0.00    -0.007 A 
HETATM   30  C   UNL     1      17.823  50.268  49.579  1.00  0.00     0.014 A 
HETATM   31  C   UNL     1      17.364  51.569  49.807  1.00  0.00     0.001 A 
HETATM   32  C   UNL     1      18.027  52.652  49.236  1.00  0.00     0.000 A 
HETATM   33  C   UNL     1      19.146  52.436  48.434  1.00  0.00     0.001 A 
HETATM   34  C   UNL     1      19.606  51.136  48.206  1.00  0.00     0.014 A 
ENDBRANCH  26  29
ENDBRANCH   1  24
TORSDOF 6
ENDMDL
