MODEL 1
REMARK VINA RESULT:      -9.6      0.000      0.000
REMARK  8 active torsions:
REMARK  status: ('A' for Active; 'I' for Inactive)
REMARK    1  A    between atoms: C_6  and  N_7 
REMARK    2  A    between atoms: C_6  and  C_26 
REMARK       I    between atoms: N_7  and  C_8 
REMARK    3  A    between atoms: N_7  and  C_23 
REMARK    4  A    between atoms: C_8  and  C_9 
REMARK    5  A    between atoms: C_9  and  N_10 
REMARK    6  A    between atoms: C_14  and  C_15 
REMARK       I    between atoms: C_26  and  N_27 
REMARK    7  A    between atoms: N_27  and  C_28 
REMARK    8  A    between atoms: C_31  and  N_32 
ROOT
HETATM    1  C   UNL     1      17.629  45.643  46.202  1.00  0.00     0.269 C 
HETATM    2  N   UNL     1      18.840  46.270  46.847  1.00  0.00    -0.075 N 
HETATM    3  H   UNL     1      19.648  45.714  46.522  1.00  0.00     0.279 HD
HETATM    4  C   UNL     1      19.027  47.691  46.380  1.00  0.00     0.237 C 
HETATM    5  C   UNL     1      20.251  48.333  47.031  1.00  0.00     0.069 C 
HETATM    6  C   UNL     1      20.328  48.168  48.568  1.00  0.00     0.120 C 
HETATM    7  C   UNL     1      20.070  46.686  48.931  1.00  0.00     0.069 C 
HETATM    8  C   UNL     1      18.771  46.148  48.348  1.00  0.00     0.237 C 
ENDROOT
BRANCH   6   9
HETATM    9  N   UNL     1      21.648  48.700  49.100  1.00  0.00    -0.328 N 
HETATM   10  C   UNL     1      22.857  48.020  49.316  1.00  0.00     0.239 C 
HETATM   11  O   UNL     1      23.726  48.518  50.047  1.00  0.00    -0.271 OA
BRANCH  10  12
HETATM   12  C   UNL     1      23.138  46.642  48.713  1.00  0.00     0.228 C 
BRANCH  12  13
HETATM   13  N   UNL     1      24.093  45.841  49.477  1.00  0.00    -0.347 N 
HETATM   14  C   UNL     1      23.949  44.499  49.840  1.00  0.00     0.171 C 
HETATM   15  S   UNL     1      22.597  43.544  49.771  1.00  0.00    -0.041 SA
HETATM   16  N   UNL     1      25.157  44.067  50.357  1.00  0.00    -0.357 N 
HETATM   17  C   UNL     1      26.102  45.158  50.504  1.00  0.00     0.135 C 
HETATM   18  H   UNL     1      25.306  43.127  50.704  1.00  0.00     0.162 HD
HETATM   19  C   UNL     1      25.509  46.197  49.532  1.00  0.00     0.155 C 
BRANCH  17  20
HETATM   20  C   UNL     1      26.195  45.668  51.940  1.00  0.00    -0.034 A 
HETATM   21  C   UNL     1      26.005  47.020  52.276  1.00  0.00     0.009 A 
HETATM   22  C   UNL     1      26.064  47.449  53.605  1.00  0.00     0.001 A 
HETATM   23  C   UNL     1      26.307  46.535  54.625  1.00  0.00     0.000 A 
HETATM   24  C   UNL     1      26.479  45.189  54.319  1.00  0.00     0.001 A 
HETATM   25  C   UNL     1      26.412  44.758  52.992  1.00  0.00     0.009 A 
ENDBRANCH  17  20
ENDBRANCH  12  13
ENDBRANCH  10  12
BRANCH   9  26
HETATM   26  C   UNL     1      21.750  50.148  49.342  1.00  0.00     0.088 A 
HETATM   27  C   UNL     1      22.823  50.930  48.615  1.00  0.00     0.027 A 
HETATM   28  C   UNL     1      21.383  51.255  48.388  1.00  0.00     0.027 A 
ENDBRANCH   9  26
ENDBRANCH   6   9
BRANCH   6  29
HETATM   29  C   UNL     1      19.130  48.905  49.271  1.00  0.00     0.251 C 
HETATM   30  N   UNL     1      18.423  49.744  48.422  1.00  0.00    -0.325 N 
HETATM   31  H   UNL     1      18.510  49.569  47.425  1.00  0.00     0.169 HD
HETATM   32  O   UNL     1      19.025  48.880  50.494  1.00  0.00    -0.270 OA
BRANCH  30  33
HETATM   33  C   UNL     1      17.635  50.855  48.787  1.00  0.00     0.034 A 
HETATM   34  C   UNL     1      18.079  51.893  49.596  1.00  0.00     0.032 A 
HETATM   35  C   UNL     1      17.262  53.007  49.837  1.00  0.00     0.031 A 
HETATM   36  C   UNL     1      15.983  53.138  49.278  1.00  0.00     0.030 A 
HETATM   37  C   UNL     1      15.539  52.061  48.500  1.00  0.00     0.031 A 
HETATM   38  C   UNL     1      16.350  50.940  48.251  1.00  0.00     0.032 A 
BRANCH  36  39
HETATM   39  N   UNL     1      15.211  54.262  49.552  1.00  0.00    -0.377 N 
HETATM   40  C   UNL     1      13.798  54.267  49.099  1.00  0.00     0.149 C 
HETATM   41  C   UNL     1      12.881  53.771  50.231  1.00  0.00     0.187 C 
HETATM   42  O   UNL     1      13.036  54.557  51.423  1.00  0.00    -0.388 OA
HETATM   43  C   UNL     1      14.398  54.523  51.881  1.00  0.00     0.187 C 
HETATM   44  C   UNL     1      15.370  55.030  50.805  1.00  0.00     0.149 C 
ENDBRANCH  36  39
ENDBRANCH  30  33
ENDBRANCH   6  29
TORSDOF 8
ENDMDL
MODEL 2
REMARK VINA RESULT:      -8.9      3.197      5.973
REMARK  8 active torsions:
REMARK  status: ('A' for Active; 'I' for Inactive)
REMARK    1  A    between atoms: C_6  and  N_7 
REMARK    2  A    between atoms: C_6  and  C_26 
REMARK       I    between atoms: N_7  and  C_8 
REMARK    3  A    between atoms: N_7  and  C_23 
REMARK    4  A    between atoms: C_8  and  C_9 
REMARK    5  A    between atoms: C_9  and  N_10 
REMARK    6  A    between atoms: C_14  and  C_15 
REMARK       I    between atoms: C_26  and  N_27 
REMARK    7  A    between atoms: N_27  and  C_28 
REMARK    8  A    between atoms: C_31  and  N_32 
ROOT
HETATM    1  C   UNL     1      20.885  42.363  44.244  1.00  0.00     0.269 C 
HETATM    2  N   UNL     1      21.995  42.222  45.256  1.00  0.00    -0.075 N 
HETATM    3  H   UNL     1      22.612  41.478  44.890  1.00  0.00     0.279 HD
HETATM    4  C   UNL     1      22.797  43.493  45.360  1.00  0.00     0.237 C 
HETATM    5  C   UNL     1      23.922  43.358  46.385  1.00  0.00     0.069 C 
HETATM    6  C   UNL     1      23.485  42.785  47.755  1.00  0.00     0.120 C 
HETATM    7  C   UNL     1      22.628  41.518  47.521  1.00  0.00     0.069 C 
HETATM    8  C   UNL     1      21.452  41.757  46.584  1.00  0.00     0.237 C 
ENDROOT
BRANCH   6   9
HETATM    9  N   UNL     1      24.691  42.544  48.646  1.00  0.00    -0.328 N 
HETATM   10  C   UNL     1      25.585  43.472  49.202  1.00  0.00     0.239 C 
HETATM   11  O   UNL     1      26.684  43.092  49.630  1.00  0.00    -0.271 OA
BRANCH  10  12
HETATM   12  C   UNL     1      25.274  44.969  49.262  1.00  0.00     0.228 C 
BRANCH  12  13
HETATM   13  N   UNL     1      25.555  45.583  50.559  1.00  0.00    -0.347 N 
HETATM   14  C   UNL     1      25.947  46.906  50.784  1.00  0.00     0.171 C 
HETATM   15  S   UNL     1      26.469  48.035  49.689  1.00  0.00    -0.041 SA
HETATM   16  N   UNL     1      25.895  47.138  52.147  1.00  0.00    -0.357 N 
HETATM   17  C   UNL     1      25.618  45.924  52.891  1.00  0.00     0.135 C 
HETATM   18  H   UNL     1      26.146  48.025  52.566  1.00  0.00     0.162 HD
HETATM   19  C   UNL     1      24.994  45.039  51.794  1.00  0.00     0.155 C 
BRANCH  17  20
HETATM   20  C   UNL     1      26.873  45.312  53.508  1.00  0.00    -0.034 A 
HETATM   21  C   UNL     1      27.623  45.965  54.503  1.00  0.00     0.009 A 
HETATM   22  C   UNL     1      28.749  45.362  55.072  1.00  0.00     0.001 A 
HETATM   23  C   UNL     1      29.144  44.092  54.662  1.00  0.00     0.000 A 
HETATM   24  C   UNL     1      28.407  43.418  53.694  1.00  0.00     0.001 A 
HETATM   25  C   UNL     1      27.277  44.017  53.132  1.00  0.00     0.009 A 
ENDBRANCH  17  20
ENDBRANCH  12  13
ENDBRANCH  10  12
BRANCH   9  26
HETATM   26  C   UNL     1      24.935  41.165  49.099  1.00  0.00     0.088 A 
HETATM   27  C   UNL     1      25.658  40.214  48.168  1.00  0.00     0.027 A 
HETATM   28  C   UNL     1      26.258  40.559  49.492  1.00  0.00     0.027 A 
ENDBRANCH   9  26
ENDBRANCH   6   9
BRANCH   6  29
HETATM   29  C   UNL     1      22.473  43.754  48.469  1.00  0.00     0.251 C 
HETATM   30  N   UNL     1      22.259  44.937  47.777  1.00  0.00    -0.325 N 
HETATM   31  H   UNL     1      22.482  44.937  46.786  1.00  0.00     0.169 HD
HETATM   32  O   UNL     1      22.124  43.534  49.626  1.00  0.00    -0.270 OA
BRANCH  30  33
HETATM   33  C   UNL     1      21.814  46.165  48.310  1.00  0.00     0.034 A 
HETATM   34  C   UNL     1      22.654  47.226  48.625  1.00  0.00     0.032 A 
HETATM   35  C   UNL     1      22.122  48.447  49.066  1.00  0.00     0.031 A 
HETATM   36  C   UNL     1      20.743  48.664  49.197  1.00  0.00     0.030 A 
HETATM   37  C   UNL     1      19.918  47.568  48.913  1.00  0.00     0.031 A 
HETATM   38  C   UNL     1      20.440  46.341  48.471  1.00  0.00     0.032 A 
BRANCH  36  39
HETATM   39  N   UNL     1      20.268  49.894  49.641  1.00  0.00    -0.377 N 
HETATM   40  C   UNL     1      20.516  51.085  48.792  1.00  0.00     0.149 C 
HETATM   41  C   UNL     1      19.315  51.331  47.863  1.00  0.00     0.187 C 
HETATM   42  O   UNL     1      18.092  51.479  48.603  1.00  0.00    -0.388 OA
HETATM   43  C   UNL     1      17.834  50.310  49.398  1.00  0.00     0.187 C 
HETATM   44  C   UNL     1      18.989  50.019  50.370  1.00  0.00     0.149 C 
ENDBRANCH  36  39
ENDBRANCH  30  33
ENDBRANCH   6  29
TORSDOF 8
ENDMDL
MODEL 3
REMARK VINA RESULT:      -8.5      2.290      3.788
REMARK  8 active torsions:
REMARK  status: ('A' for Active; 'I' for Inactive)
REMARK    1  A    between atoms: C_6  and  N_7 
REMARK    2  A    between atoms: C_6  and  C_26 
REMARK       I    between atoms: N_7  and  C_8 
REMARK    3  A    between atoms: N_7  and  C_23 
REMARK    4  A    between atoms: C_8  and  C_9 
REMARK    5  A    between atoms: C_9  and  N_10 
REMARK    6  A    between atoms: C_14  and  C_15 
REMARK       I    between atoms: C_26  and  N_27 
REMARK    7  A    between atoms: N_27  and  C_28 
REMARK    8  A    between atoms: C_31  and  N_32 
ROOT
HETATM    1  C   UNL     1      17.929  49.297  43.106  1.00  0.00     0.269 C 
HETATM    2  N   UNL     1      18.244  49.214  44.580  1.00  0.00    -0.075 N 
HETATM    3  H   UNL     1      19.099  48.638  44.649  1.00  0.00     0.279 HD
HETATM    4  C   UNL     1      18.545  50.577  45.146  1.00  0.00     0.237 C 
HETATM    5  C   UNL     1      18.862  50.501  46.639  1.00  0.00     0.069 C 
HETATM    6  C   UNL     1      17.845  49.690  47.477  1.00  0.00     0.120 C 
HETATM    7  C   UNL     1      17.575  48.338  46.774  1.00  0.00     0.069 C 
HETATM    8  C   UNL     1      17.145  48.497  45.322  1.00  0.00     0.237 C 
ENDROOT
BRANCH   6   9
HETATM    9  N   UNL     1      18.326  49.541  48.910  1.00  0.00    -0.328 N 
HETATM   10  C   UNL     1      18.674  48.378  49.613  1.00  0.00     0.239 C 
HETATM   11  O   UNL     1      18.734  48.398  50.851  1.00  0.00    -0.271 OA
BRANCH  10  12
HETATM   12  C   UNL     1      18.945  47.047  48.908  1.00  0.00     0.228 C 
BRANCH  12  13
HETATM   13  N   UNL     1      20.329  46.878  48.469  1.00  0.00    -0.347 N 
HETATM   14  C   UNL     1      20.789  45.981  47.500  1.00  0.00     0.171 C 
HETATM   15  S   UNL     1      19.993  44.705  46.804  1.00  0.00    -0.041 SA
HETATM   16  N   UNL     1      22.110  46.289  47.229  1.00  0.00    -0.357 N 
HETATM   17  C   UNL     1      22.623  47.304  48.130  1.00  0.00     0.135 C 
HETATM   18  H   UNL     1      22.673  45.772  46.565  1.00  0.00     0.162 HD
HETATM   19  C   UNL     1      21.313  47.946  48.631  1.00  0.00     0.155 C 
BRANCH  17  20
HETATM   20  C   UNL     1      23.470  46.719  49.257  1.00  0.00    -0.034 A 
HETATM   21  C   UNL     1      23.587  45.336  49.475  1.00  0.00     0.009 A 
HETATM   22  C   UNL     1      24.398  44.831  50.497  1.00  0.00     0.001 A 
HETATM   23  C   UNL     1      25.113  45.700  51.316  1.00  0.00     0.000 A 
HETATM   24  C   UNL     1      25.028  47.073  51.106  1.00  0.00     0.001 A 
HETATM   25  C   UNL     1      24.225  47.577  50.080  1.00  0.00     0.009 A 
ENDBRANCH  17  20
ENDBRANCH  12  13
ENDBRANCH  10  12
BRANCH   9  26
HETATM   26  C   UNL     1      18.573  50.774  49.675  1.00  0.00     0.088 A 
HETATM   27  C   UNL     1      20.005  51.174  49.961  1.00  0.00     0.027 A 
HETATM   28  C   UNL     1      19.130  52.072  49.150  1.00  0.00     0.027 A 
ENDBRANCH   9  26
ENDBRANCH   6   9
BRANCH   6  29
HETATM   29  C   UNL     1      16.429  50.375  47.454  1.00  0.00     0.251 C 
HETATM   30  N   UNL     1      16.477  51.733  47.174  1.00  0.00    -0.325 N 
HETATM   31  H   UNL     1      17.311  52.077  46.706  1.00  0.00     0.169 HD
HETATM   32  O   UNL     1      15.447  49.770  47.876  1.00  0.00    -0.270 OA
BRANCH  30  33
HETATM   33  C   UNL     1      15.515  52.706  47.515  1.00  0.00     0.034 A 
HETATM   34  C   UNL     1      14.671  53.321  46.599  1.00  0.00     0.032 A 
HETATM   35  C   UNL     1      13.678  54.212  47.033  1.00  0.00     0.031 A 
HETATM   36  C   UNL     1      13.479  54.516  48.387  1.00  0.00     0.030 A 
HETATM   37  C   UNL     1      14.367  53.917  49.288  1.00  0.00     0.031 A 
HETATM   38  C   UNL     1      15.365  53.022  48.865  1.00  0.00     0.032 A 
BRANCH  36  39
HETATM   39  N   UNL     1      12.482  55.409  48.764  1.00  0.00    -0.377 N 
HETATM   40  C   UNL     1      11.641  55.063  49.936  1.00  0.00     0.149 C 
HETATM   41  C   UNL     1      12.228  55.696  51.211  1.00  0.00     0.187 C 
HETATM   42  O   UNL     1      12.362  57.121  51.083  1.00  0.00    -0.388 OA
HETATM   43  C   UNL     1      13.205  57.454  49.967  1.00  0.00     0.187 C 
HETATM   44  C   UNL     1      12.663  56.872  48.653  1.00  0.00     0.149 C 
ENDBRANCH  36  39
ENDBRANCH  30  33
ENDBRANCH   6  29
TORSDOF 8
ENDMDL
MODEL 4
REMARK VINA RESULT:      -8.5     15.567     18.933
REMARK  8 active torsions:
REMARK  status: ('A' for Active; 'I' for Inactive)
REMARK    1  A    between atoms: C_6  and  N_7 
REMARK    2  A    between atoms: C_6  and  C_26 
REMARK       I    between atoms: N_7  and  C_8 
REMARK    3  A    between atoms: N_7  and  C_23 
REMARK    4  A    between atoms: C_8  and  C_9 
REMARK    5  A    between atoms: C_9  and  N_10 
REMARK    6  A    between atoms: C_14  and  C_15 
REMARK       I    between atoms: C_26  and  N_27 
REMARK    7  A    between atoms: N_27  and  C_28 
REMARK    8  A    between atoms: C_31  and  N_32 
ROOT
HETATM    1  C   UNL     1      37.902  53.252  38.218  1.00  0.00     0.269 C 
HETATM    2  N   UNL     1      38.344  52.629  39.519  1.00  0.00    -0.075 N 
HETATM    3  H   UNL     1      39.258  52.189  39.320  1.00  0.00     0.279 HD
HETATM    4  C   UNL     1      38.547  53.680  40.579  1.00  0.00     0.237 C 
HETATM    5  C   UNL     1      38.993  53.056  41.901  1.00  0.00     0.069 C 
HETATM    6  C   UNL     1      38.138  51.855  42.372  1.00  0.00     0.120 C 
HETATM    7  C   UNL     1      37.953  50.873  41.190  1.00  0.00     0.069 C 
HETATM    8  C   UNL     1      37.390  51.541  39.943  1.00  0.00     0.237 C 
ENDROOT
BRANCH   6   9
HETATM    9  N   UNL     1      38.749  51.210  43.604  1.00  0.00    -0.328 N 
HETATM   10  C   UNL     1      38.906  51.735  44.895  1.00  0.00     0.239 C 
HETATM   11  O   UNL     1      39.703  51.208  45.685  1.00  0.00    -0.271 OA
BRANCH  10  12
HETATM   12  C   UNL     1      38.154  52.982  45.367  1.00  0.00     0.228 C 
BRANCH  12  13
HETATM   13  N   UNL     1      39.022  54.115  45.684  1.00  0.00    -0.347 N 
HETATM   14  C   UNL     1      39.456  54.499  46.957  1.00  0.00     0.171 C 
HETATM   15  S   UNL     1      38.910  53.991  48.436  1.00  0.00    -0.041 SA
HETATM   16  N   UNL     1      40.425  55.473  46.799  1.00  0.00    -0.357 N 
HETATM   17  C   UNL     1      40.555  55.886  45.414  1.00  0.00     0.135 C 
HETATM   18  H   UNL     1      40.888  55.923  47.579  1.00  0.00     0.162 HD
HETATM   19  C   UNL     1      39.926  54.682  44.685  1.00  0.00     0.155 C 
BRANCH  17  20
HETATM   20  C   UNL     1      39.839  57.202  45.121  1.00  0.00    -0.034 A 
HETATM   21  C   UNL     1      40.521  58.427  45.015  1.00  0.00     0.009 A 
HETATM   22  C   UNL     1      39.839  59.609  44.712  1.00  0.00     0.001 A 
HETATM   23  C   UNL     1      38.463  59.590  44.504  1.00  0.00     0.000 A 
HETATM   24  C   UNL     1      37.770  58.386  44.584  1.00  0.00     0.001 A 
HETATM   25  C   UNL     1      38.452  57.203  44.877  1.00  0.00     0.009 A 
ENDBRANCH  17  20
ENDBRANCH  12  13
ENDBRANCH  10  12
BRANCH   9  26
HETATM   26  C   UNL     1      39.156  49.799  43.500  1.00  0.00     0.088 A 
HETATM   27  C   UNL     1      40.536  49.481  42.964  1.00  0.00     0.027 A 
HETATM   28  C   UNL     1      40.168  49.082  44.356  1.00  0.00     0.027 A 
ENDBRANCH   9  26
ENDBRANCH   6   9
BRANCH   6  29
HETATM   29  C   UNL     1      36.662  52.304  42.676  1.00  0.00     0.251 C 
HETATM   30  N   UNL     1      35.809  51.246  42.955  1.00  0.00    -0.325 N 
HETATM   31  H   UNL     1      36.240  50.376  43.256  1.00  0.00     0.169 HD
HETATM   32  O   UNL     1      36.310  53.458  42.446  1.00  0.00    -0.270 OA
BRANCH  30  33
HETATM   33  C   UNL     1      34.406  51.225  42.817  1.00  0.00     0.034 A 
HETATM   34  C   UNL     1      33.521  51.687  43.784  1.00  0.00     0.032 A 
HETATM   35  C   UNL     1      32.142  51.716  43.531  1.00  0.00     0.031 A 
HETATM   36  C   UNL     1      31.592  51.300  42.310  1.00  0.00     0.030 A 
HETATM   37  C   UNL     1      32.497  50.799  41.367  1.00  0.00     0.031 A 
HETATM   38  C   UNL     1      33.881  50.767  41.609  1.00  0.00     0.032 A 
BRANCH  36  39
HETATM   39  N   UNL     1      30.216  51.345  42.112  1.00  0.00    -0.377 N 
HETATM   40  C   UNL     1      29.580  52.675  41.938  1.00  0.00     0.149 C 
HETATM   41  C   UNL     1      29.472  53.016  40.441  1.00  0.00     0.187 C 
HETATM   42  O   UNL     1      28.750  52.007  39.717  1.00  0.00    -0.388 OA
HETATM   43  C   UNL     1      29.387  50.726  39.857  1.00  0.00     0.187 C 
HETATM   44  C   UNL     1      29.505  50.310  41.332  1.00  0.00     0.149 C 
ENDBRANCH  36  39
ENDBRANCH  30  33
ENDBRANCH   6  29
TORSDOF 8
ENDMDL
MODEL 5
REMARK VINA RESULT:      -8.5      3.076      4.670
REMARK  8 active torsions:
REMARK  status: ('A' for Active; 'I' for Inactive)
REMARK    1  A    between atoms: C_6  and  N_7 
REMARK    2  A    between atoms: C_6  and  C_26 
REMARK       I    between atoms: N_7  and  C_8 
REMARK    3  A    between atoms: N_7  and  C_23 
REMARK    4  A    between atoms: C_8  and  C_9 
REMARK    5  A    between atoms: C_9  and  N_10 
REMARK    6  A    between atoms: C_14  and  C_15 
REMARK       I    between atoms: C_26  and  N_27 
REMARK    7  A    between atoms: N_27  and  C_28 
REMARK    8  A    between atoms: C_31  and  N_32 
ROOT
HETATM    1  C   UNL     1      20.417  44.043  45.351  1.00  0.00     0.269 C 
HETATM    2  N   UNL     1      21.267  44.161  46.591  1.00  0.00    -0.075 N 
HETATM    3  H   UNL     1      21.417  43.192  46.919  1.00  0.00     0.279 HD
HETATM    4  C   UNL     1      22.610  44.764  46.270  1.00  0.00     0.237 C 
HETATM    5  C   UNL     1      23.477  44.889  47.522  1.00  0.00     0.069 C 
HETATM    6  C   UNL     1      22.774  45.547  48.734  1.00  0.00     0.120 C 
HETATM    7  C   UNL     1      21.389  44.886  48.934  1.00  0.00     0.069 C 
HETATM    8  C   UNL     1      20.532  44.906  47.676  1.00  0.00     0.237 C 
ENDROOT
BRANCH   6   9
HETATM    9  N   UNL     1      23.658  45.485  49.968  1.00  0.00    -0.328 N 
HETATM   10  C   UNL     1      23.965  44.386  50.785  1.00  0.00     0.239 C 
HETATM   11  O   UNL     1      24.432  44.570  51.919  1.00  0.00    -0.271 OA
BRANCH  10  12
HETATM   12  C   UNL     1      23.703  42.944  50.347  1.00  0.00     0.228 C 
BRANCH  12  13
HETATM   13  N   UNL     1      24.742  42.386  49.483  1.00  0.00    -0.347 N 
HETATM   14  C   UNL     1      24.541  41.646  48.314  1.00  0.00     0.171 C 
HETATM   15  S   UNL     1      23.143  40.965  47.743  1.00  0.00    -0.041 SA
HETATM   16  N   UNL     1      25.766  41.500  47.689  1.00  0.00    -0.357 N 
HETATM   17  C   UNL     1      26.854  42.003  48.507  1.00  0.00     0.135 C 
HETATM   18  H   UNL     1      25.888  40.989  46.823  1.00  0.00     0.162 HD
HETATM   19  C   UNL     1      26.094  42.941  49.467  1.00  0.00     0.155 C 
BRANCH  17  20
HETATM   20  C   UNL     1      27.608  40.891  49.233  1.00  0.00    -0.034 A 
HETATM   21  C   UNL     1      28.015  39.709  48.590  1.00  0.00     0.009 A 
HETATM   22  C   UNL     1      28.735  38.725  49.276  1.00  0.00     0.001 A 
HETATM   23  C   UNL     1      29.066  38.906  50.615  1.00  0.00     0.000 A 
HETATM   24  C   UNL     1      28.691  40.077  51.266  1.00  0.00     0.001 A 
HETATM   25  C   UNL     1      27.981  41.064  50.580  1.00  0.00     0.009 A 
ENDBRANCH  17  20
ENDBRANCH  12  13
ENDBRANCH  10  12
BRANCH   9  26
HETATM   26  C   UNL     1      24.396  46.703  50.337  1.00  0.00     0.088 A 
HETATM   27  C   UNL     1      25.909  46.652  50.367  1.00  0.00     0.027 A 
HETATM   28  C   UNL     1      25.215  47.580  49.424  1.00  0.00     0.027 A 
ENDBRANCH   9  26
ENDBRANCH   6   9
BRANCH   6  29
HETATM   29  C   UNL     1      22.396  47.041  48.418  1.00  0.00     0.251 C 
HETATM   30  N   UNL     1      21.569  47.614  49.372  1.00  0.00    -0.325 N 
HETATM   31  H   UNL     1      21.554  47.179  50.290  1.00  0.00     0.169 HD
HETATM   32  O   UNL     1      22.647  47.518  47.314  1.00  0.00    -0.270 OA
BRANCH  30  33
HETATM   33  C   UNL     1      20.697  48.709  49.194  1.00  0.00     0.034 A 
HETATM   34  C   UNL     1      21.012  50.018  49.537  1.00  0.00     0.032 A 
HETATM   35  C   UNL     1      20.125  51.064  49.243  1.00  0.00     0.031 A 
HETATM   36  C   UNL     1      18.902  50.852  48.589  1.00  0.00     0.030 A 
HETATM   37  C   UNL     1      18.587  49.521  48.290  1.00  0.00     0.031 A 
HETATM   38  C   UNL     1      19.469  48.466  48.579  1.00  0.00     0.032 A 
BRANCH  36  39
HETATM   39  N   UNL     1      18.057  51.924  48.324  1.00  0.00    -0.377 N 
HETATM   40  C   UNL     1      17.026  51.756  47.270  1.00  0.00     0.149 C 
HETATM   41  C   UNL     1      15.699  51.295  47.899  1.00  0.00     0.187 C 
HETATM   42  O   UNL     1      15.247  52.207  48.913  1.00  0.00    -0.388 OA
HETATM   43  C   UNL     1      16.232  52.342  49.951  1.00  0.00     0.187 C 
HETATM   44  C   UNL     1      17.580  52.825  49.394  1.00  0.00     0.149 C 
ENDBRANCH  36  39
ENDBRANCH  30  33
ENDBRANCH   6  29
TORSDOF 8
ENDMDL
MODEL 6
REMARK VINA RESULT:      -8.2     23.201     28.184
REMARK  8 active torsions:
REMARK  status: ('A' for Active; 'I' for Inactive)
REMARK    1  A    between atoms: C_6  and  N_7 
REMARK    2  A    between atoms: C_6  and  C_26 
REMARK       I    between atoms: N_7  and  C_8 
REMARK    3  A    between atoms: N_7  and  C_23 
REMARK    4  A    between atoms: C_8  and  C_9 
REMARK    5  A    between atoms: C_9  and  N_10 
REMARK    6  A    between atoms: C_14  and  C_15 
REMARK       I    between atoms: C_26  and  N_27 
REMARK    7  A    between atoms: N_27  and  C_28 
REMARK    8  A    between atoms: C_31  and  N_32 
ROOT
HETATM    1  C   UNL     1      40.028  44.710  71.615  1.00  0.00     0.269 C 
HETATM    2  N   UNL     1      40.419  45.123  70.218  1.00  0.00    -0.075 N 
HETATM    3  H   UNL     1      40.568  46.145  70.261  1.00  0.00     0.279 HD
HETATM    4  C   UNL     1      41.715  44.475  69.806  1.00  0.00     0.237 C 
HETATM    5  C   UNL     1      42.117  44.887  68.390  1.00  0.00     0.069 C 
HETATM    6  C   UNL     1      40.994  44.758  67.334  1.00  0.00     0.120 C 
HETATM    7  C   UNL     1      39.704  45.410  67.887  1.00  0.00     0.069 C 
HETATM    8  C   UNL     1      39.295  44.862  69.247  1.00  0.00     0.237 C 
ENDROOT
BRANCH   6   9
HETATM    9  N   UNL     1      41.439  45.335  66.001  1.00  0.00    -0.328 N 
HETATM   10  C   UNL     1      40.662  45.796  64.928  1.00  0.00     0.239 C 
HETATM   11  O   UNL     1      41.171  45.930  63.806  1.00  0.00    -0.271 OA
BRANCH  10  12
HETATM   12  C   UNL     1      39.170  46.105  65.075  1.00  0.00     0.228 C 
BRANCH  12  13
HETATM   13  N   UNL     1      38.292  45.053  64.565  1.00  0.00    -0.347 N 
HETATM   14  C   UNL     1      37.016  44.733  65.040  1.00  0.00     0.171 C 
HETATM   15  S   UNL     1      36.275  45.226  66.436  1.00  0.00    -0.041 SA
HETATM   16  N   UNL     1      36.446  43.837  64.153  1.00  0.00    -0.357 N 
HETATM   17  C   UNL     1      37.388  43.407  63.138  1.00  0.00     0.135 C 
HETATM   18  H   UNL     1      35.522  43.444  64.283  1.00  0.00     0.162 HD
HETATM   19  C   UNL     1      38.432  44.540  63.204  1.00  0.00     0.155 C 
BRANCH  17  20
HETATM   20  C   UNL     1      37.982  42.031  63.430  1.00  0.00    -0.034 A 
HETATM   21  C   UNL     1      38.932  41.424  62.590  1.00  0.00     0.009 A 
HETATM   22  C   UNL     1      39.482  40.177  62.904  1.00  0.00     0.001 A 
HETATM   23  C   UNL     1      39.096  39.515  64.066  1.00  0.00     0.000 A 
HETATM   24  C   UNL     1      38.172  40.106  64.922  1.00  0.00     0.001 A 
HETATM   25  C   UNL     1      37.630  41.356  64.614  1.00  0.00     0.009 A 
ENDBRANCH  17  20
ENDBRANCH  12  13
ENDBRANCH  10  12
BRANCH   9  26
HETATM   26  C   UNL     1      42.882  45.552  65.803  1.00  0.00     0.088 A 
HETATM   27  C   UNL     1      43.736  44.383  65.358  1.00  0.00     0.027 A 
HETATM   28  C   UNL     1      43.622  45.595  64.492  1.00  0.00     0.027 A 
ENDBRANCH   9  26
ENDBRANCH   6   9
BRANCH   6  29
HETATM   29  C   UNL     1      40.566  43.255  67.153  1.00  0.00     0.251 C 
HETATM   30  N   UNL     1      41.624  42.364  67.255  1.00  0.00    -0.325 N 
HETATM   31  H   UNL     1      42.457  42.691  67.737  1.00  0.00     0.169 HD
HETATM   32  O   UNL     1      39.444  42.981  66.738  1.00  0.00    -0.270 OA
BRANCH  30  33
HETATM   33  C   UNL     1      41.696  41.065  66.712  1.00  0.00     0.034 A 
HETATM   34  C   UNL     1      42.349  40.751  65.526  1.00  0.00     0.032 A 
HETATM   35  C   UNL     1      42.453  39.418  65.102  1.00  0.00     0.031 A 
HETATM   36  C   UNL     1      41.925  38.349  65.841  1.00  0.00     0.030 A 
HETATM   37  C   UNL     1      41.236  38.692  67.010  1.00  0.00     0.031 A 
HETATM   38  C   UNL     1      41.126  40.024  67.446  1.00  0.00     0.032 A 
BRANCH  36  39
HETATM   39  N   UNL     1      42.052  37.046  65.373  1.00  0.00    -0.377 N 
HETATM   40  C   UNL     1      43.207  36.729  64.496  1.00  0.00     0.149 C 
HETATM   41  C   UNL     1      44.376  36.188  65.338  1.00  0.00     0.187 C 
HETATM   42  O   UNL     1      43.989  35.038  66.107  1.00  0.00    -0.388 OA
HETATM   43  C   UNL     1      42.894  35.355  66.982  1.00  0.00     0.187 C 
HETATM   44  C   UNL     1      41.679  35.880  66.202  1.00  0.00     0.149 C 
ENDBRANCH  36  39
ENDBRANCH  30  33
ENDBRANCH   6  29
TORSDOF 8
ENDMDL
MODEL 7
REMARK VINA RESULT:      -8.1     23.188     27.735
REMARK  8 active torsions:
REMARK  status: ('A' for Active; 'I' for Inactive)
REMARK    1  A    between atoms: C_6  and  N_7 
REMARK    2  A    between atoms: C_6  and  C_26 
REMARK       I    between atoms: N_7  and  C_8 
REMARK    3  A    between atoms: N_7  and  C_23 
REMARK    4  A    between atoms: C_8  and  C_9 
REMARK    5  A    between atoms: C_9  and  N_10 
REMARK    6  A    between atoms: C_14  and  C_15 
REMARK       I    between atoms: C_26  and  N_27 
REMARK    7  A    between atoms: N_27  and  C_28 
REMARK    8  A    between atoms: C_31  and  N_32 
ROOT
HETATM    1  C   UNL     1      44.210  45.069  64.954  1.00  0.00     0.269 C 
HETATM    2  N   UNL     1      42.737  45.173  65.259  1.00  0.00    -0.075 N 
HETATM    3  H   UNL     1      42.627  46.044  65.805  1.00  0.00     0.279 HD
HETATM    4  C   UNL     1      41.931  45.305  63.993  1.00  0.00     0.237 C 
HETATM    5  C   UNL     1      40.436  45.409  64.294  1.00  0.00     0.069 C 
HETATM    6  C   UNL     1      39.895  44.333  65.267  1.00  0.00     0.120 C 
HETATM    7  C   UNL     1      40.828  44.252  66.498  1.00  0.00     0.069 C 
HETATM    8  C   UNL     1      42.287  44.025  66.127  1.00  0.00     0.237 C 
ENDROOT
BRANCH   6   9
HETATM    9  N   UNL     1      38.445  44.613  65.624  1.00  0.00    -0.328 N 
HETATM   10  C   UNL     1      37.921  45.381  66.675  1.00  0.00     0.239 C 
HETATM   11  O   UNL     1      36.736  45.243  67.012  1.00  0.00    -0.271 OA
BRANCH  10  12
HETATM   12  C   UNL     1      38.778  46.369  67.470  1.00  0.00     0.228 C 
BRANCH  12  13
HETATM   13  N   UNL     1      38.890  47.689  66.853  1.00  0.00    -0.347 N 
HETATM   14  C   UNL     1      40.075  48.353  66.520  1.00  0.00     0.171 C 
HETATM   15  S   UNL     1      41.628  47.991  66.968  1.00  0.00    -0.041 SA
HETATM   16  N   UNL     1      39.742  49.463  65.766  1.00  0.00    -0.357 N 
HETATM   17  C   UNL     1      38.307  49.665  65.706  1.00  0.00     0.135 C 
HETATM   18  H   UNL     1      40.430  50.117  65.412  1.00  0.00     0.162 HD
HETATM   19  C   UNL     1      37.794  48.257  66.071  1.00  0.00     0.155 C 
BRANCH  17  20
HETATM   20  C   UNL     1      37.822  50.745  66.670  1.00  0.00    -0.034 A 
HETATM   21  C   UNL     1      37.247  50.444  67.917  1.00  0.00     0.009 A 
HETATM   22  C   UNL     1      36.844  51.458  68.791  1.00  0.00     0.001 A 
HETATM   23  C   UNL     1      37.013  52.793  68.439  1.00  0.00     0.000 A 
HETATM   24  C   UNL     1      37.598  53.116  67.218  1.00  0.00     0.001 A 
HETATM   25  C   UNL     1      38.009  52.103  66.348  1.00  0.00     0.009 A 
ENDBRANCH  17  20
ENDBRANCH  12  13
ENDBRANCH  10  12
BRANCH   9  26
HETATM   26  C   UNL     1      37.411  44.109  64.706  1.00  0.00     0.088 A 
HETATM   27  C   UNL     1      36.692  45.097  63.811  1.00  0.00     0.027 A 
HETATM   28  C   UNL     1      37.503  43.999  63.206  1.00  0.00     0.027 A 
ENDBRANCH   9  26
ENDBRANCH   6   9
BRANCH   6  29
HETATM   29  C   UNL     1      40.028  42.897  64.642  1.00  0.00     0.251 C 
HETATM   30  N   UNL     1      39.931  41.877  65.578  1.00  0.00    -0.325 N 
HETATM   31  H   UNL     1      39.478  42.102  66.459  1.00  0.00     0.169 HD
HETATM   32  O   UNL     1      40.407  42.763  63.482  1.00  0.00    -0.270 OA
BRANCH  30  33
HETATM   33  C   UNL     1      40.444  40.568  65.465  1.00  0.00     0.034 A 
HETATM   34  C   UNL     1      39.655  39.429  65.365  1.00  0.00     0.032 A 
HETATM   35  C   UNL     1      40.242  38.171  65.163  1.00  0.00     0.031 A 
HETATM   36  C   UNL     1      41.629  37.999  65.042  1.00  0.00     0.030 A 
HETATM   37  C   UNL     1      42.407  39.154  65.187  1.00  0.00     0.031 A 
HETATM   38  C   UNL     1      41.829  40.419  65.389  1.00  0.00     0.032 A 
BRANCH  36  39
HETATM   39  N   UNL     1      42.160  36.729  64.846  1.00  0.00    -0.377 N 
HETATM   40  C   UNL     1      43.594  36.621  64.478  1.00  0.00     0.149 C 
HETATM   41  C   UNL     1      44.449  36.422  65.742  1.00  0.00     0.187 C 
HETATM   42  O   UNL     1      44.027  35.271  66.492  1.00  0.00    -0.388 OA
HETATM   43  C   UNL     1      42.648  35.392  66.878  1.00  0.00     0.187 C 
HETATM   44  C   UNL     1      41.732  35.570  65.657  1.00  0.00     0.149 C 
ENDBRANCH  36  39
ENDBRANCH  30  33
ENDBRANCH   6  29
TORSDOF 8
ENDMDL
MODEL 8
REMARK VINA RESULT:      -7.9      2.623      3.829
REMARK  8 active torsions:
REMARK  status: ('A' for Active; 'I' for Inactive)
REMARK    1  A    between atoms: C_6  and  N_7 
REMARK    2  A    between atoms: C_6  and  C_26 
REMARK       I    between atoms: N_7  and  C_8 
REMARK    3  A    between atoms: N_7  and  C_23 
REMARK    4  A    between atoms: C_8  and  C_9 
REMARK    5  A    between atoms: C_9  and  N_10 
REMARK    6  A    between atoms: C_14  and  C_15 
REMARK       I    between atoms: C_26  and  N_27 
REMARK    7  A    between atoms: N_27  and  C_28 
REMARK    8  A    between atoms: C_31  and  N_32 
ROOT
HETATM    1  C   UNL     1      16.180  48.616  42.989  1.00  0.00     0.269 C 
HETATM    2  N   UNL     1      17.220  48.712  44.077  1.00  0.00    -0.075 N 
HETATM    3  H   UNL     1      18.051  48.218  43.712  1.00  0.00     0.279 HD
HETATM    4  C   UNL     1      17.599  50.147  44.337  1.00  0.00     0.237 C 
HETATM    5  C   UNL     1      18.651  50.252  45.441  1.00  0.00     0.069 C 
HETATM    6  C   UNL     1      18.325  49.452  46.725  1.00  0.00     0.120 C 
HETATM    7  C   UNL     1      17.900  48.017  46.332  1.00  0.00     0.069 C 
HETATM    8  C   UNL     1      16.764  47.989  45.319  1.00  0.00     0.237 C 
ENDROOT
BRANCH   6   9
HETATM    9  N   UNL     1      19.494  49.492  47.695  1.00  0.00    -0.328 N 
HETATM   10  C   UNL     1      19.915  48.523  48.618  1.00  0.00     0.239 C 
HETATM   11  O   UNL     1      20.676  48.839  49.544  1.00  0.00    -0.271 OA
BRANCH  10  12
HETATM   12  C   UNL     1      19.430  47.073  48.559  1.00  0.00     0.228 C 
BRANCH  12  13
HETATM   13  N   UNL     1      20.391  46.148  47.961  1.00  0.00    -0.347 N 
HETATM   14  C   UNL     1      20.101  45.105  47.076  1.00  0.00     0.171 C 
HETATM   15  S   UNL     1      18.628  44.453  46.688  1.00  0.00    -0.041 SA
HETATM   16  N   UNL     1      21.299  44.621  46.583  1.00  0.00    -0.357 N 
HETATM   17  C   UNL     1      22.439  45.222  47.248  1.00  0.00     0.135 C 
HETATM   18  H   UNL     1      21.356  43.850  45.928  1.00  0.00     0.162 HD
HETATM   19  C   UNL     1      21.803  46.501  47.829  1.00  0.00     0.155 C 
BRANCH  17  20
HETATM   20  C   UNL     1      23.042  44.316  48.319  1.00  0.00    -0.034 A 
HETATM   21  C   UNL     1      23.447  44.796  49.576  1.00  0.00     0.009 A 
HETATM   22  C   UNL     1      23.965  43.934  50.547  1.00  0.00     0.001 A 
HETATM   23  C   UNL     1      24.083  42.573  50.283  1.00  0.00     0.000 A 
HETATM   24  C   UNL     1      23.670  42.071  49.052  1.00  0.00     0.001 A 
HETATM   25  C   UNL     1      23.144  42.931  48.085  1.00  0.00     0.009 A 
ENDBRANCH  17  20
ENDBRANCH  12  13
ENDBRANCH  10  12
BRANCH   9  26
HETATM   26  C   UNL     1      20.400  50.649  47.619  1.00  0.00     0.088 A 
HETATM   27  C   UNL     1      20.079  51.876  48.445  1.00  0.00     0.027 A 
HETATM   28  C   UNL     1      21.350  51.130  48.685  1.00  0.00     0.027 A 
ENDBRANCH   9  26
ENDBRANCH   6   9
BRANCH   6  29
HETATM   29  C   UNL     1      17.031  50.013  47.420  1.00  0.00     0.251 C 
HETATM   30  N   UNL     1      16.839  51.371  47.215  1.00  0.00    -0.325 N 
HETATM   31  H   UNL     1      17.315  51.789  46.420  1.00  0.00     0.169 HD
HETATM   32  O   UNL     1      16.423  49.324  48.235  1.00  0.00    -0.270 OA
BRANCH  30  33
HETATM   33  C   UNL     1      16.096  52.256  48.023  1.00  0.00     0.034 A 
HETATM   34  C   UNL     1      15.020  53.009  47.569  1.00  0.00     0.032 A 
HETATM   35  C   UNL     1      14.276  53.797  48.459  1.00  0.00     0.031 A 
HETATM   36  C   UNL     1      14.563  53.858  49.831  1.00  0.00     0.030 A 
HETATM   37  C   UNL     1      15.677  53.125  50.259  1.00  0.00     0.031 A 
HETATM   38  C   UNL     1      16.429  52.332  49.376  1.00  0.00     0.032 A 
BRANCH  36  39
HETATM   39  N   UNL     1      13.795  54.658  50.670  1.00  0.00    -0.377 N 
HETATM   40  C   UNL     1      14.319  54.951  52.027  1.00  0.00     0.149 C 
HETATM   41  C   UNL     1      15.095  56.280  52.018  1.00  0.00     0.187 C 
HETATM   42  O   UNL     1      14.284  57.365  51.541  1.00  0.00    -0.388 OA
HETATM   43  C   UNL     1      13.806  57.097  50.212  1.00  0.00     0.187 C 
HETATM   44  C   UNL     1      12.998  55.791  50.153  1.00  0.00     0.149 C 
ENDBRANCH  36  39
ENDBRANCH  30  33
ENDBRANCH   6  29
TORSDOF 8
ENDMDL
MODEL 9
REMARK VINA RESULT:      -7.8     10.307     14.712
REMARK  8 active torsions:
REMARK  status: ('A' for Active; 'I' for Inactive)
REMARK    1  A    between atoms: C_6  and  N_7 
REMARK    2  A    between atoms: C_6  and  C_26 
REMARK       I    between atoms: N_7  and  C_8 
REMARK    3  A    between atoms: N_7  and  C_23 
REMARK    4  A    between atoms: C_8  and  C_9 
REMARK    5  A    between atoms: C_9  and  N_10 
REMARK    6  A    between atoms: C_14  and  C_15 
REMARK       I    between atoms: C_26  and  N_27 
REMARK    7  A    between atoms: N_27  and  C_28 
REMARK    8  A    between atoms: C_31  and  N_32 
ROOT
HETATM    1  C   UNL     1      29.503  42.410  36.548  1.00  0.00     0.269 C 
HETATM    2  N   UNL     1      28.400  42.979  37.406  1.00  0.00    -0.075 N 
HETATM    3  H   UNL     1      27.639  42.279  37.380  1.00  0.00     0.279 HD
HETATM    4  C   UNL     1      28.852  43.133  38.835  1.00  0.00     0.237 C 
HETATM    5  C   UNL     1      27.739  43.711  39.710  1.00  0.00     0.069 C 
HETATM    6  C   UNL     1      27.053  44.973  39.135  1.00  0.00     0.120 C 
HETATM    7  C   UNL     1      26.683  44.716  37.654  1.00  0.00     0.069 C 
HETATM    8  C   UNL     1      27.868  44.260  36.815  1.00  0.00     0.237 C 
ENDROOT
BRANCH   6   9
HETATM    9  N   UNL     1      25.866  45.378  39.993  1.00  0.00    -0.328 N 
HETATM   10  C   UNL     1      24.891  46.359  39.755  1.00  0.00     0.239 C 
HETATM   11  O   UNL     1      24.193  46.777  40.689  1.00  0.00    -0.271 OA
BRANCH  10  12
HETATM   12  C   UNL     1      24.678  46.980  38.372  1.00  0.00     0.228 C 
BRANCH  12  13
HETATM   13  N   UNL     1      24.046  48.297  38.403  1.00  0.00    -0.347 N 
HETATM   14  C   UNL     1      24.682  49.519  38.647  1.00  0.00     0.171 C 
HETATM   15  S   UNL     1      26.207  49.796  39.233  1.00  0.00    -0.041 SA
HETATM   16  N   UNL     1      23.779  50.530  38.372  1.00  0.00    -0.357 N 
HETATM   17  C   UNL     1      22.455  50.009  38.087  1.00  0.00     0.135 C 
HETATM   18  H   UNL     1      23.999  51.512  38.483  1.00  0.00     0.162 HD
HETATM   19  C   UNL     1      22.785  48.551  37.710  1.00  0.00     0.155 C 
BRANCH  17  20
HETATM   20  C   UNL     1      21.510  50.117  39.281  1.00  0.00    -0.034 A 
HETATM   21  C   UNL     1      20.885  48.996  39.855  1.00  0.00     0.009 A 
HETATM   22  C   UNL     1      20.050  49.126  40.970  1.00  0.00     0.001 A 
HETATM   23  C   UNL     1      19.829  50.377  41.536  1.00  0.00     0.000 A 
HETATM   24  C   UNL     1      20.453  51.498  40.998  1.00  0.00     0.001 A 
HETATM   25  C   UNL     1      21.294  51.368  39.890  1.00  0.00     0.009 A 
ENDBRANCH  17  20
ENDBRANCH  12  13
ENDBRANCH  10  12
BRANCH   9  26
HETATM   26  C   UNL     1      25.605  44.587  41.207  1.00  0.00     0.088 A 
HETATM   27  C   UNL     1      26.350  44.942  42.476  1.00  0.00     0.027 A 
HETATM   28  C   UNL     1      24.860  45.034  42.438  1.00  0.00     0.027 A 
ENDBRANCH   9  26
ENDBRANCH   6   9
BRANCH   6  29
HETATM   29  C   UNL     1      28.072  46.166  39.030  1.00  0.00     0.251 C 
HETATM   30  N   UNL     1      28.824  46.352  40.180  1.00  0.00    -0.325 N 
HETATM   31  H   UNL     1      28.898  45.562  40.815  1.00  0.00     0.169 HD
HETATM   32  O   UNL     1      27.999  46.956  38.092  1.00  0.00    -0.270 OA
BRANCH  30  33
HETATM   33  C   UNL     1      29.458  47.541  40.598  1.00  0.00     0.034 A 
HETATM   34  C   UNL     1      28.934  48.411  41.547  1.00  0.00     0.032 A 
HETATM   35  C   UNL     1      29.671  49.525  41.974  1.00  0.00     0.031 A 
HETATM   36  C   UNL     1      30.955  49.810  41.487  1.00  0.00     0.030 A 
HETATM   37  C   UNL     1      31.445  48.944  40.502  1.00  0.00     0.031 A 
HETATM   38  C   UNL     1      30.716  47.824  40.067  1.00  0.00     0.032 A 
BRANCH  36  39
HETATM   39  N   UNL     1      31.642  50.931  41.942  1.00  0.00    -0.377 N 
HETATM   40  C   UNL     1      32.928  51.275  41.287  1.00  0.00     0.149 C 
HETATM   41  C   UNL     1      32.688  52.292  40.157  1.00  0.00     0.187 C 
HETATM   42  O   UNL     1      32.029  53.474  40.637  1.00  0.00    -0.388 OA
HETATM   43  C   UNL     1      30.767  53.143  41.240  1.00  0.00     0.187 C 
HETATM   44  C   UNL     1      30.935  52.146  42.398  1.00  0.00     0.149 C 
ENDBRANCH  36  39
ENDBRANCH  30  33
ENDBRANCH   6  29
TORSDOF 8
ENDMDL
MODEL 10
REMARK VINA RESULT:      -7.8      9.064     12.262
REMARK  8 active torsions:
REMARK  status: ('A' for Active; 'I' for Inactive)
REMARK    1  A    between atoms: C_6  and  N_7 
REMARK    2  A    between atoms: C_6  and  C_26 
REMARK       I    between atoms: N_7  and  C_8 
REMARK    3  A    between atoms: N_7  and  C_23 
REMARK    4  A    between atoms: C_8  and  C_9 
REMARK    5  A    between atoms: C_9  and  N_10 
REMARK    6  A    between atoms: C_14  and  C_15 
REMARK       I    between atoms: C_26  and  N_27 
REMARK    7  A    between atoms: N_27  and  C_28 
REMARK    8  A    between atoms: C_31  and  N_32 
ROOT
HETATM    1  C   UNL     1      29.588  37.393  50.566  1.00  0.00     0.269 C 
HETATM    2  N   UNL     1      28.908  38.078  49.406  1.00  0.00    -0.075 N 
HETATM    3  H   UNL     1      29.412  37.760  48.562  1.00  0.00     0.279 HD
HETATM    4  C   UNL     1      27.470  37.642  49.290  1.00  0.00     0.237 C 
HETATM    5  C   UNL     1      26.774  38.333  48.118  1.00  0.00     0.069 C 
HETATM    6  C   UNL     1      26.965  39.868  48.065  1.00  0.00     0.120 C 
HETATM    7  C   UNL     1      28.466  40.196  48.247  1.00  0.00     0.069 C 
HETATM    8  C   UNL     1      29.064  39.574  49.501  1.00  0.00     0.237 C 
ENDROOT
BRANCH   6   9
HETATM    9  N   UNL     1      26.372  40.440  46.789  1.00  0.00    -0.328 N 
HETATM   10  C   UNL     1      25.027  40.537  46.400  1.00  0.00     0.239 C 
HETATM   11  O   UNL     1      24.739  40.729  45.210  1.00  0.00    -0.271 OA
BRANCH  10  12
HETATM   12  C   UNL     1      23.876  40.368  47.394  1.00  0.00     0.228 C 
BRANCH  12  13
HETATM   13  N   UNL     1      22.675  39.766  46.817  1.00  0.00    -0.347 N 
HETATM   14  C   UNL     1      21.651  40.438  46.142  1.00  0.00     0.171 C 
HETATM   15  S   UNL     1      21.360  42.066  46.054  1.00  0.00    -0.041 SA
HETATM   16  N   UNL     1      20.824  39.487  45.571  1.00  0.00    -0.357 N 
HETATM   17  C   UNL     1      21.182  38.143  45.983  1.00  0.00     0.135 C 
HETATM   18  H   UNL     1      19.998  39.724  45.035  1.00  0.00     0.162 HD
HETATM   19  C   UNL     1      22.637  38.352  46.448  1.00  0.00     0.155 C 
BRANCH  17  20
HETATM   20  C   UNL     1      20.274  37.603  47.086  1.00  0.00    -0.034 A 
HETATM   21  C   UNL     1      19.221  38.355  47.635  1.00  0.00     0.009 A 
HETATM   22  C   UNL     1      18.388  37.819  48.621  1.00  0.00     0.001 A 
HETATM   23  C   UNL     1      18.586  36.518  49.073  1.00  0.00     0.000 A 
HETATM   24  C   UNL     1      19.610  35.747  48.530  1.00  0.00     0.001 A 
HETATM   25  C   UNL     1      20.437  36.280  47.538  1.00  0.00     0.009 A 
ENDBRANCH  17  20
ENDBRANCH  12  13
ENDBRANCH  10  12
BRANCH   9  26
HETATM   26  C   UNL     1      27.294  41.086  45.841  1.00  0.00     0.088 A 
HETATM   27  C   UNL     1      28.243  40.214  45.046  1.00  0.00     0.027 A 
HETATM   28  C   UNL     1      27.225  41.045  44.336  1.00  0.00     0.027 A 
ENDBRANCH   9  26
ENDBRANCH   6   9
BRANCH   6  29
HETATM   29  C   UNL     1      26.311  40.557  49.318  1.00  0.00     0.251 C 
HETATM   30  N   UNL     1      26.565  41.919  49.395  1.00  0.00    -0.325 N 
HETATM   31  H   UNL     1      26.836  42.386  48.534  1.00  0.00     0.169 HD
HETATM   32  O   UNL     1      25.834  39.871  50.218  1.00  0.00    -0.270 OA
BRANCH  30  33
HETATM   33  C   UNL     1      26.542  42.723  50.553  1.00  0.00     0.034 A 
HETATM   34  C   UNL     1      25.469  43.524  50.924  1.00  0.00     0.032 A 
HETATM   35  C   UNL     1      25.489  44.224  52.139  1.00  0.00     0.031 A 
HETATM   36  C   UNL     1      26.567  44.147  53.034  1.00  0.00     0.030 A 
HETATM   37  C   UNL     1      27.655  43.369  52.620  1.00  0.00     0.031 A 
HETATM   38  C   UNL     1      27.644  42.662  51.406  1.00  0.00     0.032 A 
BRANCH  36  39
HETATM   39  N   UNL     1      26.538  44.865  54.225  1.00  0.00    -0.377 N 
HETATM   40  C   UNL     1      27.714  44.770  55.125  1.00  0.00     0.149 C 
HETATM   41  C   UNL     1      28.691  45.924  54.840  1.00  0.00     0.187 C 
HETATM   42  O   UNL     1      28.053  47.204  54.969  1.00  0.00    -0.388 OA
HETATM   43  C   UNL     1      26.936  47.308  54.071  1.00  0.00     0.187 C 
HETATM   44  C   UNL     1      25.904  46.196  54.318  1.00  0.00     0.149 C 
ENDBRANCH  36  39
ENDBRANCH  30  33
ENDBRANCH   6  29
TORSDOF 8
ENDMDL
