MODEL 1
REMARK VINA RESULT:      -9.2      0.000      0.000
REMARK  6 active torsions:
REMARK  status: ('A' for Active; 'I' for Inactive)
REMARK    1  A    between atoms: O_2  and  C_3 
REMARK    2  A    between atoms: C_6  and  C_7 
REMARK    3  A    between atoms: C_7  and  N_8 
REMARK       I    between atoms: N_8  and  C_9 
REMARK    4  A    between atoms: C_9  and  C_10 
REMARK    5  A    between atoms: C_13  and  C_14 
REMARK    6  A    between atoms: C_19  and  C_20 
ROOT
HETATM    1  C   UNL     1      27.007  42.531  50.820  1.00  0.00     0.096 A 
HETATM    2  C   UNL     1      26.933  43.209  52.023  1.00  0.00     0.138 A 
HETATM    3  N   UNL     1      26.817  44.543  51.695  1.00  0.00    -0.240 N 
HETATM    4  C   UNL     1      26.667  45.612  52.667  1.00  0.00     0.221 C 
HETATM    5  C   UNL     1      26.131  45.035  53.990  1.00  0.00     0.066 C 
HETATM    6  C   UNL     1      26.917  43.789  54.418  1.00  0.00     0.118 C 
HETATM    7  N   UNL     1      26.922  42.818  53.325  1.00  0.00    -0.365 N 
HETATM    8  N   UNL     1      26.891  44.782  50.379  1.00  0.00    -0.181 NA
HETATM    9  C   UNL     1      26.956  43.559  49.847  1.00  0.00     0.160 A 
HETATM   10  H   UNL     1      26.782  41.849  53.601  1.00  0.00     0.161 HD
ENDROOT
BRANCH   1  11
HETATM   11  C   UNL     1      27.096  41.110  50.548  1.00  0.00     0.257 C 
HETATM   12  N   UNL     1      28.318  40.679  50.088  1.00  0.00    -0.352 N 
HETATM   13  H   UNL     1      28.973  41.379  49.765  1.00  0.00     0.163 HD
HETATM   14  O   UNL     1      26.135  40.362  50.697  1.00  0.00    -0.267 OA
BRANCH  12  15
HETATM   15  C   UNL     1      28.581  39.291  49.795  1.00  0.00     0.161 C 
BRANCH  15  16
HETATM   16  C   UNL     1      28.514  38.991  48.320  1.00  0.00    -0.040 A 
HETATM   17  C   UNL     1      28.823  37.713  47.835  1.00  0.00     0.011 A 
HETATM   18  C   UNL     1      28.694  37.411  46.474  1.00  0.00     0.037 A 
HETATM   19  C   UNL     1      28.252  38.385  45.579  1.00  0.00     0.068 A 
HETATM   20  C   UNL     1      27.971  39.668  46.051  1.00  0.00     0.037 A 
HETATM   21  C   UNL     1      28.092  39.970  47.410  1.00  0.00     0.011 A 
BRANCH  19  22
HETATM   22  O   UNL     1      28.068  38.209  44.235  1.00  0.00    -0.356 OA
HETATM   23  C   UNL     1      28.427  39.304  43.401  1.00  0.00     0.210 C 
ENDBRANCH  19  22
ENDBRANCH  15  16
ENDBRANCH  12  15
ENDBRANCH   1  11
BRANCH   4  24
HETATM   24  C   UNL     1      25.734  46.705  52.187  1.00  0.00     0.409 C 
HETATM   25  F   UNL     1      24.633  46.214  51.573  1.00  0.00    -0.169 F 
HETATM   26  F   UNL     1      25.285  47.418  53.259  1.00  0.00    -0.169 F 
HETATM   27  F   UNL     1      26.320  47.600  51.367  1.00  0.00    -0.169 F 
ENDBRANCH   4  24
BRANCH   6  28
HETATM   28  C   UNL     1      28.315  44.122  54.926  1.00  0.00    -0.035 A 
HETATM   29  C   UNL     1      29.353  43.192  54.726  1.00  0.00     0.009 A 
HETATM   30  C   UNL     1      30.643  43.438  55.199  1.00  0.00     0.001 A 
HETATM   31  C   UNL     1      30.924  44.623  55.873  1.00  0.00     0.000 A 
HETATM   32  C   UNL     1      29.915  45.561  56.072  1.00  0.00     0.001 A 
HETATM   33  C   UNL     1      28.622  45.313  55.603  1.00  0.00     0.009 A 
ENDBRANCH   6  28
TORSDOF 6
ENDMDL
MODEL 2
REMARK VINA RESULT:      -9.2      2.020      2.956
REMARK  6 active torsions:
REMARK  status: ('A' for Active; 'I' for Inactive)
REMARK    1  A    between atoms: O_2  and  C_3 
REMARK    2  A    between atoms: C_6  and  C_7 
REMARK    3  A    between atoms: C_7  and  N_8 
REMARK       I    between atoms: N_8  and  C_9 
REMARK    4  A    between atoms: C_9  and  C_10 
REMARK    5  A    between atoms: C_13  and  C_14 
REMARK    6  A    between atoms: C_19  and  C_20 
ROOT
HETATM    1  C   UNL     1      26.389  42.931  50.424  1.00  0.00     0.096 A 
HETATM    2  C   UNL     1      26.453  43.476  51.693  1.00  0.00     0.138 A 
HETATM    3  N   UNL     1      26.511  44.841  51.514  1.00  0.00    -0.240 N 
HETATM    4  C   UNL     1      26.546  45.806  52.599  1.00  0.00     0.221 C 
HETATM    5  C   UNL     1      25.983  45.163  53.880  1.00  0.00     0.066 C 
HETATM    6  C   UNL     1      26.604  43.783  54.134  1.00  0.00     0.118 C 
HETATM    7  N   UNL     1      26.435  42.947  52.945  1.00  0.00    -0.365 N 
HETATM    8  N   UNL     1      26.570  45.213  50.228  1.00  0.00    -0.181 NA
HETATM    9  C   UNL     1      26.447  44.059  49.568  1.00  0.00     0.160 A 
HETATM   10  H   UNL     1      26.172  41.981  53.125  1.00  0.00     0.161 HD
ENDROOT
BRANCH   1  11
HETATM   11  C   UNL     1      26.270  41.550  49.999  1.00  0.00     0.257 C 
HETATM   12  N   UNL     1      26.770  41.280  48.747  1.00  0.00    -0.352 N 
HETATM   13  H   UNL     1      26.968  42.064  48.140  1.00  0.00     0.163 HD
HETATM   14  O   UNL     1      25.737  40.701  50.706  1.00  0.00    -0.267 OA
BRANCH  12  15
HETATM   15  C   UNL     1      26.754  39.950  48.186  1.00  0.00     0.161 C 
BRANCH  15  16
HETATM   16  C   UNL     1      27.726  39.025  48.870  1.00  0.00    -0.040 A 
HETATM   17  C   UNL     1      29.087  39.348  48.946  1.00  0.00     0.011 A 
HETATM   18  C   UNL     1      29.982  38.526  49.642  1.00  0.00     0.037 A 
HETATM   19  C   UNL     1      29.525  37.369  50.273  1.00  0.00     0.068 A 
HETATM   20  C   UNL     1      28.175  37.027  50.176  1.00  0.00     0.037 A 
HETATM   21  C   UNL     1      27.279  37.850  49.489  1.00  0.00     0.011 A 
BRANCH  19  22
HETATM   22  O   UNL     1      30.293  36.499  50.996  1.00  0.00    -0.356 OA
HETATM   23  C   UNL     1      29.592  35.552  51.793  1.00  0.00     0.210 C 
ENDBRANCH  19  22
ENDBRANCH  15  16
ENDBRANCH  12  15
ENDBRANCH   1  11
BRANCH   4  24
HETATM   24  C   UNL     1      25.757  47.061  52.284  1.00  0.00     0.409 C 
HETATM   25  F   UNL     1      25.472  47.786  53.390  1.00  0.00    -0.169 F 
HETATM   26  F   UNL     1      26.500  47.871  51.479  1.00  0.00    -0.169 F 
HETATM   27  F   UNL     1      24.609  46.829  51.616  1.00  0.00    -0.169 F 
ENDBRANCH   4  24
BRANCH   6  28
HETATM   28  C   UNL     1      28.052  43.867  54.602  1.00  0.00    -0.035 A 
HETATM   29  C   UNL     1      28.457  44.976  55.370  1.00  0.00     0.009 A 
HETATM   30  C   UNL     1      29.780  45.113  55.796  1.00  0.00     0.001 A 
HETATM   31  C   UNL     1      30.721  44.141  55.472  1.00  0.00     0.000 A 
HETATM   32  C   UNL     1      30.339  43.031  54.722  1.00  0.00     0.001 A 
HETATM   33  C   UNL     1      29.017  42.896  54.291  1.00  0.00     0.009 A 
ENDBRANCH   6  28
TORSDOF 6
ENDMDL
MODEL 3
REMARK VINA RESULT:      -8.9      3.506      7.680
REMARK  6 active torsions:
REMARK  status: ('A' for Active; 'I' for Inactive)
REMARK    1  A    between atoms: O_2  and  C_3 
REMARK    2  A    between atoms: C_6  and  C_7 
REMARK    3  A    between atoms: C_7  and  N_8 
REMARK       I    between atoms: N_8  and  C_9 
REMARK    4  A    between atoms: C_9  and  C_10 
REMARK    5  A    between atoms: C_13  and  C_14 
REMARK    6  A    between atoms: C_19  and  C_20 
ROOT
HETATM    1  C   UNL     1      27.384  41.613  50.380  1.00  0.00     0.096 A 
HETATM    2  C   UNL     1      26.271  42.434  50.407  1.00  0.00     0.138 A 
HETATM    3  N   UNL     1      25.681  42.309  49.169  1.00  0.00    -0.240 N 
HETATM    4  C   UNL     1      24.449  42.973  48.780  1.00  0.00     0.221 C 
HETATM    5  C   UNL     1      23.654  43.364  50.040  1.00  0.00     0.066 C 
HETATM    6  C   UNL     1      24.548  44.066  51.071  1.00  0.00     0.118 C 
HETATM    7  N   UNL     1      25.711  43.227  51.359  1.00  0.00    -0.365 N 
HETATM    8  N   UNL     1      26.371  41.534  48.320  1.00  0.00    -0.181 NA
HETATM    9  C   UNL     1      27.375  41.074  49.070  1.00  0.00     0.160 A 
HETATM   10  H   UNL     1      25.980  43.176  52.338  1.00  0.00     0.161 HD
ENDROOT
BRANCH   1  11
HETATM   11  C   UNL     1      28.356  41.314  51.413  1.00  0.00     0.257 C 
HETATM   12  N   UNL     1      28.967  42.412  51.974  1.00  0.00    -0.352 N 
HETATM   13  H   UNL     1      28.875  43.297  51.495  1.00  0.00     0.163 HD
HETATM   14  O   UNL     1      28.623  40.161  51.734  1.00  0.00    -0.267 OA
BRANCH  12  15
HETATM   15  C   UNL     1      29.939  42.289  53.033  1.00  0.00     0.161 C 
BRANCH  15  16
HETATM   16  C   UNL     1      29.804  43.376  54.067  1.00  0.00    -0.040 A 
HETATM   17  C   UNL     1      28.748  44.294  54.005  1.00  0.00     0.011 A 
HETATM   18  C   UNL     1      28.579  45.262  55.003  1.00  0.00     0.037 A 
HETATM   19  C   UNL     1      29.465  45.323  56.078  1.00  0.00     0.068 A 
HETATM   20  C   UNL     1      30.536  44.430  56.130  1.00  0.00     0.037 A 
HETATM   21  C   UNL     1      30.703  43.458  55.139  1.00  0.00     0.011 A 
BRANCH  19  22
HETATM   22  O   UNL     1      29.395  46.205  57.120  1.00  0.00    -0.356 OA
HETATM   23  C   UNL     1      30.375  46.054  58.141  1.00  0.00     0.210 C 
ENDBRANCH  19  22
ENDBRANCH  15  16
ENDBRANCH  12  15
ENDBRANCH   1  11
BRANCH   4  24
HETATM   24  C   UNL     1      23.579  42.108  47.892  1.00  0.00     0.409 C 
HETATM   25  F   UNL     1      23.467  40.840  48.351  1.00  0.00    -0.169 F 
HETATM   26  F   UNL     1      22.314  42.615  47.867  1.00  0.00    -0.169 F 
HETATM   27  F   UNL     1      23.984  42.065  46.607  1.00  0.00    -0.169 F 
ENDBRANCH   4  24
BRANCH   6  28
HETATM   28  C   UNL     1      24.924  45.483  50.655  1.00  0.00    -0.035 A 
HETATM   29  C   UNL     1      23.964  46.280  50.004  1.00  0.00     0.009 A 
HETATM   30  C   UNL     1      24.271  47.574  49.577  1.00  0.00     0.001 A 
HETATM   31  C   UNL     1      25.540  48.099  49.800  1.00  0.00     0.000 A 
HETATM   32  C   UNL     1      26.501  47.331  50.451  1.00  0.00     0.001 A 
HETATM   33  C   UNL     1      26.196  46.035  50.875  1.00  0.00     0.009 A 
ENDBRANCH   6  28
TORSDOF 6
ENDMDL
MODEL 4
REMARK VINA RESULT:      -8.8      4.547      7.057
REMARK  6 active torsions:
REMARK  status: ('A' for Active; 'I' for Inactive)
REMARK    1  A    between atoms: O_2  and  C_3 
REMARK    2  A    between atoms: C_6  and  C_7 
REMARK    3  A    between atoms: C_7  and  N_8 
REMARK       I    between atoms: N_8  and  C_9 
REMARK    4  A    between atoms: C_9  and  C_10 
REMARK    5  A    between atoms: C_13  and  C_14 
REMARK    6  A    between atoms: C_19  and  C_20 
ROOT
HETATM    1  C   UNL     1      24.906  45.686  51.524  1.00  0.00     0.096 A 
HETATM    2  C   UNL     1      25.608  45.274  52.642  1.00  0.00     0.138 A 
HETATM    3  N   UNL     1      26.285  46.387  53.091  1.00  0.00    -0.240 N 
HETATM    4  C   UNL     1      27.119  46.410  54.280  1.00  0.00     0.221 C 
HETATM    5  C   UNL     1      26.719  45.252  55.213  1.00  0.00     0.066 C 
HETATM    6  C   UNL     1      26.608  43.927  54.447  1.00  0.00     0.118 C 
HETATM    7  N   UNL     1      25.700  44.096  53.313  1.00  0.00    -0.365 N 
HETATM    8  N   UNL     1      26.138  47.461  52.303  1.00  0.00    -0.181 NA
HETATM    9  C   UNL     1      25.263  47.049  51.382  1.00  0.00     0.160 A 
HETATM   10  H   UNL     1      25.055  43.325  53.152  1.00  0.00     0.161 HD
ENDROOT
BRANCH   1  11
HETATM   11  C   UNL     1      23.991  44.956  50.668  1.00  0.00     0.257 C 
HETATM   12  N   UNL     1      23.705  45.564  49.468  1.00  0.00    -0.352 N 
HETATM   13  H   UNL     1      23.953  46.539  49.363  1.00  0.00     0.163 HD
HETATM   14  O   UNL     1      23.497  43.888  51.013  1.00  0.00    -0.267 OA
BRANCH  12  15
HETATM   15  C   UNL     1      22.834  44.958  48.490  1.00  0.00     0.161 C 
BRANCH  15  16
HETATM   16  C   UNL     1      21.519  45.682  48.362  1.00  0.00    -0.040 A 
HETATM   17  C   UNL     1      20.326  44.970  48.181  1.00  0.00     0.011 A 
HETATM   18  C   UNL     1      19.094  45.635  48.132  1.00  0.00     0.037 A 
HETATM   19  C   UNL     1      19.040  47.022  48.267  1.00  0.00     0.068 A 
HETATM   20  C   UNL     1      20.228  47.739  48.420  1.00  0.00     0.037 A 
HETATM   21  C   UNL     1      21.458  47.077  48.476  1.00  0.00     0.011 A 
BRANCH  19  22
HETATM   22  O   UNL     1      17.903  47.781  48.256  1.00  0.00    -0.356 OA
HETATM   23  C   UNL     1      16.759  47.212  48.883  1.00  0.00     0.210 C 
ENDBRANCH  19  22
ENDBRANCH  15  16
ENDBRANCH  12  15
ENDBRANCH   1  11
BRANCH   4  24
HETATM   24  C   UNL     1      27.012  47.718  55.037  1.00  0.00     0.409 C 
HETATM   25  F   UNL     1      25.802  48.305  54.891  1.00  0.00    -0.169 F 
HETATM   26  F   UNL     1      27.160  47.480  56.372  1.00  0.00    -0.169 F 
HETATM   27  F   UNL     1      27.966  48.614  54.715  1.00  0.00    -0.169 F 
ENDBRANCH   4  24
BRANCH   6  28
HETATM   28  C   UNL     1      27.967  43.366  54.044  1.00  0.00    -0.035 A 
HETATM   29  C   UNL     1      29.094  43.680  54.827  1.00  0.00     0.009 A 
HETATM   30  C   UNL     1      30.364  43.214  54.481  1.00  0.00     0.001 A 
HETATM   31  C   UNL     1      30.531  42.420  53.351  1.00  0.00     0.000 A 
HETATM   32  C   UNL     1      29.429  42.089  52.569  1.00  0.00     0.001 A 
HETATM   33  C   UNL     1      28.158  42.558  52.912  1.00  0.00     0.009 A 
ENDBRANCH   6  28
TORSDOF 6
ENDMDL
MODEL 5
REMARK VINA RESULT:      -8.8      5.777      9.682
REMARK  6 active torsions:
REMARK  status: ('A' for Active; 'I' for Inactive)
REMARK    1  A    between atoms: O_2  and  C_3 
REMARK    2  A    between atoms: C_6  and  C_7 
REMARK    3  A    between atoms: C_7  and  N_8 
REMARK       I    between atoms: N_8  and  C_9 
REMARK    4  A    between atoms: C_9  and  C_10 
REMARK    5  A    between atoms: C_13  and  C_14 
REMARK    6  A    between atoms: C_19  and  C_20 
ROOT
HETATM    1  C   UNL     1      23.718  46.562  49.324  1.00  0.00     0.096 A 
HETATM    2  C   UNL     1      24.763  45.716  49.648  1.00  0.00     0.138 A 
HETATM    3  N   UNL     1      24.259  44.439  49.541  1.00  0.00    -0.240 N 
HETATM    4  C   UNL     1      25.039  43.232  49.755  1.00  0.00     0.221 C 
HETATM    5  C   UNL     1      26.536  43.549  49.580  1.00  0.00     0.066 C 
HETATM    6  C   UNL     1      26.938  44.806  50.363  1.00  0.00     0.118 C 
HETATM    7  N   UNL     1      26.065  45.916  49.983  1.00  0.00    -0.365 N 
HETATM    8  N   UNL     1      22.951  44.398  49.251  1.00  0.00    -0.181 NA
HETATM    9  C   UNL     1      22.636  45.683  49.071  1.00  0.00     0.160 A 
HETATM   10  H   UNL     1      26.528  46.813  49.858  1.00  0.00     0.161 HD
ENDROOT
BRANCH   1  11
HETATM   11  C   UNL     1      23.675  48.008  49.226  1.00  0.00     0.257 C 
HETATM   12  N   UNL     1      22.638  48.512  48.477  1.00  0.00    -0.352 N 
HETATM   13  H   UNL     1      22.133  47.870  47.881  1.00  0.00     0.163 HD
HETATM   14  O   UNL     1      24.525  48.716  49.757  1.00  0.00    -0.267 OA
BRANCH  12  15
HETATM   15  C   UNL     1      22.437  49.930  48.303  1.00  0.00     0.161 C 
BRANCH  15  16
HETATM   16  C   UNL     1      21.110  50.395  48.844  1.00  0.00    -0.040 A 
HETATM   17  C   UNL     1      20.567  51.624  48.447  1.00  0.00     0.011 A 
HETATM   18  C   UNL     1      19.302  52.027  48.893  1.00  0.00     0.037 A 
HETATM   19  C   UNL     1      18.562  51.203  49.740  1.00  0.00     0.068 A 
HETATM   20  C   UNL     1      19.110  49.991  50.162  1.00  0.00     0.037 A 
HETATM   21  C   UNL     1      20.369  49.583  49.713  1.00  0.00     0.011 A 
BRANCH  19  22
HETATM   22  O   UNL     1      17.314  51.475  50.227  1.00  0.00    -0.356 OA
HETATM   23  C   UNL     1      16.763  52.740  49.878  1.00  0.00     0.210 C 
ENDBRANCH  19  22
ENDBRANCH  15  16
ENDBRANCH  12  15
ENDBRANCH   1  11
BRANCH   4  24
HETATM   24  C   UNL     1      24.654  42.116  48.806  1.00  0.00     0.409 C 
HETATM   25  F   UNL     1      24.595  42.527  47.518  1.00  0.00    -0.169 F 
HETATM   26  F   UNL     1      25.603  41.139  48.849  1.00  0.00    -0.169 F 
HETATM   27  F   UNL     1      23.490  41.514  49.118  1.00  0.00    -0.169 F 
ENDBRANCH   4  24
BRANCH   6  28
HETATM   28  C   UNL     1      26.983  44.572  51.868  1.00  0.00    -0.035 A 
HETATM   29  C   UNL     1      26.454  45.554  52.728  1.00  0.00     0.009 A 
HETATM   30  C   UNL     1      26.499  45.399  54.115  1.00  0.00     0.001 A 
HETATM   31  C   UNL     1      27.064  44.255  54.670  1.00  0.00     0.000 A 
HETATM   32  C   UNL     1      27.583  43.266  53.838  1.00  0.00     0.001 A 
HETATM   33  C   UNL     1      27.543  43.424  52.450  1.00  0.00     0.009 A 
ENDBRANCH   6  28
TORSDOF 6
ENDMDL
MODEL 6
REMARK VINA RESULT:      -8.6      3.877      7.631
REMARK  6 active torsions:
REMARK  status: ('A' for Active; 'I' for Inactive)
REMARK    1  A    between atoms: O_2  and  C_3 
REMARK    2  A    between atoms: C_6  and  C_7 
REMARK    3  A    between atoms: C_7  and  N_8 
REMARK       I    between atoms: N_8  and  C_9 
REMARK    4  A    between atoms: C_9  and  C_10 
REMARK    5  A    between atoms: C_13  and  C_14 
REMARK    6  A    between atoms: C_19  and  C_20 
ROOT
HETATM    1  C   UNL     1      26.468  43.397  50.331  1.00  0.00     0.096 A 
HETATM    2  C   UNL     1      25.694  44.541  50.249  1.00  0.00     0.138 A 
HETATM    3  N   UNL     1      24.878  44.364  49.153  1.00  0.00    -0.240 N 
HETATM    4  C   UNL     1      23.868  45.316  48.725  1.00  0.00     0.221 C 
HETATM    5  C   UNL     1      23.480  46.223  49.908  1.00  0.00     0.066 C 
HETATM    6  C   UNL     1      24.722  46.774  50.622  1.00  0.00     0.118 C 
HETATM    7  N   UNL     1      25.594  45.665  51.006  1.00  0.00    -0.365 N 
HETATM    8  N   UNL     1      25.122  43.233  48.477  1.00  0.00    -0.181 NA
HETATM    9  C   UNL     1      26.050  42.625  49.219  1.00  0.00     0.160 A 
HETATM   10  H   UNL     1      26.008  45.736  51.933  1.00  0.00     0.161 HD
ENDROOT
BRANCH   1  11
HETATM   11  C   UNL     1      27.468  43.009  51.305  1.00  0.00     0.257 C 
HETATM   12  N   UNL     1      26.990  42.299  52.382  1.00  0.00    -0.352 N 
HETATM   13  H   UNL     1      25.991  42.295  52.536  1.00  0.00     0.163 HD
HETATM   14  O   UNL     1      28.648  43.319  51.178  1.00  0.00    -0.267 OA
BRANCH  12  15
HETATM   15  C   UNL     1      27.859  41.815  53.428  1.00  0.00     0.161 C 
BRANCH  15  16
HETATM   16  C   UNL     1      28.428  42.930  54.266  1.00  0.00    -0.040 A 
HETATM   17  C   UNL     1      29.756  42.883  54.710  1.00  0.00     0.011 A 
HETATM   18  C   UNL     1      30.309  43.950  55.430  1.00  0.00     0.037 A 
HETATM   19  C   UNL     1      29.541  45.079  55.712  1.00  0.00     0.068 A 
HETATM   20  C   UNL     1      28.209  45.118  55.297  1.00  0.00     0.037 A 
HETATM   21  C   UNL     1      27.656  44.058  54.573  1.00  0.00     0.011 A 
BRANCH  19  22
HETATM   22  O   UNL     1      29.971  46.187  56.387  1.00  0.00    -0.356 OA
HETATM   23  C   UNL     1      30.351  45.991  57.744  1.00  0.00     0.210 C 
ENDBRANCH  19  22
ENDBRANCH  15  16
ENDBRANCH  12  15
ENDBRANCH   1  11
BRANCH   4  24
HETATM   24  C   UNL     1      22.623  44.639  48.189  1.00  0.00     0.409 C 
HETATM   25  F   UNL     1      22.805  44.121  46.953  1.00  0.00    -0.169 F 
HETATM   26  F   UNL     1      22.297  43.590  48.997  1.00  0.00    -0.169 F 
HETATM   27  F   UNL     1      21.537  45.437  48.165  1.00  0.00    -0.169 F 
ENDBRANCH   4  24
BRANCH   6  28
HETATM   28  C   UNL     1      25.441  47.844  49.809  1.00  0.00    -0.035 A 
HETATM   29  C   UNL     1      26.849  47.868  49.808  1.00  0.00     0.009 A 
HETATM   30  C   UNL     1      27.552  48.846  49.102  1.00  0.00     0.001 A 
HETATM   31  C   UNL     1      26.864  49.814  48.378  1.00  0.00     0.000 A 
HETATM   32  C   UNL     1      25.472  49.802  48.357  1.00  0.00     0.001 A 
HETATM   33  C   UNL     1      24.767  48.826  49.066  1.00  0.00     0.009 A 
ENDBRANCH   6  28
TORSDOF 6
ENDMDL
MODEL 7
REMARK VINA RESULT:      -8.5      6.827     10.358
REMARK  6 active torsions:
REMARK  status: ('A' for Active; 'I' for Inactive)
REMARK    1  A    between atoms: O_2  and  C_3 
REMARK    2  A    between atoms: C_6  and  C_7 
REMARK    3  A    between atoms: C_7  and  N_8 
REMARK       I    between atoms: N_8  and  C_9 
REMARK    4  A    between atoms: C_9  and  C_10 
REMARK    5  A    between atoms: C_13  and  C_14 
REMARK    6  A    between atoms: C_19  and  C_20 
ROOT
HETATM    1  C   UNL     1      22.222  48.058  48.735  1.00  0.00     0.096 A 
HETATM    2  C   UNL     1      20.954  48.397  49.170  1.00  0.00     0.138 A 
HETATM    3  N   UNL     1      20.081  47.738  48.332  1.00  0.00    -0.240 N 
HETATM    4  C   UNL     1      18.635  47.782  48.462  1.00  0.00     0.221 C 
HETATM    5  C   UNL     1      18.258  48.183  49.901  1.00  0.00     0.066 C 
HETATM    6  C   UNL     1      19.053  49.410  50.368  1.00  0.00     0.118 C 
HETATM    7  N   UNL     1      20.483  49.157  50.194  1.00  0.00    -0.365 N 
HETATM    8  N   UNL     1      20.687  47.067  47.343  1.00  0.00    -0.181 NA
HETATM    9  C   UNL     1      21.984  47.221  47.616  1.00  0.00     0.160 A 
HETATM   10  H   UNL     1      21.078  49.472  50.957  1.00  0.00     0.161 HD
ENDROOT
BRANCH   1  11
HETATM   11  C   UNL     1      23.524  48.420  49.260  1.00  0.00     0.257 C 
HETATM   12  N   UNL     1      24.314  47.360  49.641  1.00  0.00    -0.352 N 
HETATM   13  H   UNL     1      23.873  46.456  49.741  1.00  0.00     0.163 HD
HETATM   14  O   UNL     1      23.870  49.591  49.376  1.00  0.00    -0.267 OA
BRANCH  12  15
HETATM   15  C   UNL     1      25.648  47.547  50.159  1.00  0.00     0.161 C 
BRANCH  15  16
HETATM   16  C   UNL     1      26.192  46.303  50.812  1.00  0.00    -0.040 A 
HETATM   17  C   UNL     1      26.788  45.295  50.042  1.00  0.00     0.011 A 
HETATM   18  C   UNL     1      27.357  44.170  50.651  1.00  0.00     0.037 A 
HETATM   19  C   UNL     1      27.339  44.039  52.040  1.00  0.00     0.068 A 
HETATM   20  C   UNL     1      26.721  45.026  52.809  1.00  0.00     0.037 A 
HETATM   21  C   UNL     1      26.158  46.153  52.204  1.00  0.00     0.011 A 
BRANCH  19  22
HETATM   22  O   UNL     1      27.876  43.002  52.751  1.00  0.00    -0.356 OA
HETATM   23  C   UNL     1      27.714  43.055  54.163  1.00  0.00     0.210 C 
ENDBRANCH  19  22
ENDBRANCH  15  16
ENDBRANCH  12  15
ENDBRANCH   1  11
BRANCH   4  24
HETATM   24  C   UNL     1      17.982  46.456  48.129  1.00  0.00     0.409 C 
HETATM   25  F   UNL     1      16.781  46.303  48.732  1.00  0.00    -0.169 F 
HETATM   26  F   UNL     1      17.744  46.396  46.788  1.00  0.00    -0.169 F 
HETATM   27  F   UNL     1      18.747  45.385  48.416  1.00  0.00    -0.169 F 
ENDBRANCH   4  24
BRANCH   6  28
HETATM   28  C   UNL     1      18.590  50.699  49.701  1.00  0.00    -0.035 A 
HETATM   29  C   UNL     1      17.258  51.119  49.879  1.00  0.00     0.009 A 
HETATM   30  C   UNL     1      16.779  52.277  49.264  1.00  0.00     0.001 A 
HETATM   31  C   UNL     1      17.623  53.042  48.465  1.00  0.00     0.000 A 
HETATM   32  C   UNL     1      18.947  52.651  48.284  1.00  0.00     0.001 A 
HETATM   33  C   UNL     1      19.426  51.490  48.895  1.00  0.00     0.009 A 
ENDBRANCH   6  28
TORSDOF 6
ENDMDL
MODEL 8
REMARK VINA RESULT:      -8.5      5.058      8.492
REMARK  6 active torsions:
REMARK  status: ('A' for Active; 'I' for Inactive)
REMARK    1  A    between atoms: O_2  and  C_3 
REMARK    2  A    between atoms: C_6  and  C_7 
REMARK    3  A    between atoms: C_7  and  N_8 
REMARK       I    between atoms: N_8  and  C_9 
REMARK    4  A    between atoms: C_9  and  C_10 
REMARK    5  A    between atoms: C_13  and  C_14 
REMARK    6  A    between atoms: C_19  and  C_20 
ROOT
HETATM    1  C   UNL     1      24.906  46.595  50.767  1.00  0.00     0.096 A 
HETATM    2  C   UNL     1      25.297  45.824  51.847  1.00  0.00     0.138 A 
HETATM    3  N   UNL     1      26.254  46.562  52.508  1.00  0.00    -0.240 N 
HETATM    4  C   UNL     1      26.907  46.139  53.735  1.00  0.00     0.221 C 
HETATM    5  C   UNL     1      26.038  45.085  54.445  1.00  0.00     0.066 C 
HETATM    6  C   UNL     1      25.575  43.992  53.472  1.00  0.00     0.118 C 
HETATM    7  N   UNL     1      24.911  44.612  52.326  1.00  0.00    -0.365 N 
HETATM    8  N   UNL     1      26.567  47.711  51.894  1.00  0.00    -0.181 NA
HETATM    9  C   UNL     1      25.715  47.754  50.867  1.00  0.00     0.160 A 
HETATM   10  H   UNL     1      24.067  44.143  52.004  1.00  0.00     0.161 HD
ENDROOT
BRANCH   1  11
HETATM   11  C   UNL     1      23.902  46.347  49.751  1.00  0.00     0.257 C 
HETATM   12  N   UNL     1      23.165  47.447  49.379  1.00  0.00    -0.352 N 
HETATM   13  H   UNL     1      23.208  48.265  49.972  1.00  0.00     0.163 HD
HETATM   14  O   UNL     1      23.718  45.228  49.284  1.00  0.00    -0.267 OA
BRANCH  12  15
HETATM   15  C   UNL     1      22.144  47.377  48.361  1.00  0.00     0.161 C 
BRANCH  15  16
HETATM   16  C   UNL     1      21.314  48.632  48.291  1.00  0.00    -0.040 A 
HETATM   17  C   UNL     1      21.831  49.857  48.734  1.00  0.00     0.011 A 
HETATM   18  C   UNL     1      21.089  51.037  48.606  1.00  0.00     0.037 A 
HETATM   19  C   UNL     1      19.820  51.008  48.028  1.00  0.00     0.068 A 
HETATM   20  C   UNL     1      19.288  49.787  47.611  1.00  0.00     0.037 A 
HETATM   21  C   UNL     1      20.029  48.609  47.732  1.00  0.00     0.011 A 
BRANCH  19  22
HETATM   22  O   UNL     1      19.009  52.091  47.830  1.00  0.00    -0.356 OA
HETATM   23  C   UNL     1      18.164  52.453  48.916  1.00  0.00     0.210 C 
ENDBRANCH  19  22
ENDBRANCH  15  16
ENDBRANCH  12  15
ENDBRANCH   1  11
BRANCH   4  24
HETATM   24  C   UNL     1      27.162  47.293  54.683  1.00  0.00     0.409 C 
HETATM   25  F   UNL     1      26.070  48.073  54.857  1.00  0.00    -0.169 F 
HETATM   26  F   UNL     1      27.479  46.803  55.915  1.00  0.00    -0.169 F 
HETATM   27  F   UNL     1      28.196  48.078  54.321  1.00  0.00    -0.169 F 
ENDBRANCH   4  24
BRANCH   6  28
HETATM   28  C   UNL     1      26.702  43.049  53.069  1.00  0.00    -0.035 A 
HETATM   29  C   UNL     1      27.636  42.647  54.042  1.00  0.00     0.009 A 
HETATM   30  C   UNL     1      28.703  41.807  53.714  1.00  0.00     0.001 A 
HETATM   31  C   UNL     1      28.852  41.346  52.410  1.00  0.00     0.000 A 
HETATM   32  C   UNL     1      27.933  41.722  51.434  1.00  0.00     0.001 A 
HETATM   33  C   UNL     1      26.868  42.566  51.760  1.00  0.00     0.009 A 
ENDBRANCH   6  28
TORSDOF 6
ENDMDL
MODEL 9
REMARK VINA RESULT:      -8.3      3.862      4.969
REMARK  6 active torsions:
REMARK  status: ('A' for Active; 'I' for Inactive)
REMARK    1  A    between atoms: O_2  and  C_3 
REMARK    2  A    between atoms: C_6  and  C_7 
REMARK    3  A    between atoms: C_7  and  N_8 
REMARK       I    between atoms: N_8  and  C_9 
REMARK    4  A    between atoms: C_9  and  C_10 
REMARK    5  A    between atoms: C_13  and  C_14 
REMARK    6  A    between atoms: C_19  and  C_20 
ROOT
HETATM    1  C   UNL     1      24.655  45.239  51.537  1.00  0.00     0.096 A 
HETATM    2  C   UNL     1      25.430  44.957  52.648  1.00  0.00     0.138 A 
HETATM    3  N   UNL     1      26.071  46.134  52.968  1.00  0.00    -0.240 N 
HETATM    4  C   UNL     1      26.958  46.297  54.106  1.00  0.00     0.221 C 
HETATM    5  C   UNL     1      26.664  45.204  55.151  1.00  0.00     0.066 C 
HETATM    6  C   UNL     1      26.584  43.816  54.502  1.00  0.00     0.118 C 
HETATM    7  N   UNL     1      25.615  43.845  53.407  1.00  0.00    -0.365 N 
HETATM    8  N   UNL     1      25.830  47.130  52.104  1.00  0.00    -0.181 NA
HETATM    9  C   UNL     1      24.935  46.602  51.267  1.00  0.00     0.160 A 
HETATM   10  H   UNL     1      25.004  43.034  53.344  1.00  0.00     0.161 HD
ENDROOT
BRANCH   1  11
HETATM   11  C   UNL     1      23.740  44.398  50.793  1.00  0.00     0.257 C 
HETATM   12  N   UNL     1      22.913  45.066  49.919  1.00  0.00    -0.352 N 
HETATM   13  H   UNL     1      22.839  46.069  50.016  1.00  0.00     0.163 HD
HETATM   14  O   UNL     1      23.698  43.183  50.959  1.00  0.00    -0.267 OA
BRANCH  12  15
HETATM   15  C   UNL     1      21.962  44.373  49.084  1.00  0.00     0.161 C 
BRANCH  15  16
HETATM   16  C   UNL     1      22.487  44.130  47.693  1.00  0.00    -0.040 A 
HETATM   17  C   UNL     1      23.139  42.932  47.374  1.00  0.00     0.011 A 
HETATM   18  C   UNL     1      23.567  42.674  46.066  1.00  0.00     0.037 A 
HETATM   19  C   UNL     1      23.345  43.611  45.058  1.00  0.00     0.068 A 
HETATM   20  C   UNL     1      22.722  44.819  45.375  1.00  0.00     0.037 A 
HETATM   21  C   UNL     1      22.288  45.076  46.678  1.00  0.00     0.011 A 
BRANCH  19  22
HETATM   22  O   UNL     1      23.696  43.468  43.744  1.00  0.00    -0.356 OA
HETATM   23  C   UNL     1      23.236  44.480  42.855  1.00  0.00     0.210 C 
ENDBRANCH  19  22
ENDBRANCH  15  16
ENDBRANCH  12  15
ENDBRANCH   1  11
BRANCH   4  24
HETATM   24  C   UNL     1      26.821  47.658  54.758  1.00  0.00     0.409 C 
HETATM   25  F   UNL     1      26.954  47.604  56.104  1.00  0.00    -0.169 F 
HETATM   26  F   UNL     1      27.816  48.475  54.311  1.00  0.00    -0.169 F 
HETATM   27  F   UNL     1      25.666  48.288  54.466  1.00  0.00    -0.169 F 
ENDBRANCH   4  24
BRANCH   6  28
HETATM   28  C   UNL     1      27.949  43.288  54.075  1.00  0.00    -0.035 A 
HETATM   29  C   UNL     1      29.088  43.670  54.809  1.00  0.00     0.009 A 
HETATM   30  C   UNL     1      30.363  43.236  54.439  1.00  0.00     0.001 A 
HETATM   31  C   UNL     1      30.523  42.405  53.335  1.00  0.00     0.000 A 
HETATM   32  C   UNL     1      29.409  42.006  52.602  1.00  0.00     0.001 A 
HETATM   33  C   UNL     1      28.134  42.443  52.969  1.00  0.00     0.009 A 
ENDBRANCH   6  28
TORSDOF 6
ENDMDL
MODEL 10
REMARK VINA RESULT:      -8.3     13.625     16.396
REMARK  6 active torsions:
REMARK  status: ('A' for Active; 'I' for Inactive)
REMARK    1  A    between atoms: O_2  and  C_3 
REMARK    2  A    between atoms: C_6  and  C_7 
REMARK    3  A    between atoms: C_7  and  N_8 
REMARK       I    between atoms: N_8  and  C_9 
REMARK    4  A    between atoms: C_9  and  C_10 
REMARK    5  A    between atoms: C_13  and  C_14 
REMARK    6  A    between atoms: C_19  and  C_20 
ROOT
HETATM    1  C   UNL     1      32.788  51.370  41.884  1.00  0.00     0.096 A 
HETATM    2  C   UNL     1      31.999  51.049  40.794  1.00  0.00     0.138 A 
HETATM    3  N   UNL     1      30.782  51.654  41.020  1.00  0.00    -0.240 N 
HETATM    4  C   UNL     1      29.664  51.609  40.094  1.00  0.00     0.221 C 
HETATM    5  C   UNL     1      30.179  51.289  38.679  1.00  0.00     0.066 C 
HETATM    6  C   UNL     1      31.143  50.095  38.690  1.00  0.00     0.118 C 
HETATM    7  N   UNL     1      32.216  50.345  39.652  1.00  0.00    -0.365 N 
HETATM    8  N   UNL     1      30.700  52.271  42.207  1.00  0.00    -0.181 NA
HETATM    9  C   UNL     1      31.930  52.141  42.708  1.00  0.00     0.160 A 
HETATM   10  H   UNL     1      33.148  50.077  39.346  1.00  0.00     0.161 HD
ENDROOT
BRANCH   1  11
HETATM   11  C   UNL     1      34.171  51.046  42.170  1.00  0.00     0.257 C 
HETATM   12  N   UNL     1      34.885  52.039  42.800  1.00  0.00    -0.352 N 
HETATM   13  H   UNL     1      34.486  52.968  42.815  1.00  0.00     0.163 HD
HETATM   14  O   UNL     1      34.663  49.971  41.845  1.00  0.00    -0.267 OA
BRANCH  12  15
HETATM   15  C   UNL     1      36.267  51.867  43.179  1.00  0.00     0.161 C 
BRANCH  15  16
HETATM   16  C   UNL     1      36.923  53.167  43.567  1.00  0.00    -0.040 A 
HETATM   17  C   UNL     1      37.113  53.497  44.915  1.00  0.00     0.011 A 
HETATM   18  C   UNL     1      37.786  54.670  45.279  1.00  0.00     0.037 A 
HETATM   19  C   UNL     1      38.280  55.528  44.297  1.00  0.00     0.068 A 
HETATM   20  C   UNL     1      38.068  55.219  42.952  1.00  0.00     0.037 A 
HETATM   21  C   UNL     1      37.404  54.045  42.587  1.00  0.00     0.011 A 
BRANCH  19  22
HETATM   22  O   UNL     1      38.967  56.688  44.523  1.00  0.00    -0.356 OA
HETATM   23  C   UNL     1      38.186  57.873  44.628  1.00  0.00     0.210 C 
ENDBRANCH  19  22
ENDBRANCH  15  16
ENDBRANCH  12  15
ENDBRANCH   1  11
BRANCH   4  24
HETATM   24  C   UNL     1      28.888  52.910  40.058  1.00  0.00     0.409 C 
HETATM   25  F   UNL     1      29.692  53.996  40.133  1.00  0.00    -0.169 F 
HETATM   26  F   UNL     1      28.227  53.008  38.870  1.00  0.00    -0.169 F 
HETATM   27  F   UNL     1      27.944  53.008  41.015  1.00  0.00    -0.169 F 
ENDBRANCH   4  24
BRANCH   6  28
HETATM   28  C   UNL     1      30.432  48.767  38.922  1.00  0.00    -0.035 A 
HETATM   29  C   UNL     1      29.107  48.615  38.470  1.00  0.00     0.009 A 
HETATM   30  C   UNL     1      28.404  47.428  38.686  1.00  0.00     0.001 A 
HETATM   31  C   UNL     1      29.013  46.368  39.350  1.00  0.00     0.000 A 
HETATM   32  C   UNL     1      30.326  46.493  39.796  1.00  0.00     0.001 A 
HETATM   33  C   UNL     1      31.029  47.682  39.584  1.00  0.00     0.009 A 
ENDBRANCH   6  28
TORSDOF 6
ENDMDL
