MODEL 1
REMARK VINA RESULT:     -10.0      0.000      0.000
REMARK  5 active torsions:
REMARK  status: ('A' for Active; 'I' for Inactive)
REMARK    1  A    between atoms: C_10  and  C_11 
REMARK    2  A    between atoms: C_13  and  O_14 
REMARK    3  A    between atoms: C_16  and  O_17 
REMARK    4  A    between atoms: O_17  and  C_18 
REMARK    5  A    between atoms: C_18  and  C_19 
ROOT
HETATM    1  C   UNL     1      23.981  46.857  49.717  1.00  0.00    -0.013 A 
HETATM    2  C   UNL     1      23.479  45.540  49.755  1.00  0.00     0.050 A 
HETATM    3  C   UNL     1      23.978  44.605  50.665  1.00  0.00     0.102 A 
HETATM    4  C   UNL     1      24.988  45.002  51.554  1.00  0.00     0.112 A 
HETATM    5  C   UNL     1      25.530  46.285  51.502  1.00  0.00     0.041 A 
HETATM    6  C   UNL     1      25.020  47.211  50.591  1.00  0.00     0.014 A 
ENDROOT
BRANCH   1   7
HETATM    7  C   UNL     1      23.418  47.876  48.745  1.00  0.00     0.219 A 
HETATM    8  N   UNL     1      22.888  49.010  49.468  1.00  0.00    -0.358 N 
HETATM    9  C   UNL     1      21.597  49.370  49.371  1.00  0.00     0.088 A 
HETATM   10  H   UNL     1      23.513  49.435  50.148  1.00  0.00     0.162 HD
HETATM   11  C   UNL     1      20.694  48.743  48.548  1.00  0.00     0.073 A 
HETATM   12  S   UNL     1      20.901  50.643  50.258  1.00  0.00    -0.074 SA
HETATM   13  C   UNL     1      19.392  49.331  48.641  1.00  0.00    -0.023 A 
HETATM   14  C   UNL     1      21.137  47.631  47.732  1.00  0.00     0.256 A 
HETATM   15  C   UNL     1      19.383  50.388  49.533  1.00  0.00     0.018 A 
HETATM   16  C   UNL     1      18.161  48.932  47.882  1.00  0.00     0.068 C 
HETATM   17  C   UNL     1      18.192  51.216  49.868  1.00  0.00     0.281 C 
HETATM   18  N   UNL     1      17.105  51.023  48.818  1.00  0.00    -0.070 N 
HETATM   19  C   UNL     1      15.834  51.719  49.194  1.00  0.00     0.270 C 
HETATM   20  H   UNL     1      17.460  51.466  47.962  1.00  0.00     0.279 HD
HETATM   21  C   UNL     1      16.889  49.546  48.496  1.00  0.00     0.239 C 
HETATM   22  N   UNL     1      22.443  47.269  47.876  1.00  0.00    -0.332 N 
HETATM   23  O   UNL     1      20.387  47.041  46.962  1.00  0.00    -0.267 OA
HETATM   24  H   UNL     1      22.737  46.482  47.315  1.00  0.00     0.165 HD
ENDBRANCH   1   7
BRANCH   3  25
HETATM   25  O   UNL     1      23.553  43.309  50.777  1.00  0.00    -0.353 OA
HETATM   26  C   UNL     1      23.525  42.521  49.595  1.00  0.00     0.210 C 
ENDBRANCH   3  25
BRANCH   4  27
HETATM   27  O   UNL     1      25.449  44.018  52.460  1.00  0.00    -0.272 OA
BRANCH  27  28
HETATM   28  C   UNL     1      25.421  44.243  53.822  1.00  0.00     0.300 C 
HETATM   29  O   UNL     1      24.467  44.448  54.551  1.00  0.00    -0.259 OA
BRANCH  28  30
HETATM   30  C   UNL     1      26.815  44.265  54.287  1.00  0.00     0.061 A 
HETATM   31  C   UNL     1      27.409  45.441  54.759  1.00  0.00     0.051 A 
HETATM   32 CL   UNL     1      26.567  46.949  54.811  1.00  0.00    -0.083 Cl
HETATM   33  C   UNL     1      28.741  45.424  55.177  1.00  0.00     0.048 A 
HETATM   34  C   UNL     1      29.471  44.237  55.114  1.00  0.00     0.035 A 
HETATM   35 CL   UNL     1      31.113  44.221  55.628  1.00  0.00    -0.084 Cl
HETATM   36  C   UNL     1      28.887  43.066  54.629  1.00  0.00     0.025 A 
HETATM   37  C   UNL     1      27.556  43.079  54.207  1.00  0.00     0.021 A 
ENDBRANCH  28  30
ENDBRANCH  27  28
ENDBRANCH   4  27
TORSDOF 5
ENDMDL
MODEL 2
REMARK VINA RESULT:      -9.3      1.724      2.454
REMARK  5 active torsions:
REMARK  status: ('A' for Active; 'I' for Inactive)
REMARK    1  A    between atoms: C_10  and  C_11 
REMARK    2  A    between atoms: C_13  and  O_14 
REMARK    3  A    between atoms: C_16  and  O_17 
REMARK    4  A    between atoms: O_17  and  C_18 
REMARK    5  A    between atoms: C_18  and  C_19 
ROOT
HETATM    1  C   UNL     1      23.440  45.616  49.210  1.00  0.00    -0.013 A 
HETATM    2  C   UNL     1      24.241  46.733  49.525  1.00  0.00     0.050 A 
HETATM    3  C   UNL     1      25.126  46.702  50.605  1.00  0.00     0.102 A 
HETATM    4  C   UNL     1      25.213  45.532  51.373  1.00  0.00     0.112 A 
HETATM    5  C   UNL     1      24.398  44.434  51.107  1.00  0.00     0.041 A 
HETATM    6  C   UNL     1      23.521  44.474  50.022  1.00  0.00     0.014 A 
ENDROOT
BRANCH   1   7
HETATM    7  C   UNL     1      22.499  45.643  48.020  1.00  0.00     0.219 A 
HETATM    8  N   UNL     1      22.177  47.009  47.675  1.00  0.00    -0.358 N 
HETATM    9  C   UNL     1      20.913  47.463  47.687  1.00  0.00     0.088 A 
HETATM   10  H   UNL     1      22.969  47.634  47.549  1.00  0.00     0.162 HD
HETATM   11  C   UNL     1      19.825  46.671  47.966  1.00  0.00     0.073 A 
HETATM   12  S   UNL     1      20.483  49.077  47.367  1.00  0.00    -0.074 SA
HETATM   13  C   UNL     1      18.601  47.411  47.908  1.00  0.00    -0.023 A 
HETATM   14  C   UNL     1      20.032  45.270  48.267  1.00  0.00     0.256 A 
HETATM   15  C   UNL     1      18.830  48.734  47.575  1.00  0.00     0.018 A 
HETATM   16  C   UNL     1      17.213  46.886  48.132  1.00  0.00     0.068 C 
HETATM   17  C   UNL     1      17.777  49.776  47.433  1.00  0.00     0.281 C 
HETATM   18  N   UNL     1      16.407  49.124  47.295  1.00  0.00    -0.070 N 
HETATM   19  C   UNL     1      15.303  50.135  47.300  1.00  0.00     0.270 C 
HETATM   20  H   UNL     1      16.405  48.667  46.374  1.00  0.00     0.279 HD
HETATM   21  C   UNL     1      16.199  48.026  48.334  1.00  0.00     0.239 C 
HETATM   22  N   UNL     1      21.327  44.847  48.278  1.00  0.00    -0.332 N 
HETATM   23  O   UNL     1      19.103  44.505  48.506  1.00  0.00    -0.267 OA
HETATM   24  H   UNL     1      21.461  43.872  48.506  1.00  0.00     0.165 HD
ENDBRANCH   1   7
BRANCH   3  25
HETATM   25  O   UNL     1      25.942  47.734  50.985  1.00  0.00    -0.353 OA
HETATM   26  C   UNL     1      26.777  48.313  49.992  1.00  0.00     0.210 C 
ENDBRANCH   3  25
BRANCH   4  27
HETATM   27  O   UNL     1      26.132  45.554  52.448  1.00  0.00    -0.272 OA
BRANCH  27  28
HETATM   28  C   UNL     1      25.904  44.811  53.589  1.00  0.00     0.300 C 
HETATM   29  O   UNL     1      24.848  44.510  54.116  1.00  0.00    -0.259 OA
BRANCH  28  30
HETATM   30  C   UNL     1      27.217  44.466  54.153  1.00  0.00     0.061 A 
HETATM   31  C   UNL     1      27.944  45.381  54.922  1.00  0.00     0.051 A 
HETATM   32 CL   UNL     1      27.374  46.979  55.248  1.00  0.00    -0.083 Cl
HETATM   33  C   UNL     1      29.196  45.020  55.426  1.00  0.00     0.048 A 
HETATM   34  C   UNL     1      29.713  43.754  55.153  1.00  0.00     0.035 A 
HETATM   35 CL   UNL     1      31.256  43.315  55.775  1.00  0.00    -0.084 Cl
HETATM   36  C   UNL     1      28.998  42.845  54.373  1.00  0.00     0.025 A 
HETATM   37  C   UNL     1      27.747  43.202  53.864  1.00  0.00     0.021 A 
ENDBRANCH  28  30
ENDBRANCH  27  28
ENDBRANCH   4  27
TORSDOF 5
ENDMDL
MODEL 3
REMARK VINA RESULT:      -9.2      4.426     10.282
REMARK  5 active torsions:
REMARK  status: ('A' for Active; 'I' for Inactive)
REMARK    1  A    between atoms: C_10  and  C_11 
REMARK    2  A    between atoms: C_13  and  O_14 
REMARK    3  A    between atoms: C_16  and  O_17 
REMARK    4  A    between atoms: O_17  and  C_18 
REMARK    5  A    between atoms: C_18  and  C_19 
ROOT
HETATM    1  C   UNL     1      24.026  44.809  50.421  1.00  0.00    -0.013 A 
HETATM    2  C   UNL     1      24.592  46.096  50.528  1.00  0.00     0.050 A 
HETATM    3  C   UNL     1      24.184  47.134  49.687  1.00  0.00     0.102 A 
HETATM    4  C   UNL     1      23.188  46.878  48.734  1.00  0.00     0.112 A 
HETATM    5  C   UNL     1      22.648  45.602  48.582  1.00  0.00     0.041 A 
HETATM    6  C   UNL     1      23.060  44.574  49.431  1.00  0.00     0.014 A 
ENDROOT
BRANCH   1   7
HETATM    7  C   UNL     1      24.453  43.691  51.353  1.00  0.00     0.219 A 
HETATM    8  N   UNL     1      24.833  44.235  52.637  1.00  0.00    -0.358 N 
HETATM    9  C   UNL     1      26.067  44.064  53.141  1.00  0.00     0.088 A 
HETATM   10  H   UNL     1      24.158  44.858  53.073  1.00  0.00     0.162 HD
HETATM   11  C   UNL     1      27.043  43.322  52.522  1.00  0.00     0.073 A 
HETATM   12  S   UNL     1      26.594  44.746  54.607  1.00  0.00    -0.074 SA
HETATM   13  C   UNL     1      28.259  43.306  53.277  1.00  0.00    -0.023 A 
HETATM   14  C   UNL     1      26.747  42.683  51.256  1.00  0.00     0.256 A 
HETATM   15  C   UNL     1      28.131  44.038  54.445  1.00  0.00     0.018 A 
HETATM   16  C   UNL     1      29.531  42.590  52.934  1.00  0.00     0.068 C 
HETATM   17  C   UNL     1      29.206  44.229  55.457  1.00  0.00     0.281 C 
HETATM   18  N   UNL     1      30.310  43.198  55.255  1.00  0.00    -0.070 N 
HETATM   19  C   UNL     1      31.480  43.447  56.154  1.00  0.00     0.270 C 
HETATM   20  H   UNL     1      29.901  42.293  55.521  1.00  0.00     0.279 HD
HETATM   21  C   UNL     1      30.713  43.086  53.787  1.00  0.00     0.239 C 
HETATM   22  N   UNL     1      25.499  42.900  50.756  1.00  0.00    -0.332 N 
HETATM   23  O   UNL     1      27.567  41.991  50.661  1.00  0.00    -0.267 OA
HETATM   24  H   UNL     1      25.308  42.464  49.866  1.00  0.00     0.165 HD
ENDBRANCH   1   7
BRANCH   3  25
HETATM   25  O   UNL     1      24.674  48.412  49.717  1.00  0.00    -0.353 OA
HETATM   26  C   UNL     1      26.022  48.610  49.315  1.00  0.00     0.210 C 
ENDBRANCH   3  25
BRANCH   4  27
HETATM   27  O   UNL     1      22.806  47.967  47.917  1.00  0.00    -0.272 OA
BRANCH  27  28
HETATM   28  C   UNL     1      21.566  47.996  47.310  1.00  0.00     0.300 C 
HETATM   29  O   UNL     1      21.159  47.359  46.355  1.00  0.00    -0.259 OA
BRANCH  28  30
HETATM   30  C   UNL     1      20.773  49.029  47.991  1.00  0.00     0.061 A 
HETATM   31  C   UNL     1      19.728  48.695  48.859  1.00  0.00     0.051 A 
HETATM   32 CL   UNL     1      19.276  47.058  49.178  1.00  0.00    -0.083 Cl
HETATM   33  C   UNL     1      18.988  49.707  49.474  1.00  0.00     0.048 A 
HETATM   34  C   UNL     1      19.292  51.043  49.212  1.00  0.00     0.035 A 
HETATM   35 CL   UNL     1      18.377  52.287  49.970  1.00  0.00    -0.084 Cl
HETATM   36  C   UNL     1      20.323  51.381  48.335  1.00  0.00     0.025 A 
HETATM   37  C   UNL     1      21.064  50.372  47.715  1.00  0.00     0.021 A 
ENDBRANCH  28  30
ENDBRANCH  27  28
ENDBRANCH   4  27
TORSDOF 5
ENDMDL
MODEL 4
REMARK VINA RESULT:      -9.0      6.269      9.825
REMARK  5 active torsions:
REMARK  status: ('A' for Active; 'I' for Inactive)
REMARK    1  A    between atoms: C_10  and  C_11 
REMARK    2  A    between atoms: C_13  and  O_14 
REMARK    3  A    between atoms: C_16  and  O_17 
REMARK    4  A    between atoms: O_17  and  C_18 
REMARK    5  A    between atoms: C_18  and  C_19 
ROOT
HETATM    1  C   UNL     1      26.126  41.695  49.459  1.00  0.00    -0.013 A 
HETATM    2  C   UNL     1      26.429  43.033  49.132  1.00  0.00     0.050 A 
HETATM    3  C   UNL     1      27.071  43.870  50.048  1.00  0.00     0.102 A 
HETATM    4  C   UNL     1      27.421  43.354  51.304  1.00  0.00     0.112 A 
HETATM    5  C   UNL     1      27.091  42.048  51.663  1.00  0.00     0.041 A 
HETATM    6  C   UNL     1      26.453  41.220  50.738  1.00  0.00     0.014 A 
ENDROOT
BRANCH   1   7
HETATM    7  C   UNL     1      25.452  40.782  48.453  1.00  0.00     0.219 A 
HETATM    8  N   UNL     1      25.865  39.414  48.672  1.00  0.00    -0.358 N 
HETATM    9  C   UNL     1      26.490  38.703  47.719  1.00  0.00     0.088 A 
HETATM   10  H   UNL     1      25.771  39.069  49.623  1.00  0.00     0.162 HD
HETATM   11  C   UNL     1      26.737  39.179  46.455  1.00  0.00     0.073 A 
HETATM   12  S   UNL     1      27.068  37.119  47.947  1.00  0.00    -0.074 SA
HETATM   13  C   UNL     1      27.415  38.213  45.645  1.00  0.00    -0.023 A 
HETATM   14  C   UNL     1      26.310  40.520  46.111  1.00  0.00     0.256 A 
HETATM   15  C   UNL     1      27.637  37.041  46.346  1.00  0.00     0.018 A 
HETATM   16  C   UNL     1      27.831  38.363  44.212  1.00  0.00     0.068 C 
HETATM   17  C   UNL     1      28.320  35.835  45.802  1.00  0.00     0.281 C 
HETATM   18  N   UNL     1      28.373  35.900  44.281  1.00  0.00    -0.070 N 
HETATM   19  C   UNL     1      29.182  34.783  43.700  1.00  0.00     0.270 C 
HETATM   20  H   UNL     1      27.403  35.780  43.961  1.00  0.00     0.279 HD
HETATM   21  C   UNL     1      28.832  37.271  43.792  1.00  0.00     0.239 C 
HETATM   22  N   UNL     1      25.708  41.228  47.107  1.00  0.00    -0.332 N 
HETATM   23  O   UNL     1      26.483  40.999  44.995  1.00  0.00    -0.267 OA
HETATM   24  H   UNL     1      25.429  42.167  46.861  1.00  0.00     0.165 HD
ENDBRANCH   1   7
BRANCH   3  25
HETATM   25  O   UNL     1      27.405  45.178  49.820  1.00  0.00    -0.353 OA
HETATM   26  C   UNL     1      26.350  46.126  49.754  1.00  0.00     0.210 C 
ENDBRANCH   3  25
BRANCH   4  27
HETATM   27  O   UNL     1      28.078  44.241  52.187  1.00  0.00    -0.272 OA
BRANCH  27  28
HETATM   28  C   UNL     1      27.573  44.488  53.448  1.00  0.00     0.300 C 
HETATM   29  O   UNL     1      26.450  44.829  53.776  1.00  0.00    -0.259 OA
BRANCH  28  30
HETATM   30  C   UNL     1      28.683  44.334  54.398  1.00  0.00     0.061 A 
HETATM   31  C   UNL     1      29.097  45.393  55.215  1.00  0.00     0.051 A 
HETATM   32 CL   UNL     1      28.359  46.954  55.156  1.00  0.00    -0.083 Cl
HETATM   33  C   UNL     1      30.167  45.210  56.095  1.00  0.00     0.048 A 
HETATM   34  C   UNL     1      30.818  43.978  56.146  1.00  0.00     0.035 A 
HETATM   35 CL   UNL     1      32.136  43.758  57.229  1.00  0.00    -0.084 Cl
HETATM   36  C   UNL     1      30.418  42.925  55.322  1.00  0.00     0.025 A 
HETATM   37  C   UNL     1      29.351  43.103  54.439  1.00  0.00     0.021 A 
ENDBRANCH  28  30
ENDBRANCH  27  28
ENDBRANCH   4  27
TORSDOF 5
ENDMDL
MODEL 5
REMARK VINA RESULT:      -8.9      6.428      9.927
REMARK  5 active torsions:
REMARK  status: ('A' for Active; 'I' for Inactive)
REMARK    1  A    between atoms: C_10  and  C_11 
REMARK    2  A    between atoms: C_13  and  O_14 
REMARK    3  A    between atoms: C_16  and  O_17 
REMARK    4  A    between atoms: O_17  and  C_18 
REMARK    5  A    between atoms: C_18  and  C_19 
ROOT
HETATM    1  C   UNL     1      15.731  52.358  49.627  1.00  0.00    -0.013 A 
HETATM    2  C   UNL     1      15.638  51.186  48.849  1.00  0.00     0.050 A 
HETATM    3  C   UNL     1      16.784  50.505  48.432  1.00  0.00     0.102 A 
HETATM    4  C   UNL     1      18.039  51.002  48.810  1.00  0.00     0.112 A 
HETATM    5  C   UNL     1      18.155  52.183  49.541  1.00  0.00     0.041 A 
HETATM    6  C   UNL     1      17.003  52.853  49.955  1.00  0.00     0.014 A 
ENDROOT
BRANCH   1   7
HETATM    7  C   UNL     1      14.484  53.080  50.100  1.00  0.00     0.219 A 
HETATM    8  N   UNL     1      14.101  54.088  49.137  1.00  0.00    -0.358 N 
HETATM    9  C   UNL     1      14.028  55.388  49.466  1.00  0.00     0.088 A 
HETATM   10  H   UNL     1      14.019  53.774  48.174  1.00  0.00     0.162 HD
HETATM   11  C   UNL     1      14.247  55.864  50.735  1.00  0.00     0.073 A 
HETATM   12  S   UNL     1      13.661  56.626  48.357  1.00  0.00    -0.074 SA
HETATM   13  C   UNL     1      14.103  57.287  50.803  1.00  0.00    -0.023 A 
HETATM   14  C   UNL     1      14.579  54.929  51.791  1.00  0.00     0.256 A 
HETATM   15  C   UNL     1      13.768  57.815  49.569  1.00  0.00     0.018 A 
HETATM   16  C   UNL     1      14.245  58.156  52.018  1.00  0.00     0.068 C 
HETATM   17  C   UNL     1      13.546  59.260  49.288  1.00  0.00     0.281 C 
HETATM   18  N   UNL     1      13.330  60.022  50.589  1.00  0.00    -0.070 N 
HETATM   19  C   UNL     1      13.252  61.501  50.365  1.00  0.00     0.270 C 
HETATM   20  H   UNL     1      12.416  59.714  50.947  1.00  0.00     0.279 HD
HETATM   21  C   UNL     1      14.368  59.644  51.642  1.00  0.00     0.239 C 
HETATM   22  N   UNL     1      14.678  53.622  51.421  1.00  0.00    -0.332 N 
HETATM   23  O   UNL     1      14.768  55.286  52.950  1.00  0.00    -0.267 OA
HETATM   24  H   UNL     1      14.926  52.981  52.160  1.00  0.00     0.165 HD
ENDBRANCH   1   7
BRANCH   3  25
HETATM   25  O   UNL     1      16.791  49.362  47.678  1.00  0.00    -0.353 OA
HETATM   26  C   UNL     1      16.113  48.226  48.196  1.00  0.00     0.210 C 
ENDBRANCH   3  25
BRANCH   4  27
HETATM   27  O   UNL     1      19.164  50.267  48.370  1.00  0.00    -0.272 OA
BRANCH  27  28
HETATM   28  C   UNL     1      19.881  49.477  49.247  1.00  0.00     0.300 C 
HETATM   29  O   UNL     1      19.485  48.819  50.192  1.00  0.00    -0.259 OA
BRANCH  28  30
HETATM   30  C   UNL     1      21.300  49.607  48.889  1.00  0.00     0.061 A 
HETATM   31  C   UNL     1      22.076  48.491  48.559  1.00  0.00     0.051 A 
HETATM   32 CL   UNL     1      21.440  46.884  48.568  1.00  0.00    -0.083 Cl
HETATM   33  C   UNL     1      23.426  48.656  48.240  1.00  0.00     0.048 A 
HETATM   34  C   UNL     1      23.990  49.931  48.260  1.00  0.00     0.035 A 
HETATM   35 CL   UNL     1      25.654  50.129  47.868  1.00  0.00    -0.084 Cl
HETATM   36  C   UNL     1      23.224  51.045  48.604  1.00  0.00     0.025 A 
HETATM   37  C   UNL     1      21.874  50.885  48.926  1.00  0.00     0.021 A 
ENDBRANCH  28  30
ENDBRANCH  27  28
ENDBRANCH   4  27
TORSDOF 5
ENDMDL
MODEL 6
REMARK VINA RESULT:      -8.9      4.598     10.428
REMARK  5 active torsions:
REMARK  status: ('A' for Active; 'I' for Inactive)
REMARK    1  A    between atoms: C_10  and  C_11 
REMARK    2  A    between atoms: C_13  and  O_14 
REMARK    3  A    between atoms: C_16  and  O_17 
REMARK    4  A    between atoms: O_17  and  C_18 
REMARK    5  A    between atoms: C_18  and  C_19 
ROOT
HETATM    1  C   UNL     1      21.366  48.613  48.959  1.00  0.00    -0.013 A 
HETATM    2  C   UNL     1      20.152  47.896  49.003  1.00  0.00     0.050 A 
HETATM    3  C   UNL     1      18.988  48.482  49.505  1.00  0.00     0.102 A 
HETATM    4  C   UNL     1      19.041  49.808  49.959  1.00  0.00     0.112 A 
HETATM    5  C   UNL     1      20.240  50.519  49.966  1.00  0.00     0.041 A 
HETATM    6  C   UNL     1      21.396  49.924  49.458  1.00  0.00     0.014 A 
ENDROOT
BRANCH   1   7
HETATM    7  C   UNL     1      22.622  47.983  48.389  1.00  0.00     0.219 A 
HETATM    8  N   UNL     1      22.507  46.542  48.411  1.00  0.00    -0.358 N 
HETATM    9  C   UNL     1      23.374  45.773  49.090  1.00  0.00     0.088 A 
HETATM   10  H   UNL     1      21.664  46.158  47.993  1.00  0.00     0.162 HD
HETATM   11  C   UNL     1      24.462  46.270  49.765  1.00  0.00     0.073 A 
HETATM   12  S   UNL     1      23.241  44.082  49.216  1.00  0.00    -0.074 SA
HETATM   13  C   UNL     1      25.215  45.231  50.399  1.00  0.00    -0.023 A 
HETATM   14  C   UNL     1      24.704  47.698  49.757  1.00  0.00     0.256 A 
HETATM   15  C   UNL     1      24.654  43.989  50.159  1.00  0.00     0.018 A 
HETATM   16  C   UNL     1      26.472  45.383  51.205  1.00  0.00     0.068 C 
HETATM   17  C   UNL     1      25.185  42.696  50.672  1.00  0.00     0.281 C 
HETATM   18  N   UNL     1      26.625  42.866  51.141  1.00  0.00    -0.070 N 
HETATM   19  C   UNL     1      27.148  41.630  51.803  1.00  0.00     0.270 C 
HETATM   20  H   UNL     1      27.180  43.021  50.290  1.00  0.00     0.279 HD
HETATM   21  C   UNL     1      26.791  44.110  52.010  1.00  0.00     0.239 C 
HETATM   22  N   UNL     1      23.791  48.454  49.087  1.00  0.00    -0.332 N 
HETATM   23  O   UNL     1      25.668  48.204  50.323  1.00  0.00    -0.267 OA
HETATM   24  H   UNL     1      23.961  49.450  49.101  1.00  0.00     0.165 HD
ENDBRANCH   1   7
BRANCH   3  25
HETATM   25  O   UNL     1      17.768  47.867  49.585  1.00  0.00    -0.353 OA
HETATM   26  C   UNL     1      17.390  47.011  48.516  1.00  0.00     0.210 C 
ENDBRANCH   3  25
BRANCH   4  27
HETATM   27  O   UNL     1      17.831  50.354  50.446  1.00  0.00    -0.272 OA
BRANCH  27  28
HETATM   28  C   UNL     1      17.291  51.492  49.883  1.00  0.00     0.300 C 
HETATM   29  O   UNL     1      17.071  52.577  50.393  1.00  0.00    -0.259 OA
BRANCH  28  30
HETATM   30  C   UNL     1      16.931  51.163  48.497  1.00  0.00     0.061 A 
HETATM   31  C   UNL     1      17.673  51.649  47.414  1.00  0.00     0.051 A 
HETATM   32 CL   UNL     1      19.041  52.684  47.618  1.00  0.00    -0.083 Cl
HETATM   33  C   UNL     1      17.289  51.325  46.111  1.00  0.00     0.048 A 
HETATM   34  C   UNL     1      16.165  50.526  45.899  1.00  0.00     0.035 A 
HETATM   35 CL   UNL     1      15.694  50.132  44.292  1.00  0.00    -0.084 Cl
HETATM   36  C   UNL     1      15.414  50.052  46.976  1.00  0.00     0.025 A 
HETATM   37  C   UNL     1      15.793  50.376  48.280  1.00  0.00     0.021 A 
ENDBRANCH  28  30
ENDBRANCH  27  28
ENDBRANCH   4  27
TORSDOF 5
ENDMDL
MODEL 7
REMARK VINA RESULT:      -8.8      6.136     11.799
REMARK  5 active torsions:
REMARK  status: ('A' for Active; 'I' for Inactive)
REMARK    1  A    between atoms: C_10  and  C_11 
REMARK    2  A    between atoms: C_13  and  O_14 
REMARK    3  A    between atoms: C_16  and  O_17 
REMARK    4  A    between atoms: O_17  and  C_18 
REMARK    5  A    between atoms: C_18  and  C_19 
ROOT
HETATM    1  C   UNL     1      19.003  51.123  48.135  1.00  0.00    -0.013 A 
HETATM    2  C   UNL     1      17.830  50.365  47.937  1.00  0.00     0.050 A 
HETATM    3  C   UNL     1      16.609  50.774  48.480  1.00  0.00     0.102 A 
HETATM    4  C   UNL     1      16.565  51.962  49.222  1.00  0.00     0.112 A 
HETATM    5  C   UNL     1      17.720  52.701  49.468  1.00  0.00     0.041 A 
HETATM    6  C   UNL     1      18.934  52.286  48.917  1.00  0.00     0.014 A 
ENDROOT
BRANCH   1   7
HETATM    7  C   UNL     1      20.322  50.690  47.523  1.00  0.00     0.219 A 
HETATM    8  N   UNL     1      20.299  49.271  47.250  1.00  0.00    -0.358 N 
HETATM    9  C   UNL     1      21.183  48.429  47.811  1.00  0.00     0.088 A 
HETATM   10  H   UNL     1      19.502  48.934  46.717  1.00  0.00     0.162 HD
HETATM   11  C   UNL     1      22.206  48.838  48.631  1.00  0.00     0.073 A 
HETATM   12  S   UNL     1      21.156  46.743  47.589  1.00  0.00    -0.074 SA
HETATM   13  C   UNL     1      22.997  47.735  49.086  1.00  0.00    -0.023 A 
HETATM   14  C   UNL     1      22.356  50.249  48.921  1.00  0.00     0.256 A 
HETATM   15  C   UNL     1      22.529  46.539  48.572  1.00  0.00     0.018 A 
HETATM   16  C   UNL     1      24.204  47.790  49.975  1.00  0.00     0.068 C 
HETATM   17  C   UNL     1      23.119  45.200  48.846  1.00  0.00     0.281 C 
HETATM   18  N   UNL     1      24.523  45.351  49.420  1.00  0.00    -0.070 N 
HETATM   19  C   UNL     1      25.096  44.036  49.851  1.00  0.00     0.270 C 
HETATM   20  H   UNL     1      25.104  45.704  48.649  1.00  0.00     0.279 HD
HETATM   21  C   UNL     1      24.570  46.400  50.527  1.00  0.00     0.239 C 
HETATM   22  N   UNL     1      21.426  51.075  48.365  1.00  0.00    -0.332 N 
HETATM   23  O   UNL     1      23.259  50.683  49.630  1.00  0.00    -0.267 OA
HETATM   24  H   UNL     1      21.529  52.054  48.587  1.00  0.00     0.165 HD
ENDBRANCH   1   7
BRANCH   3  25
HETATM   25  O   UNL     1      15.422  50.106  48.340  1.00  0.00    -0.353 OA
HETATM   26  C   UNL     1      15.420  48.925  47.549  1.00  0.00     0.210 C 
ENDBRANCH   3  25
BRANCH   4  27
HETATM   27  O   UNL     1      15.301  52.333  49.739  1.00  0.00    -0.272 OA
BRANCH  27  28
HETATM   28  C   UNL     1      14.623  53.424  49.234  1.00  0.00     0.300 C 
HETATM   29  O   UNL     1      14.440  53.750  48.075  1.00  0.00    -0.259 OA
BRANCH  28  30
HETATM   30  C   UNL     1      14.178  54.227  50.381  1.00  0.00     0.061 A 
HETATM   31  C   UNL     1      12.859  54.685  50.485  1.00  0.00     0.051 A 
HETATM   32 CL   UNL     1      11.668  54.362  49.276  1.00  0.00    -0.083 Cl
HETATM   33  C   UNL     1      12.481  55.459  51.584  1.00  0.00     0.048 A 
HETATM   34  C   UNL     1      13.421  55.778  52.563  1.00  0.00     0.035 A 
HETATM   35 CL   UNL     1      12.950  56.735  53.913  1.00  0.00    -0.084 Cl
HETATM   36  C   UNL     1      14.740  55.337  52.454  1.00  0.00     0.025 A 
HETATM   37  C   UNL     1      15.125  54.564  51.357  1.00  0.00     0.021 A 
ENDBRANCH  28  30
ENDBRANCH  27  28
ENDBRANCH   4  27
TORSDOF 5
ENDMDL
MODEL 8
REMARK VINA RESULT:      -8.6      4.588     10.682
REMARK  5 active torsions:
REMARK  status: ('A' for Active; 'I' for Inactive)
REMARK    1  A    between atoms: C_10  and  C_11 
REMARK    2  A    between atoms: C_13  and  O_14 
REMARK    3  A    between atoms: C_16  and  O_17 
REMARK    4  A    between atoms: O_17  and  C_18 
REMARK    5  A    between atoms: C_18  and  C_19 
ROOT
HETATM    1  C   UNL     1      21.645  47.828  48.778  1.00  0.00    -0.013 A 
HETATM    2  C   UNL     1      21.228  49.128  49.132  1.00  0.00     0.050 A 
HETATM    3  C   UNL     1      19.876  49.421  49.333  1.00  0.00     0.102 A 
HETATM    4  C   UNL     1      18.934  48.393  49.185  1.00  0.00     0.112 A 
HETATM    5  C   UNL     1      19.320  47.113  48.791  1.00  0.00     0.041 A 
HETATM    6  C   UNL     1      20.674  46.831  48.598  1.00  0.00     0.014 A 
ENDROOT
BRANCH   1   7
HETATM    7  C   UNL     1      23.115  47.508  48.586  1.00  0.00     0.219 A 
HETATM    8  N   UNL     1      23.287  46.090  48.363  1.00  0.00    -0.358 N 
HETATM    9  C   UNL     1      24.036  45.332  49.180  1.00  0.00     0.088 A 
HETATM   10  H   UNL     1      22.709  45.681  47.634  1.00  0.00     0.162 HD
HETATM   11  C   UNL     1      24.741  45.833  50.247  1.00  0.00     0.073 A 
HETATM   12  S   UNL     1      24.211  43.648  49.014  1.00  0.00    -0.074 SA
HETATM   13  C   UNL     1      25.452  44.806  50.946  1.00  0.00    -0.023 A 
HETATM   14  C   UNL     1      24.685  47.254  50.524  1.00  0.00     0.256 A 
HETATM   15  C   UNL     1      25.252  43.570  50.356  1.00  0.00     0.018 A 
HETATM   16  C   UNL     1      26.341  44.971  52.143  1.00  0.00     0.068 C 
HETATM   17  C   UNL     1      25.844  42.289  50.831  1.00  0.00     0.281 C 
HETATM   18  N   UNL     1      27.004  42.565  51.780  1.00  0.00    -0.070 N 
HETATM   19  C   UNL     1      27.532  41.308  52.399  1.00  0.00     0.270 C 
HETATM   20  H   UNL     1      27.753  42.963  51.198  1.00  0.00     0.279 HD
HETATM   21  C   UNL     1      26.642  43.622  52.820  1.00  0.00     0.239 C 
HETATM   22  N   UNL     1      23.892  47.992  49.697  1.00  0.00    -0.332 N 
HETATM   23  O   UNL     1      25.305  47.769  51.449  1.00  0.00    -0.267 OA
HETATM   24  H   UNL     1      23.847  48.978  49.909  1.00  0.00     0.165 HD
ENDBRANCH   1   7
BRANCH   3  25
HETATM   25  O   UNL     1      19.379  50.648  49.679  1.00  0.00    -0.353 OA
HETATM   26  C   UNL     1      19.580  51.721  48.770  1.00  0.00     0.210 C 
ENDBRANCH   3  25
BRANCH   4  27
HETATM   27  O   UNL     1      17.583  48.743  49.411  1.00  0.00    -0.272 OA
BRANCH  27  28
HETATM   28  C   UNL     1      16.626  48.535  48.437  1.00  0.00     0.300 C 
HETATM   29  O   UNL     1      15.884  47.582  48.276  1.00  0.00    -0.259 OA
BRANCH  28  30
HETATM   30  C   UNL     1      16.683  49.681  47.520  1.00  0.00     0.061 A 
HETATM   31  C   UNL     1      17.309  49.587  46.272  1.00  0.00     0.051 A 
HETATM   32 CL   UNL     1      18.076  48.138  45.726  1.00  0.00    -0.083 Cl
HETATM   33  C   UNL     1      17.356  50.704  45.435  1.00  0.00     0.048 A 
HETATM   34  C   UNL     1      16.786  51.906  45.853  1.00  0.00     0.035 A 
HETATM   35 CL   UNL     1      16.848  53.281  44.820  1.00  0.00    -0.084 Cl
HETATM   36  C   UNL     1      16.175  52.008  47.104  1.00  0.00     0.025 A 
HETATM   37  C   UNL     1      16.127  50.895  47.945  1.00  0.00     0.021 A 
ENDBRANCH  28  30
ENDBRANCH  27  28
ENDBRANCH   4  27
TORSDOF 5
ENDMDL
MODEL 9
REMARK VINA RESULT:      -8.5      2.045      2.866
REMARK  5 active torsions:
REMARK  status: ('A' for Active; 'I' for Inactive)
REMARK    1  A    between atoms: C_10  and  C_11 
REMARK    2  A    between atoms: C_13  and  O_14 
REMARK    3  A    between atoms: C_16  and  O_17 
REMARK    4  A    between atoms: O_17  and  C_18 
REMARK    5  A    between atoms: C_18  and  C_19 
ROOT
HETATM    1  C   UNL     1      23.938  44.489  48.360  1.00  0.00    -0.013 A 
HETATM    2  C   UNL     1      24.739  45.331  49.158  1.00  0.00     0.050 A 
HETATM    3  C   UNL     1      25.855  44.832  49.835  1.00  0.00     0.102 A 
HETATM    4  C   UNL     1      26.175  43.474  49.700  1.00  0.00     0.112 A 
HETATM    5  C   UNL     1      25.370  42.616  48.953  1.00  0.00     0.041 A 
HETATM    6  C   UNL     1      24.260  43.126  48.278  1.00  0.00     0.014 A 
ENDROOT
BRANCH   1   7
HETATM    7  C   UNL     1      22.742  45.039  47.606  1.00  0.00     0.219 A 
HETATM    8  N   UNL     1      22.853  46.474  47.479  1.00  0.00    -0.358 N 
HETATM    9  C   UNL     1      21.924  47.303  47.983  1.00  0.00     0.088 A 
HETATM   10  H   UNL     1      23.733  46.820  47.104  1.00  0.00     0.162 HD
HETATM   11  C   UNL     1      20.776  46.871  48.600  1.00  0.00     0.073 A 
HETATM   12  S   UNL     1      22.042  48.999  47.933  1.00  0.00    -0.074 SA
HETATM   13  C   UNL     1      19.964  47.964  49.039  1.00  0.00    -0.023 A 
HETATM   14  C   UNL     1      20.537  45.448  48.726  1.00  0.00     0.256 A 
HETATM   15  C   UNL     1      20.544  49.179  48.719  1.00  0.00     0.018 A 
HETATM   16  C   UNL     1      18.635  47.887  49.732  1.00  0.00     0.068 C 
HETATM   17  C   UNL     1      19.965  50.514  49.033  1.00  0.00     0.281 C 
HETATM   18  N   UNL     1      18.487  50.379  49.376  1.00  0.00    -0.070 N 
HETATM   19  C   UNL     1      17.901  51.675  49.844  1.00  0.00     0.270 C 
HETATM   20  H   UNL     1      18.017  50.126  48.497  1.00  0.00     0.279 HD
HETATM   21  C   UNL     1      18.238  49.237  50.357  1.00  0.00     0.239 C 
HETATM   22  N   UNL     1      21.511  44.633  48.234  1.00  0.00    -0.332 N 
HETATM   23  O   UNL     1      19.523  44.995  49.249  1.00  0.00    -0.267 OA
HETATM   24  H   UNL     1      21.342  43.643  48.343  1.00  0.00     0.165 HD
ENDBRANCH   1   7
BRANCH   3  25
HETATM   25  O   UNL     1      26.690  45.572  50.629  1.00  0.00    -0.353 OA
HETATM   26  C   UNL     1      26.180  46.779  51.177  1.00  0.00     0.210 C 
ENDBRANCH   3  25
BRANCH   4  27
HETATM   27  O   UNL     1      27.320  43.026  50.399  1.00  0.00    -0.272 OA
BRANCH  27  28
HETATM   28  C   UNL     1      27.205  42.148  51.458  1.00  0.00     0.300 C 
HETATM   29  O   UNL     1      26.543  41.129  51.547  1.00  0.00    -0.259 OA
BRANCH  28  30
HETATM   30  C   UNL     1      28.000  42.696  52.565  1.00  0.00     0.061 A 
HETATM   31  C   UNL     1      27.426  43.520  53.540  1.00  0.00     0.051 A 
HETATM   32 CL   UNL     1      25.758  43.971  53.507  1.00  0.00    -0.083 Cl
HETATM   33  C   UNL     1      28.220  44.033  54.567  1.00  0.00     0.048 A 
HETATM   34  C   UNL     1      29.580  43.728  54.609  1.00  0.00     0.035 A 
HETATM   35 CL   UNL     1      30.555  44.365  55.876  1.00  0.00    -0.084 Cl
HETATM   36  C   UNL     1      30.160  42.920  53.630  1.00  0.00     0.025 A 
HETATM   37  C   UNL     1      29.370  42.406  52.599  1.00  0.00     0.021 A 
ENDBRANCH  28  30
ENDBRANCH  27  28
ENDBRANCH   4  27
TORSDOF 5
ENDMDL
MODEL 10
REMARK VINA RESULT:      -8.4     15.511     16.888
REMARK  5 active torsions:
REMARK  status: ('A' for Active; 'I' for Inactive)
REMARK    1  A    between atoms: C_10  and  C_11 
REMARK    2  A    between atoms: C_13  and  O_14 
REMARK    3  A    between atoms: C_16  and  O_17 
REMARK    4  A    between atoms: O_17  and  C_18 
REMARK    5  A    between atoms: C_18  and  C_19 
ROOT
HETATM    1  C   UNL     1      36.291  52.268  42.711  1.00  0.00    -0.013 A 
HETATM    2  C   UNL     1      36.938  53.078  41.756  1.00  0.00     0.050 A 
HETATM    3  C   UNL     1      37.763  54.135  42.148  1.00  0.00     0.102 A 
HETATM    4  C   UNL     1      37.948  54.375  43.518  1.00  0.00     0.112 A 
HETATM    5  C   UNL     1      37.282  53.615  44.477  1.00  0.00     0.041 A 
HETATM    6  C   UNL     1      36.463  52.559  44.074  1.00  0.00     0.014 A 
ENDROOT
BRANCH   1   7
HETATM    7  C   UNL     1      35.416  51.106  42.282  1.00  0.00     0.219 A 
HETATM    8  N   UNL     1      34.958  51.305  40.926  1.00  0.00    -0.358 N 
HETATM    9  C   UNL     1      33.651  51.379  40.625  1.00  0.00     0.088 A 
HETATM   10  H   UNL     1      35.678  51.515  40.240  1.00  0.00     0.162 HD
HETATM   11  C   UNL     1      32.649  51.215  41.550  1.00  0.00     0.073 A 
HETATM   12  S   UNL     1      33.056  51.691  39.062  1.00  0.00    -0.074 SA
HETATM   13  C   UNL     1      31.352  51.342  40.957  1.00  0.00    -0.023 A 
HETATM   14  C   UNL     1      32.999  50.951  42.930  1.00  0.00     0.256 A 
HETATM   15  C   UNL     1      31.445  51.588  39.599  1.00  0.00     0.018 A 
HETATM   16  C   UNL     1      30.024  51.207  41.642  1.00  0.00     0.068 C 
HETATM   17  C   UNL     1      30.287  51.775  38.681  1.00  0.00     0.281 C 
HETATM   18  N   UNL     1      29.010  51.261  39.334  1.00  0.00    -0.070 N 
HETATM   19  C   UNL     1      27.798  51.565  38.509  1.00  0.00     0.270 C 
HETATM   20  H   UNL     1      29.108  50.238  39.375  1.00  0.00     0.279 HD
HETATM   21  C   UNL     1      28.876  51.751  40.773  1.00  0.00     0.239 C 
HETATM   22  N   UNL     1      34.332  50.913  43.210  1.00  0.00    -0.332 N 
HETATM   23  O   UNL     1      32.153  50.776  43.801  1.00  0.00    -0.267 OA
HETATM   24  H   UNL     1      34.565  50.745  44.178  1.00  0.00     0.165 HD
ENDBRANCH   1   7
BRANCH   3  25
HETATM   25  O   UNL     1      38.432  54.972  41.295  1.00  0.00    -0.353 OA
HETATM   26  C   UNL     1      38.442  54.634  39.915  1.00  0.00     0.210 C 
ENDBRANCH   3  25
BRANCH   4  27
HETATM   27  O   UNL     1      38.801  55.450  43.857  1.00  0.00    -0.272 OA
BRANCH  27  28
HETATM   28  C   UNL     1      38.685  56.088  45.076  1.00  0.00     0.300 C 
HETATM   29  O   UNL     1      37.828  56.863  45.463  1.00  0.00    -0.259 OA
BRANCH  28  30
HETATM   30  C   UNL     1      39.864  55.722  45.872  1.00  0.00     0.061 A 
HETATM   31  C   UNL     1      39.758  54.903  47.002  1.00  0.00     0.051 A 
HETATM   32 CL   UNL     1      38.245  54.282  47.558  1.00  0.00    -0.083 Cl
HETATM   33  C   UNL     1      40.901  54.591  47.741  1.00  0.00     0.048 A 
HETATM   34  C   UNL     1      42.138  55.105  47.352  1.00  0.00     0.035 A 
HETATM   35 CL   UNL     1      43.544  54.720  48.266  1.00  0.00    -0.084 Cl
HETATM   36  C   UNL     1      42.246  55.935  46.235  1.00  0.00     0.025 A 
HETATM   37  C   UNL     1      41.105  56.251  45.494  1.00  0.00     0.021 A 
ENDBRANCH  28  30
ENDBRANCH  27  28
ENDBRANCH   4  27
TORSDOF 5
ENDMDL
