MODEL 1
REMARK VINA RESULT:     -10.1      0.000      0.000
REMARK  9 active torsions:
REMARK  status: ('A' for Active; 'I' for Inactive)
REMARK    1  A    between atoms: C_2  and  C_3 
REMARK    2  A    between atoms: C_3  and  C_4 
REMARK    3  A    between atoms: C_3  and  C_39 
REMARK    4  A    between atoms: C_6  and  C_7 
REMARK    5  A    between atoms: C_14  and  C_15 
REMARK    6  A    between atoms: C_18  and  C_19 
REMARK    7  A    between atoms: C_19  and  N_20 
REMARK       I    between atoms: N_20  and  C_21 
REMARK       I    between atoms: C_21  and  N_22 
REMARK    8  A    between atoms: N_22  and  C_23 
REMARK    9  A    between atoms: C_26  and  C_27 
ROOT
HETATM    1  C   UNL     1      20.791  46.628  46.762  1.00  0.00     0.068 C 
HETATM    2  C   UNL     1      19.857  45.731  47.623  1.00  0.00     0.001 C 
HETATM    3  C   UNL     1      20.697  44.960  48.670  1.00  0.00     0.040 C 
HETATM    4  C   UNL     1      21.681  44.002  47.976  1.00  0.00     0.206 C 
HETATM    5  N   UNL     1      21.597  44.291  46.481  1.00  0.00    -0.065 N 
HETATM    6  H   UNL     1      22.351  43.739  46.016  1.00  0.00     0.280 HD
HETATM    7  C   UNL     1      21.885  45.744  46.129  1.00  0.00     0.246 C 
HETATM    8  C   UNL     1      19.193  44.697  46.685  1.00  0.00     0.033 C 
HETATM    9  C   UNL     1      20.254  43.876  45.943  1.00  0.00     0.236 C 
ENDROOT
BRANCH   1  10
HETATM   10  C   UNL     1      21.342  47.798  47.551  1.00  0.00     0.045 A 
HETATM   11  N   UNL     1      22.668  47.824  47.797  1.00  0.00    -0.233 NA
HETATM   12  C   UNL     1      23.132  48.842  48.555  1.00  0.00     0.160 A 
HETATM   13  N   UNL     1      22.349  49.775  49.120  1.00  0.00    -0.233 NA
HETATM   14  C   UNL     1      21.024  49.726  48.874  1.00  0.00     0.043 A 
HETATM   15  C   UNL     1      20.479  48.751  48.060  1.00  0.00     0.055 A 
BRANCH  12  16
HETATM   16  C   UNL     1      24.585  48.936  48.776  1.00  0.00     0.014 A 
HETATM   17  C   UNL     1      25.357  49.923  48.147  1.00  0.00     0.034 A 
HETATM   18  C   UNL     1      26.722  49.975  48.382  1.00  0.00     0.117 A 
HETATM   19  N   UNL     1      27.373  49.118  49.195  1.00  0.00    -0.273 NA
HETATM   20  C   UNL     1      26.633  48.161  49.783  1.00  0.00     0.117 A 
HETATM   21  C   UNL     1      25.264  48.032  49.610  1.00  0.00     0.034 A 
ENDBRANCH  12  16
BRANCH  14  22
HETATM   22  C   UNL     1      20.177  50.798  49.536  1.00  0.00     0.037 C 
BRANCH  22  23
HETATM   23  C   UNL     1      18.793  50.290  50.003  1.00  0.00     0.006 C 
HETATM   24  C   UNL     1      18.871  49.223  51.088  1.00  0.00     0.006 C 
ENDBRANCH  22  23
BRANCH  22  25
HETATM   25  C   UNL     1      20.003  52.023  48.612  1.00  0.00     0.006 C 
HETATM   26  C   UNL     1      18.544  52.364  48.332  1.00  0.00     0.006 C 
ENDBRANCH  22  25
ENDBRANCH  14  22
ENDBRANCH   1  10
BRANCH   4  27
HETATM   27  C   UNL     1      23.123  44.068  48.547  1.00  0.00     0.157 C 
BRANCH  27  28
HETATM   28  N   UNL     1      23.237  44.623  49.899  1.00  0.00    -0.341 N 
HETATM   29  C   UNL     1      24.370  44.467  50.662  1.00  0.00     0.320 C 
HETATM   30  N   UNL     1      24.332  45.208  51.812  1.00  0.00    -0.309 N 
HETATM   31  O   UNL     1      25.257  43.690  50.321  1.00  0.00    -0.247 OA
HETATM   32  H   UNL     1      23.427  45.547  52.105  1.00  0.00     0.170 HD
HETATM   33  H   UNL     1      22.767  45.509  50.041  1.00  0.00     0.164 HD
BRANCH  30  34
HETATM   34  C   UNL     1      25.384  45.359  52.742  1.00  0.00     0.036 A 
HETATM   35  C   UNL     1      25.944  46.596  53.075  1.00  0.00     0.030 A 
HETATM   36  C   UNL     1      26.989  46.683  54.004  1.00  0.00     0.017 A 
HETATM   37  C   UNL     1      27.484  45.531  54.616  1.00  0.00     0.009 A 
HETATM   38  C   UNL     1      26.909  44.293  54.301  1.00  0.00     0.017 A 
HETATM   39  C   UNL     1      25.862  44.209  53.375  1.00  0.00     0.030 A 
BRANCH  37  40
HETATM   40  C   UNL     1      28.607  45.570  55.599  1.00  0.00     0.155 C 
HETATM   41  C   UNL     1      29.735  44.582  55.462  1.00  0.00     0.096 C 
HETATM   42  O   UNL     1      28.593  46.404  56.501  1.00  0.00    -0.293 OA
ENDBRANCH  37  40
ENDBRANCH  30  34
ENDBRANCH  27  28
ENDBRANCH   4  27
TORSDOF 9
ENDMDL
MODEL 2
REMARK VINA RESULT:      -9.6      3.645      5.326
REMARK  9 active torsions:
REMARK  status: ('A' for Active; 'I' for Inactive)
REMARK    1  A    between atoms: C_2  and  C_3 
REMARK    2  A    between atoms: C_3  and  C_4 
REMARK    3  A    between atoms: C_3  and  C_39 
REMARK    4  A    between atoms: C_6  and  C_7 
REMARK    5  A    between atoms: C_14  and  C_15 
REMARK    6  A    between atoms: C_18  and  C_19 
REMARK    7  A    between atoms: C_19  and  N_20 
REMARK       I    between atoms: N_20  and  C_21 
REMARK       I    between atoms: C_21  and  N_22 
REMARK    8  A    between atoms: N_22  and  C_23 
REMARK    9  A    between atoms: C_26  and  C_27 
ROOT
HETATM    1  C   UNL     1      23.977  43.889  49.336  1.00  0.00     0.068 C 
HETATM    2  C   UNL     1      23.585  42.699  50.258  1.00  0.00     0.001 C 
HETATM    3  C   UNL     1      24.863  41.990  50.766  1.00  0.00     0.040 C 
HETATM    4  C   UNL     1      25.645  41.375  49.591  1.00  0.00     0.206 C 
HETATM    5  N   UNL     1      24.960  41.845  48.312  1.00  0.00    -0.065 N 
HETATM    6  H   UNL     1      25.556  41.540  47.512  1.00  0.00     0.280 HD
HETATM    7  C   UNL     1      24.871  43.361  48.196  1.00  0.00     0.246 C 
HETATM    8  C   UNL     1      22.779  41.687  49.411  1.00  0.00     0.033 C 
HETATM    9  C   UNL     1      23.592  41.229  48.195  1.00  0.00     0.236 C 
ENDROOT
BRANCH   1  10
HETATM   10  C   UNL     1      24.603  45.028  50.115  1.00  0.00     0.045 A 
HETATM   11  N   UNL     1      24.996  46.120  49.429  1.00  0.00    -0.233 NA
HETATM   12  C   UNL     1      25.607  47.099  50.130  1.00  0.00     0.160 A 
HETATM   13  N   UNL     1      25.898  47.017  51.439  1.00  0.00    -0.233 NA
HETATM   14  C   UNL     1      25.509  45.912  52.106  1.00  0.00     0.043 A 
HETATM   15  C   UNL     1      24.825  44.892  51.474  1.00  0.00     0.055 A 
BRANCH  12  16
HETATM   16  C   UNL     1      25.980  48.334  49.418  1.00  0.00     0.014 A 
HETATM   17  C   UNL     1      25.031  49.080  48.703  1.00  0.00     0.034 A 
HETATM   18  C   UNL     1      25.424  50.235  48.046  1.00  0.00     0.117 A 
HETATM   19  N   UNL     1      26.689  50.700  48.048  1.00  0.00    -0.273 NA
HETATM   20  C   UNL     1      27.601  49.974  48.719  1.00  0.00     0.117 A 
HETATM   21  C   UNL     1      27.301  48.809  49.407  1.00  0.00     0.034 A 
ENDBRANCH  12  16
BRANCH  14  22
HETATM   22  C   UNL     1      25.861  45.860  53.583  1.00  0.00     0.037 C 
BRANCH  22  23
HETATM   23  C   UNL     1      24.976  44.886  54.394  1.00  0.00     0.006 C 
HETATM   24  C   UNL     1      25.724  43.654  54.890  1.00  0.00     0.006 C 
ENDBRANCH  22  23
BRANCH  22  25
HETATM   25  C   UNL     1      25.814  47.266  54.218  1.00  0.00     0.006 C 
HETATM   26  C   UNL     1      27.168  47.737  54.740  1.00  0.00     0.006 C 
ENDBRANCH  22  25
ENDBRANCH  14  22
ENDBRANCH   1  10
BRANCH   4  27
HETATM   27  C   UNL     1      27.167  41.672  49.632  1.00  0.00     0.157 C 
BRANCH  27  28
HETATM   28  N   UNL     1      27.566  42.788  50.495  1.00  0.00    -0.341 N 
HETATM   29  C   UNL     1      28.042  42.595  51.770  1.00  0.00     0.320 C 
HETATM   30  N   UNL     1      28.518  43.749  52.331  1.00  0.00    -0.309 N 
HETATM   31  O   UNL     1      27.968  41.495  52.310  1.00  0.00    -0.247 OA
HETATM   32  H   UNL     1      28.233  44.616  51.898  1.00  0.00     0.170 HD
HETATM   33  H   UNL     1      27.990  43.572  50.015  1.00  0.00     0.164 HD
BRANCH  30  34
HETATM   34  C   UNL     1      29.179  43.861  53.574  1.00  0.00     0.036 A 
HETATM   35  C   UNL     1      28.900  44.866  54.505  1.00  0.00     0.030 A 
HETATM   36  C   UNL     1      29.591  44.929  55.722  1.00  0.00     0.017 A 
HETATM   37  C   UNL     1      30.570  43.981  56.024  1.00  0.00     0.009 A 
HETATM   38  C   UNL     1      30.835  42.960  55.103  1.00  0.00     0.017 A 
HETATM   39  C   UNL     1      30.139  42.897  53.889  1.00  0.00     0.030 A 
BRANCH  37  40
HETATM   40  C   UNL     1      31.345  44.016  57.299  1.00  0.00     0.155 C 
HETATM   41  C   UNL     1      30.992  45.042  58.343  1.00  0.00     0.096 C 
HETATM   42  O   UNL     1      32.256  43.211  57.476  1.00  0.00    -0.293 OA
ENDBRANCH  37  40
ENDBRANCH  30  34
ENDBRANCH  27  28
ENDBRANCH   4  27
TORSDOF 9
ENDMDL
MODEL 3
REMARK VINA RESULT:      -9.2      4.059      9.607
REMARK  9 active torsions:
REMARK  status: ('A' for Active; 'I' for Inactive)
REMARK    1  A    between atoms: C_2  and  C_3 
REMARK    2  A    between atoms: C_3  and  C_4 
REMARK    3  A    between atoms: C_3  and  C_39 
REMARK    4  A    between atoms: C_6  and  C_7 
REMARK    5  A    between atoms: C_14  and  C_15 
REMARK    6  A    between atoms: C_18  and  C_19 
REMARK    7  A    between atoms: C_19  and  N_20 
REMARK       I    between atoms: N_20  and  C_21 
REMARK       I    between atoms: C_21  and  N_22 
REMARK    8  A    between atoms: N_22  and  C_23 
REMARK    9  A    between atoms: C_26  and  C_27 
ROOT
HETATM    1  C   UNL     1      24.684  42.659  50.854  1.00  0.00     0.068 C 
HETATM    2  C   UNL     1      24.503  42.746  49.312  1.00  0.00     0.001 C 
HETATM    3  C   UNL     1      25.142  44.054  48.786  1.00  0.00     0.040 C 
HETATM    4  C   UNL     1      24.419  45.283  49.367  1.00  0.00     0.206 C 
HETATM    5  N   UNL     1      23.432  44.761  50.406  1.00  0.00    -0.065 N 
HETATM    6  H   UNL     1      23.031  45.591  50.895  1.00  0.00     0.280 HD
HETATM    7  C   UNL     1      24.087  43.926  51.498  1.00  0.00     0.246 C 
HETATM    8  C   UNL     1      22.987  42.799  49.013  1.00  0.00     0.033 C 
HETATM    9  C   UNL     1      22.332  43.981  49.737  1.00  0.00     0.236 C 
ENDROOT
BRANCH   1  10
HETATM   10  C   UNL     1      26.127  42.407  51.243  1.00  0.00     0.045 A 
HETATM   11  N   UNL     1      26.725  41.298  50.764  1.00  0.00    -0.233 NA
HETATM   12  C   UNL     1      27.990  41.057  51.171  1.00  0.00     0.160 A 
HETATM   13  N   UNL     1      28.650  41.815  52.063  1.00  0.00    -0.233 NA
HETATM   14  C   UNL     1      28.031  42.914  52.541  1.00  0.00     0.043 A 
HETATM   15  C   UNL     1      26.760  43.262  52.128  1.00  0.00     0.055 A 
BRANCH  12  16
HETATM   16  C   UNL     1      28.692  39.892  50.606  1.00  0.00     0.014 A 
HETATM   17  C   UNL     1      29.427  39.017  51.418  1.00  0.00     0.034 A 
HETATM   18  C   UNL     1      30.074  37.934  50.845  1.00  0.00     0.117 A 
HETATM   19  N   UNL     1      30.043  37.659  49.526  1.00  0.00    -0.273 NA
HETATM   20  C   UNL     1      29.353  38.510  48.746  1.00  0.00     0.117 A 
HETATM   21  C   UNL     1      28.673  39.617  49.229  1.00  0.00     0.034 A 
ENDBRANCH  12  16
BRANCH  14  22
HETATM   22  C   UNL     1      28.812  43.740  53.548  1.00  0.00     0.037 C 
BRANCH  22  23
HETATM   23  C   UNL     1      29.957  42.957  54.232  1.00  0.00     0.006 C 
HETATM   24  C   UNL     1      30.646  43.736  55.346  1.00  0.00     0.006 C 
ENDBRANCH  22  23
BRANCH  22  25
HETATM   25  C   UNL     1      27.878  44.347  54.617  1.00  0.00     0.006 C 
HETATM   26  C   UNL     1      27.853  45.871  54.599  1.00  0.00     0.006 C 
ENDBRANCH  22  25
ENDBRANCH  14  22
ENDBRANCH   1  10
BRANCH   4  27
HETATM   27  C   UNL     1      25.381  46.373  49.908  1.00  0.00     0.157 C 
BRANCH  27  28
HETATM   28  N   UNL     1      24.964  47.757  49.660  1.00  0.00    -0.341 N 
HETATM   29  C   UNL     1      23.693  48.075  49.242  1.00  0.00     0.320 C 
HETATM   30  N   UNL     1      23.466  49.425  49.242  1.00  0.00    -0.309 N 
HETATM   31  O   UNL     1      22.915  47.202  48.871  1.00  0.00    -0.247 OA
HETATM   32  H   UNL     1      24.280  50.023  49.271  1.00  0.00     0.170 HD
HETATM   33  H   UNL     1      25.377  48.447  50.274  1.00  0.00     0.164 HD
BRANCH  30  34
HETATM   34  C   UNL     1      22.233  50.063  48.983  1.00  0.00     0.036 A 
HETATM   35  C   UNL     1      21.645  50.115  47.715  1.00  0.00     0.030 A 
HETATM   36  C   UNL     1      20.421  50.766  47.519  1.00  0.00     0.017 A 
HETATM   37  C   UNL     1      19.765  51.371  48.593  1.00  0.00     0.009 A 
HETATM   38  C   UNL     1      20.342  51.301  49.867  1.00  0.00     0.017 A 
HETATM   39  C   UNL     1      21.564  50.645  50.062  1.00  0.00     0.030 A 
BRANCH  37  40
HETATM   40  C   UNL     1      18.468  52.091  48.431  1.00  0.00     0.155 C 
HETATM   41  C   UNL     1      17.736  52.565  49.658  1.00  0.00     0.096 C 
HETATM   42  O   UNL     1      18.019  52.283  47.304  1.00  0.00    -0.293 OA
ENDBRANCH  37  40
ENDBRANCH  30  34
ENDBRANCH  27  28
ENDBRANCH   4  27
TORSDOF 9
ENDMDL
MODEL 4
REMARK VINA RESULT:      -9.1      2.695      7.690
REMARK  9 active torsions:
REMARK  status: ('A' for Active; 'I' for Inactive)
REMARK    1  A    between atoms: C_2  and  C_3 
REMARK    2  A    between atoms: C_3  and  C_4 
REMARK    3  A    between atoms: C_3  and  C_39 
REMARK    4  A    between atoms: C_6  and  C_7 
REMARK    5  A    between atoms: C_14  and  C_15 
REMARK    6  A    between atoms: C_18  and  C_19 
REMARK    7  A    between atoms: C_19  and  N_20 
REMARK       I    between atoms: N_20  and  C_21 
REMARK       I    between atoms: C_21  and  N_22 
REMARK    8  A    between atoms: N_22  and  C_23 
REMARK    9  A    between atoms: C_26  and  C_27 
ROOT
HETATM    1  C   UNL     1      24.096  43.539  50.614  1.00  0.00     0.068 C 
HETATM    2  C   UNL     1      24.994  42.905  49.514  1.00  0.00     0.001 C 
HETATM    3  C   UNL     1      24.907  43.750  48.220  1.00  0.00     0.040 C 
HETATM    4  C   UNL     1      23.474  43.733  47.658  1.00  0.00     0.206 C 
HETATM    5  N   UNL     1      22.604  43.025  48.691  1.00  0.00    -0.065 N 
HETATM    6  H   UNL     1      21.613  43.122  48.380  1.00  0.00     0.280 HD
HETATM    7  C   UNL     1      22.659  43.667  50.071  1.00  0.00     0.246 C 
HETATM    8  C   UNL     1      24.443  41.494  49.204  1.00  0.00     0.033 C 
HETATM    9  C   UNL     1      22.973  41.568  48.775  1.00  0.00     0.236 C 
ENDROOT
BRANCH   1  10
HETATM   10  C   UNL     1      24.665  44.846  51.129  1.00  0.00     0.045 A 
HETATM   11  N   UNL     1      24.912  45.823  50.233  1.00  0.00    -0.233 NA
HETATM   12  C   UNL     1      25.477  46.957  50.701  1.00  0.00     0.160 A 
HETATM   13  N   UNL     1      25.858  47.136  51.977  1.00  0.00    -0.233 NA
HETATM   14  C   UNL     1      25.615  46.143  52.856  1.00  0.00     0.043 A 
HETATM   15  C   UNL     1      24.987  44.975  52.468  1.00  0.00     0.055 A 
BRANCH  12  16
HETATM   16  C   UNL     1      25.689  48.068  49.757  1.00  0.00     0.014 A 
HETATM   17  C   UNL     1      24.611  48.705  49.126  1.00  0.00     0.034 A 
HETATM   18  C   UNL     1      24.854  49.745  48.243  1.00  0.00     0.117 A 
HETATM   19  N   UNL     1      26.089  50.196  47.944  1.00  0.00    -0.273 NA
HETATM   20  C   UNL     1      27.122  49.571  48.537  1.00  0.00     0.117 A 
HETATM   21  C   UNL     1      26.976  48.525  49.434  1.00  0.00     0.034 A 
ENDBRANCH  12  16
BRANCH  14  22
HETATM   22  C   UNL     1      26.066  46.386  54.286  1.00  0.00     0.037 C 
BRANCH  22  23
HETATM   23  C   UNL     1      26.888  47.684  54.461  1.00  0.00     0.006 C 
HETATM   24  C   UNL     1      26.443  48.532  55.646  1.00  0.00     0.006 C 
ENDBRANCH  22  23
BRANCH  22  25
HETATM   25  C   UNL     1      26.860  45.182  54.834  1.00  0.00     0.006 C 
HETATM   26  C   UNL     1      28.360  45.281  54.575  1.00  0.00     0.006 C 
ENDBRANCH  22  25
ENDBRANCH  14  22
ENDBRANCH   1  10
BRANCH   4  27
HETATM   27  C   UNL     1      22.948  45.135  47.251  1.00  0.00     0.157 C 
BRANCH  27  28
HETATM   28  N   UNL     1      22.375  45.931  48.340  1.00  0.00    -0.341 N 
HETATM   29  C   UNL     1      21.646  47.074  48.107  1.00  0.00     0.320 C 
HETATM   30  N   UNL     1      21.059  47.560  49.244  1.00  0.00    -0.309 N 
HETATM   31  O   UNL     1      21.612  47.583  46.991  1.00  0.00    -0.247 OA
HETATM   32  H   UNL     1      21.423  47.222  50.124  1.00  0.00     0.170 HD
HETATM   33  H   UNL     1      22.054  45.398  49.139  1.00  0.00     0.164 HD
BRANCH  30  34
HETATM   34  C   UNL     1      20.155  48.642  49.319  1.00  0.00     0.036 A 
HETATM   35  C   UNL     1      20.558  49.970  49.488  1.00  0.00     0.030 A 
HETATM   36  C   UNL     1      19.614  51.003  49.558  1.00  0.00     0.017 A 
HETATM   37  C   UNL     1      18.251  50.718  49.454  1.00  0.00     0.009 A 
HETATM   38  C   UNL     1      17.847  49.391  49.263  1.00  0.00     0.017 A 
HETATM   39  C   UNL     1      18.793  48.361  49.189  1.00  0.00     0.030 A 
BRANCH  37  40
HETATM   40  C   UNL     1      17.207  51.781  49.540  1.00  0.00     0.155 C 
HETATM   41  C   UNL     1      15.844  51.517  48.958  1.00  0.00     0.096 C 
HETATM   42  O   UNL     1      17.475  52.851  50.081  1.00  0.00    -0.293 OA
ENDBRANCH  37  40
ENDBRANCH  30  34
ENDBRANCH  27  28
ENDBRANCH   4  27
TORSDOF 9
ENDMDL
MODEL 5
REMARK VINA RESULT:      -9.0      3.435      8.509
REMARK  9 active torsions:
REMARK  status: ('A' for Active; 'I' for Inactive)
REMARK    1  A    between atoms: C_2  and  C_3 
REMARK    2  A    between atoms: C_3  and  C_4 
REMARK    3  A    between atoms: C_3  and  C_39 
REMARK    4  A    between atoms: C_6  and  C_7 
REMARK    5  A    between atoms: C_14  and  C_15 
REMARK    6  A    between atoms: C_18  and  C_19 
REMARK    7  A    between atoms: C_19  and  N_20 
REMARK       I    between atoms: N_20  and  C_21 
REMARK       I    between atoms: C_21  and  N_22 
REMARK    8  A    between atoms: N_22  and  C_23 
REMARK    9  A    between atoms: C_26  and  C_27 
ROOT
HETATM    1  C   UNL     1      27.781  41.236  51.152  1.00  0.00     0.068 C 
HETATM    2  C   UNL     1      28.028  41.417  49.627  1.00  0.00     0.001 C 
HETATM    3  C   UNL     1      26.789  42.074  48.973  1.00  0.00     0.040 C 
HETATM    4  C   UNL     1      25.560  41.155  49.097  1.00  0.00     0.206 C 
HETATM    5  N   UNL     1      25.971  39.988  49.989  1.00  0.00    -0.065 N 
HETATM    6  H   UNL     1      25.111  39.430  50.183  1.00  0.00     0.280 HD
HETATM    7  C   UNL     1      26.487  40.423  51.354  1.00  0.00     0.246 C 
HETATM    8  C   UNL     1      28.211  40.013  49.005  1.00  0.00     0.033 C 
HETATM    9  C   UNL     1      26.991  39.130  49.290  1.00  0.00     0.236 C 
ENDROOT
BRANCH   1  10
HETATM   10  C   UNL     1      27.782  42.561  51.888  1.00  0.00     0.045 A 
HETATM   11  N   UNL     1      28.566  42.676  52.979  1.00  0.00    -0.233 NA
HETATM   12  C   UNL     1      28.507  43.842  53.658  1.00  0.00     0.160 A 
HETATM   13  N   UNL     1      27.677  44.851  53.348  1.00  0.00    -0.233 NA
HETATM   14  C   UNL     1      26.891  44.714  52.260  1.00  0.00     0.043 A 
HETATM   15  C   UNL     1      26.936  43.576  51.478  1.00  0.00     0.055 A 
BRANCH  12  16
HETATM   16  C   UNL     1      29.407  44.020  54.810  1.00  0.00     0.014 A 
HETATM   17  C   UNL     1      30.295  43.010  55.207  1.00  0.00     0.034 A 
HETATM   18  C   UNL     1      31.124  43.218  56.298  1.00  0.00     0.117 A 
HETATM   19  N   UNL     1      31.133  44.356  57.021  1.00  0.00    -0.273 NA
HETATM   20  C   UNL     1      30.267  45.316  56.651  1.00  0.00     0.117 A 
HETATM   21  C   UNL     1      29.404  45.199  55.573  1.00  0.00     0.034 A 
ENDBRANCH  12  16
BRANCH  14  22
HETATM   22  C   UNL     1      25.966  45.877  51.949  1.00  0.00     0.037 C 
BRANCH  22  23
HETATM   23  C   UNL     1      25.779  46.128  50.435  1.00  0.00     0.006 C 
HETATM   24  C   UNL     1      26.419  47.422  49.948  1.00  0.00     0.006 C 
ENDBRANCH  22  23
BRANCH  22  25
HETATM   25  C   UNL     1      26.444  47.172  52.641  1.00  0.00     0.006 C 
HETATM   26  C   UNL     1      25.768  47.421  53.985  1.00  0.00     0.006 C 
ENDBRANCH  22  25
ENDBRANCH  14  22
ENDBRANCH   1  10
BRANCH   4  27
HETATM   27  C   UNL     1      24.279  41.889  49.575  1.00  0.00     0.157 C 
BRANCH  27  28
HETATM   28  N   UNL     1      23.838  42.999  48.725  1.00  0.00    -0.341 N 
HETATM   29  C   UNL     1      22.988  43.978  49.181  1.00  0.00     0.320 C 
HETATM   30  N   UNL     1      22.846  45.005  48.287  1.00  0.00    -0.309 N 
HETATM   31  O   UNL     1      22.408  43.859  50.256  1.00  0.00    -0.247 OA
HETATM   32  H   UNL     1      23.130  44.822  47.336  1.00  0.00     0.170 HD
HETATM   33  H   UNL     1      24.526  43.332  48.061  1.00  0.00     0.164 HD
BRANCH  30  34
HETATM   34  C   UNL     1      22.142  46.211  48.506  1.00  0.00     0.036 A 
HETATM   35  C   UNL     1      20.749  46.309  48.449  1.00  0.00     0.030 A 
HETATM   36  C   UNL     1      20.107  47.533  48.672  1.00  0.00     0.017 A 
HETATM   37  C   UNL     1      20.854  48.677  48.961  1.00  0.00     0.009 A 
HETATM   38  C   UNL     1      22.248  48.576  49.041  1.00  0.00     0.017 A 
HETATM   39  C   UNL     1      22.888  47.349  48.821  1.00  0.00     0.030 A 
BRANCH  37  40
HETATM   40  C   UNL     1      20.217  50.007  49.189  1.00  0.00     0.155 C 
HETATM   41  C   UNL     1      20.842  51.233  48.578  1.00  0.00     0.096 C 
HETATM   42  O   UNL     1      19.198  50.082  49.872  1.00  0.00    -0.293 OA
ENDBRANCH  37  40
ENDBRANCH  30  34
ENDBRANCH  27  28
ENDBRANCH   4  27
TORSDOF 9
ENDMDL
MODEL 6
REMARK VINA RESULT:      -8.9      1.546      2.027
REMARK  9 active torsions:
REMARK  status: ('A' for Active; 'I' for Inactive)
REMARK    1  A    between atoms: C_2  and  C_3 
REMARK    2  A    between atoms: C_3  and  C_4 
REMARK    3  A    between atoms: C_3  and  C_39 
REMARK    4  A    between atoms: C_6  and  C_7 
REMARK    5  A    between atoms: C_14  and  C_15 
REMARK    6  A    between atoms: C_18  and  C_19 
REMARK    7  A    between atoms: C_19  and  N_20 
REMARK       I    between atoms: N_20  and  C_21 
REMARK       I    between atoms: C_21  and  N_22 
REMARK    8  A    between atoms: N_22  and  C_23 
REMARK    9  A    between atoms: C_26  and  C_27 
ROOT
HETATM    1  C   UNL     1      19.157  46.946  46.223  1.00  0.00     0.068 C 
HETATM    2  C   UNL     1      18.417  46.123  47.316  1.00  0.00     0.001 C 
HETATM    3  C   UNL     1      19.450  45.471  48.266  1.00  0.00     0.040 C 
HETATM    4  C   UNL     1      20.329  44.465  47.501  1.00  0.00     0.206 C 
HETATM    5  N   UNL     1      19.977  44.605  46.024  1.00  0.00    -0.065 N 
HETATM    6  H   UNL     1      20.655  44.022  45.487  1.00  0.00     0.280 HD
HETATM    7  C   UNL     1      20.151  46.022  45.493  1.00  0.00     0.246 C 
HETATM    8  C   UNL     1      17.633  44.992  46.611  1.00  0.00     0.033 C 
HETATM    9  C   UNL     1      18.575  44.120  45.773  1.00  0.00     0.236 C 
ENDROOT
BRANCH   1  10
HETATM   10  C   UNL     1      19.799  48.196  46.791  1.00  0.00     0.045 A 
HETATM   11  N   UNL     1      21.052  48.095  47.278  1.00  0.00    -0.233 NA
HETATM   12  C   UNL     1      21.585  49.204  47.836  1.00  0.00     0.160 A 
HETATM   13  N   UNL     1      20.922  50.362  47.987  1.00  0.00    -0.233 NA
HETATM   14  C   UNL     1      19.665  50.441  47.504  1.00  0.00     0.043 A 
HETATM   15  C   UNL     1      19.070  49.369  46.866  1.00  0.00     0.055 A 
BRANCH  12  16
HETATM   16  C   UNL     1      22.978  49.142  48.309  1.00  0.00     0.014 A 
HETATM   17  C   UNL     1      23.413  48.122  49.168  1.00  0.00     0.034 A 
HETATM   18  C   UNL     1      24.732  48.101  49.592  1.00  0.00     0.117 A 
HETATM   19  N   UNL     1      25.648  49.019  49.224  1.00  0.00    -0.273 NA
HETATM   20  C   UNL     1      25.225  50.007  48.415  1.00  0.00     0.117 A 
HETATM   21  C   UNL     1      23.927  50.108  47.939  1.00  0.00     0.034 A 
ENDBRANCH  12  16
BRANCH  14  22
HETATM   22  C   UNL     1      18.952  51.768  47.699  1.00  0.00     0.037 C 
BRANCH  22  23
HETATM   23  C   UNL     1      18.919  52.239  49.171  1.00  0.00     0.006 C 
HETATM   24  C   UNL     1      17.530  52.184  49.796  1.00  0.00     0.006 C 
ENDBRANCH  22  23
BRANCH  22  25
HETATM   25  C   UNL     1      17.519  51.721  47.129  1.00  0.00     0.006 C 
HETATM   26  C   UNL     1      17.387  52.403  45.772  1.00  0.00     0.006 C 
ENDBRANCH  22  25
ENDBRANCH  14  22
ENDBRANCH   1  10
BRANCH   4  27
HETATM   27  C   UNL     1      21.845  44.608  47.800  1.00  0.00     0.157 C 
BRANCH  27  28
HETATM   28  N   UNL     1      22.202  44.664  49.221  1.00  0.00    -0.341 N 
HETATM   29  C   UNL     1      23.483  44.438  49.664  1.00  0.00     0.320 C 
HETATM   30  N   UNL     1      23.631  44.712  50.997  1.00  0.00    -0.309 N 
HETATM   31  O   UNL     1      24.341  43.988  48.910  1.00  0.00    -0.247 OA
HETATM   32  H   UNL     1      22.785  44.773  51.546  1.00  0.00     0.170 HD
HETATM   33  H   UNL     1      21.697  45.354  49.764  1.00  0.00     0.164 HD
BRANCH  30  34
HETATM   34  C   UNL     1      24.844  44.697  51.722  1.00  0.00     0.036 A 
HETATM   35  C   UNL     1      25.372  45.824  52.359  1.00  0.00     0.030 A 
HETATM   36  C   UNL     1      26.581  45.749  53.062  1.00  0.00     0.017 A 
HETATM   37  C   UNL     1      27.276  44.540  53.141  1.00  0.00     0.009 A 
HETATM   38  C   UNL     1      26.737  43.405  52.522  1.00  0.00     0.017 A 
HETATM   39  C   UNL     1      25.525  43.482  51.824  1.00  0.00     0.030 A 
BRANCH  37  40
HETATM   40  C   UNL     1      28.576  44.414  53.863  1.00  0.00     0.155 C 
HETATM   41  C   UNL     1      29.483  43.256  53.542  1.00  0.00     0.096 C 
HETATM   42  O   UNL     1      28.884  45.253  54.706  1.00  0.00    -0.293 OA
ENDBRANCH  37  40
ENDBRANCH  30  34
ENDBRANCH  27  28
ENDBRANCH   4  27
TORSDOF 9
ENDMDL
MODEL 7
REMARK VINA RESULT:      -8.5      3.175      8.603
REMARK  9 active torsions:
REMARK  status: ('A' for Active; 'I' for Inactive)
REMARK    1  A    between atoms: C_2  and  C_3 
REMARK    2  A    between atoms: C_3  and  C_4 
REMARK    3  A    between atoms: C_3  and  C_39 
REMARK    4  A    between atoms: C_6  and  C_7 
REMARK    5  A    between atoms: C_14  and  C_15 
REMARK    6  A    between atoms: C_18  and  C_19 
REMARK    7  A    between atoms: C_19  and  N_20 
REMARK       I    between atoms: N_20  and  C_21 
REMARK       I    between atoms: C_21  and  N_22 
REMARK    8  A    between atoms: N_22  and  C_23 
REMARK    9  A    between atoms: C_26  and  C_27 
ROOT
HETATM    1  C   UNL     1      27.445  41.129  50.474  1.00  0.00     0.068 C 
HETATM    2  C   UNL     1      27.559  41.415  48.949  1.00  0.00     0.001 C 
HETATM    3  C   UNL     1      26.238  42.034  48.435  1.00  0.00     0.040 C 
HETATM    4  C   UNL     1      25.075  41.038  48.593  1.00  0.00     0.206 C 
HETATM    5  N   UNL     1      25.619  39.846  49.375  1.00  0.00    -0.065 N 
HETATM    6  H   UNL     1      24.809  39.227  49.597  1.00  0.00     0.280 HD
HETATM    7  C   UNL     1      26.218  40.229  50.721  1.00  0.00     0.246 C 
HETATM    8  C   UNL     1      27.769  40.064  48.227  1.00  0.00     0.033 C 
HETATM    9  C   UNL     1      26.626  39.094  48.547  1.00  0.00     0.236 C 
ENDROOT
BRANCH   1  10
HETATM   10  C   UNL     1      27.431  42.405  51.291  1.00  0.00     0.045 A 
HETATM   11  N   UNL     1      26.908  43.511  50.726  1.00  0.00    -0.233 NA
HETATM   12  C   UNL     1      26.961  44.653  51.445  1.00  0.00     0.160 A 
HETATM   13  N   UNL     1      27.554  44.758  52.646  1.00  0.00    -0.233 NA
HETATM   14  C   UNL     1      28.083  43.644  53.191  1.00  0.00     0.043 A 
HETATM   15  C   UNL     1      28.017  42.425  52.545  1.00  0.00     0.055 A 
BRANCH  12  16
HETATM   16  C   UNL     1      26.331  45.859  50.881  1.00  0.00     0.014 A 
HETATM   17  C   UNL     1      26.980  46.637  49.912  1.00  0.00     0.034 A 
HETATM   18  C   UNL     1      26.352  47.766  49.408  1.00  0.00     0.117 A 
HETATM   19  N   UNL     1      25.129  48.175  49.798  1.00  0.00    -0.273 NA
HETATM   20  C   UNL     1      24.515  47.437  50.741  1.00  0.00     0.117 A 
HETATM   21  C   UNL     1      25.063  46.294  51.300  1.00  0.00     0.034 A 
ENDBRANCH  12  16
BRANCH  14  22
HETATM   22  C   UNL     1      28.747  43.809  54.547  1.00  0.00     0.037 C 
BRANCH  22  23
HETATM   23  C   UNL     1      29.082  45.278  54.895  1.00  0.00     0.006 C 
HETATM   24  C   UNL     1      28.214  45.854  56.006  1.00  0.00     0.006 C 
ENDBRANCH  22  23
BRANCH  22  25
HETATM   25  C   UNL     1      30.017  42.939  54.658  1.00  0.00     0.006 C 
HETATM   26  C   UNL     1      30.880  43.284  55.867  1.00  0.00     0.006 C 
ENDBRANCH  22  25
ENDBRANCH  14  22
ENDBRANCH   1  10
BRANCH   4  27
HETATM   27  C   UNL     1      23.798  41.664  49.213  1.00  0.00     0.157 C 
BRANCH  27  28
HETATM   28  N   UNL     1      23.114  42.654  48.375  1.00  0.00    -0.341 N 
HETATM   29  C   UNL     1      22.435  43.723  48.910  1.00  0.00     0.320 C 
HETATM   30  N   UNL     1      22.025  44.613  47.954  1.00  0.00    -0.309 N 
HETATM   31  O   UNL     1      22.207  43.785  50.114  1.00  0.00    -0.247 OA
HETATM   32  H   UNL     1      22.011  44.281  47.000  1.00  0.00     0.170 HD
HETATM   33  H   UNL     1      23.569  42.858  47.493  1.00  0.00     0.164 HD
BRANCH  30  34
HETATM   34  C   UNL     1      21.413  45.864  48.188  1.00  0.00     0.036 A 
HETATM   35  C   UNL     1      20.080  46.006  48.584  1.00  0.00     0.030 A 
HETATM   36  C   UNL     1      19.527  47.275  48.798  1.00  0.00     0.017 A 
HETATM   37  C   UNL     1      20.305  48.421  48.621  1.00  0.00     0.009 A 
HETATM   38  C   UNL     1      21.646  48.279  48.245  1.00  0.00     0.017 A 
HETATM   39  C   UNL     1      22.198  47.009  48.037  1.00  0.00     0.030 A 
BRANCH  37  40
HETATM   40  C   UNL     1      19.756  49.794  48.819  1.00  0.00     0.155 C 
HETATM   41  C   UNL     1      20.687  50.975  48.731  1.00  0.00     0.096 C 
HETATM   42  O   UNL     1      18.559  49.941  49.053  1.00  0.00    -0.293 OA
ENDBRANCH  37  40
ENDBRANCH  30  34
ENDBRANCH  27  28
ENDBRANCH   4  27
TORSDOF 9
ENDMDL
MODEL 8
REMARK VINA RESULT:      -8.5      3.847      8.710
REMARK  9 active torsions:
REMARK  status: ('A' for Active; 'I' for Inactive)
REMARK    1  A    between atoms: C_2  and  C_3 
REMARK    2  A    between atoms: C_3  and  C_4 
REMARK    3  A    between atoms: C_3  and  C_39 
REMARK    4  A    between atoms: C_6  and  C_7 
REMARK    5  A    between atoms: C_14  and  C_15 
REMARK    6  A    between atoms: C_18  and  C_19 
REMARK    7  A    between atoms: C_19  and  N_20 
REMARK       I    between atoms: N_20  and  C_21 
REMARK       I    between atoms: C_21  and  N_22 
REMARK    8  A    between atoms: N_22  and  C_23 
REMARK    9  A    between atoms: C_26  and  C_27 
ROOT
HETATM    1  C   UNL     1      27.842  40.493  50.186  1.00  0.00     0.068 C 
HETATM    2  C   UNL     1      28.291  40.479  48.697  1.00  0.00     0.001 C 
HETATM    3  C   UNL     1      27.144  41.004  47.802  1.00  0.00     0.040 C 
HETATM    4  C   UNL     1      25.922  40.071  47.884  1.00  0.00     0.206 C 
HETATM    5  N   UNL     1      26.224  39.045  48.971  1.00  0.00    -0.065 N 
HETATM    6  H   UNL     1      25.354  38.490  49.122  1.00  0.00     0.280 HD
HETATM    7  C   UNL     1      26.544  39.672  50.321  1.00  0.00     0.246 C 
HETATM    8  C   UNL     1      28.577  39.012  48.300  1.00  0.00     0.033 C 
HETATM    9  C   UNL     1      27.341  38.136  48.536  1.00  0.00     0.236 C 
ENDROOT
BRANCH   1  10
HETATM   10  C   UNL     1      27.724  41.902  50.731  1.00  0.00     0.045 A 
HETATM   11  N   UNL     1      28.345  42.183  51.894  1.00  0.00    -0.233 NA
HETATM   12  C   UNL     1      28.178  43.426  52.396  1.00  0.00     0.160 A 
HETATM   13  N   UNL     1      27.387  44.360  51.841  1.00  0.00    -0.233 NA
HETATM   14  C   UNL     1      26.764  44.057  50.684  1.00  0.00     0.043 A 
HETATM   15  C   UNL     1      26.931  42.828  50.076  1.00  0.00     0.055 A 
BRANCH  12  16
HETATM   16  C   UNL     1      28.904  43.781  53.626  1.00  0.00     0.014 A 
HETATM   17  C   UNL     1      29.988  43.016  54.081  1.00  0.00     0.034 A 
HETATM   18  C   UNL     1      30.644  43.385  55.245  1.00  0.00     0.117 A 
HETATM   19  N   UNL     1      30.300  44.456  55.988  1.00  0.00    -0.273 NA
HETATM   20  C   UNL     1      29.249  45.178  55.560  1.00  0.00     0.117 A 
HETATM   21  C   UNL     1      28.535  44.887  54.408  1.00  0.00     0.034 A 
ENDBRANCH  12  16
BRANCH  14  22
HETATM   22  C   UNL     1      25.878  45.141  50.095  1.00  0.00     0.037 C 
BRANCH  22  23
HETATM   23  C   UNL     1      26.593  46.503  49.938  1.00  0.00     0.006 C 
HETATM   24  C   UNL     1      25.642  47.694  49.947  1.00  0.00     0.006 C 
ENDBRANCH  22  23
BRANCH  22  25
HETATM   25  C   UNL     1      24.586  45.317  50.921  1.00  0.00     0.006 C 
HETATM   26  C   UNL     1      23.630  44.134  50.804  1.00  0.00     0.006 C 
ENDBRANCH  22  25
ENDBRANCH  14  22
ENDBRANCH   1  10
BRANCH   4  27
HETATM   27  C   UNL     1      24.578  40.820  48.084  1.00  0.00     0.157 C 
BRANCH  27  28
HETATM   28  N   UNL     1      24.489  42.133  47.439  1.00  0.00    -0.341 N 
HETATM   29  C   UNL     1      23.331  42.873  47.440  1.00  0.00     0.320 C 
HETATM   30  N   UNL     1      23.515  44.134  46.940  1.00  0.00    -0.309 N 
HETATM   31  O   UNL     1      22.269  42.381  47.810  1.00  0.00    -0.247 OA
HETATM   32  H   UNL     1      24.353  44.290  46.397  1.00  0.00     0.170 HD
HETATM   33  H   UNL     1      25.332  42.693  47.486  1.00  0.00     0.164 HD
BRANCH  30  34
HETATM   34  C   UNL     1      22.557  45.172  46.918  1.00  0.00     0.036 A 
HETATM   35  C   UNL     1      21.546  45.264  45.957  1.00  0.00     0.030 A 
HETATM   36  C   UNL     1      20.625  46.318  45.984  1.00  0.00     0.017 A 
HETATM   37  C   UNL     1      20.702  47.294  46.980  1.00  0.00     0.009 A 
HETATM   38  C   UNL     1      21.700  47.191  47.957  1.00  0.00     0.017 A 
HETATM   39  C   UNL     1      22.617  46.133  47.930  1.00  0.00     0.030 A 
BRANCH  37  40
HETATM   40  C   UNL     1      19.754  48.446  47.041  1.00  0.00     0.155 C 
HETATM   41  C   UNL     1      19.936  49.488  48.113  1.00  0.00     0.096 C 
HETATM   42  O   UNL     1      18.843  48.525  46.220  1.00  0.00    -0.293 OA
ENDBRANCH  37  40
ENDBRANCH  30  34
ENDBRANCH  27  28
ENDBRANCH   4  27
TORSDOF 9
ENDMDL
MODEL 9
REMARK VINA RESULT:      -8.4      3.403      6.260
REMARK  9 active torsions:
REMARK  status: ('A' for Active; 'I' for Inactive)
REMARK    1  A    between atoms: C_2  and  C_3 
REMARK    2  A    between atoms: C_3  and  C_4 
REMARK    3  A    between atoms: C_3  and  C_39 
REMARK    4  A    between atoms: C_6  and  C_7 
REMARK    5  A    between atoms: C_14  and  C_15 
REMARK    6  A    between atoms: C_18  and  C_19 
REMARK    7  A    between atoms: C_19  and  N_20 
REMARK       I    between atoms: N_20  and  C_21 
REMARK       I    between atoms: C_21  and  N_22 
REMARK    8  A    between atoms: N_22  and  C_23 
REMARK    9  A    between atoms: C_26  and  C_27 
ROOT
HETATM    1  C   UNL     1      19.033  49.827  48.128  1.00  0.00     0.068 C 
HETATM    2  C   UNL     1      19.879  51.122  48.285  1.00  0.00     0.001 C 
HETATM    3  C   UNL     1      21.365  50.812  47.991  1.00  0.00     0.040 C 
HETATM    4  C   UNL     1      21.925  49.813  49.020  1.00  0.00     0.206 C 
HETATM    5  N   UNL     1      20.745  49.346  49.867  1.00  0.00    -0.065 N 
HETATM    6  H   UNL     1      21.090  48.576  50.480  1.00  0.00     0.280 HD
HETATM    7  C   UNL     1      19.617  48.736  49.047  1.00  0.00     0.246 C 
HETATM    8  C   UNL     1      19.768  51.587  49.756  1.00  0.00     0.033 C 
HETATM    9  C   UNL     1      20.227  50.479  50.711  1.00  0.00     0.236 C 
ENDROOT
BRANCH   1  10
HETATM   10  C   UNL     1      18.917  49.397  46.679  1.00  0.00     0.045 A 
HETATM   11  N   UNL     1      18.646  50.345  45.759  1.00  0.00    -0.233 NA
HETATM   12  C   UNL     1      18.485  49.934  44.483  1.00  0.00     0.160 A 
HETATM   13  N   UNL     1      18.515  48.648  44.098  1.00  0.00    -0.233 NA
HETATM   14  C   UNL     1      18.774  47.712  45.033  1.00  0.00     0.043 A 
HETATM   15  C   UNL     1      19.010  48.056  46.350  1.00  0.00     0.055 A 
BRANCH  12  16
HETATM   16  C   UNL     1      18.262  50.958  43.447  1.00  0.00     0.014 A 
HETATM   17  C   UNL     1      18.982  50.947  42.243  1.00  0.00     0.034 A 
HETATM   18  C   UNL     1      18.742  51.930  41.296  1.00  0.00     0.117 A 
HETATM   19  N   UNL     1      17.842  52.920  41.459  1.00  0.00    -0.273 NA
HETATM   20  C   UNL     1      17.166  52.938  42.622  1.00  0.00     0.117 A 
HETATM   21  C   UNL     1      17.336  51.998  43.625  1.00  0.00     0.034 A 
ENDBRANCH  12  16
BRANCH  14  22
HETATM   22  C   UNL     1      18.795  46.271  44.554  1.00  0.00     0.037 C 
BRANCH  22  23
HETATM   23  C   UNL     1      17.605  45.431  45.073  1.00  0.00     0.006 C 
HETATM   24  C   UNL     1      16.318  45.649  44.286  1.00  0.00     0.006 C 
ENDBRANCH  22  23
BRANCH  22  25
HETATM   25  C   UNL     1      20.126  45.579  44.921  1.00  0.00     0.006 C 
HETATM   26  C   UNL     1      21.223  45.796  43.885  1.00  0.00     0.006 C 
ENDBRANCH  22  25
ENDBRANCH  14  22
ENDBRANCH   1  10
BRANCH   4  27
HETATM   27  C   UNL     1      22.739  48.654  48.386  1.00  0.00     0.157 C 
BRANCH  27  28
HETATM   28  N   UNL     1      23.063  47.547  49.289  1.00  0.00    -0.341 N 
HETATM   29  C   UNL     1      24.227  47.513  50.020  1.00  0.00     0.320 C 
HETATM   30  N   UNL     1      24.247  46.486  50.924  1.00  0.00    -0.309 N 
HETATM   31  O   UNL     1      25.132  48.312  49.799  1.00  0.00    -0.247 OA
HETATM   32  H   UNL     1      23.582  45.740  50.780  1.00  0.00     0.170 HD
HETATM   33  H   UNL     1      22.270  47.134  49.765  1.00  0.00     0.164 HD
BRANCH  30  34
HETATM   34  C   UNL     1      25.241  46.254  51.901  1.00  0.00     0.036 A 
HETATM   35  C   UNL     1      25.508  47.137  52.951  1.00  0.00     0.030 A 
HETATM   36  C   UNL     1      26.509  46.854  53.889  1.00  0.00     0.017 A 
HETATM   37  C   UNL     1      27.254  45.677  53.789  1.00  0.00     0.009 A 
HETATM   38  C   UNL     1      26.973  44.781  52.750  1.00  0.00     0.017 A 
HETATM   39  C   UNL     1      25.969  45.065  51.817  1.00  0.00     0.030 A 
BRANCH  37  40
HETATM   40  C   UNL     1      28.343  45.340  54.753  1.00  0.00     0.155 C 
HETATM   41  C   UNL     1      28.619  46.273  55.902  1.00  0.00     0.096 C 
HETATM   42  O   UNL     1      28.995  44.310  54.594  1.00  0.00    -0.293 OA
ENDBRANCH  37  40
ENDBRANCH  30  34
ENDBRANCH  27  28
ENDBRANCH   4  27
TORSDOF 9
ENDMDL
MODEL 10
REMARK VINA RESULT:      -8.3      2.522      5.401
REMARK  9 active torsions:
REMARK  status: ('A' for Active; 'I' for Inactive)
REMARK    1  A    between atoms: C_2  and  C_3 
REMARK    2  A    between atoms: C_3  and  C_4 
REMARK    3  A    between atoms: C_3  and  C_39 
REMARK    4  A    between atoms: C_6  and  C_7 
REMARK    5  A    between atoms: C_14  and  C_15 
REMARK    6  A    between atoms: C_18  and  C_19 
REMARK    7  A    between atoms: C_19  and  N_20 
REMARK       I    between atoms: N_20  and  C_21 
REMARK       I    between atoms: C_21  and  N_22 
REMARK    8  A    between atoms: N_22  and  C_23 
REMARK    9  A    between atoms: C_26  and  C_27 
ROOT
HETATM    1  C   UNL     1      19.603  49.339  48.243  1.00  0.00     0.068 C 
HETATM    2  C   UNL     1      20.400  50.610  47.832  1.00  0.00     0.001 C 
HETATM    3  C   UNL     1      21.878  50.235  47.573  1.00  0.00     0.040 C 
HETATM    4  C   UNL     1      22.541  49.719  48.863  1.00  0.00     0.206 C 
HETATM    5  N   UNL     1      21.435  49.594  49.906  1.00  0.00    -0.065 N 
HETATM    6  H   UNL     1      21.850  49.125  50.741  1.00  0.00     0.280 HD
HETATM    7  C   UNL     1      20.288  48.696  49.465  1.00  0.00     0.246 C 
HETATM    8  C   UNL     1      20.357  51.602  49.017  1.00  0.00     0.033 C 
HETATM    9  C   UNL     1      20.920  50.955  50.287  1.00  0.00     0.236 C 
ENDROOT
BRANCH   1  10
HETATM   10  C   UNL     1      19.419  48.383  47.082  1.00  0.00     0.045 A 
HETATM   11  N   UNL     1      19.931  47.141  47.200  1.00  0.00    -0.233 NA
HETATM   12  C   UNL     1      19.812  46.323  46.132  1.00  0.00     0.160 A 
HETATM   13  N   UNL     1      19.279  46.695  44.956  1.00  0.00    -0.233 NA
HETATM   14  C   UNL     1      18.784  47.945  44.852  1.00  0.00     0.043 A 
HETATM   15  C   UNL     1      18.813  48.823  45.918  1.00  0.00     0.055 A 
BRANCH  12  16
HETATM   16  C   UNL     1      20.296  44.938  46.260  1.00  0.00     0.014 A 
HETATM   17  C   UNL     1      19.646  43.875  45.616  1.00  0.00     0.034 A 
HETATM   18  C   UNL     1      20.134  42.586  45.765  1.00  0.00     0.117 A 
HETATM   19  N   UNL     1      21.217  42.279  46.506  1.00  0.00    -0.273 NA
HETATM   20  C   UNL     1      21.828  43.298  47.138  1.00  0.00     0.117 A 
HETATM   21  C   UNL     1      21.414  44.617  47.046  1.00  0.00     0.034 A 
ENDBRANCH  12  16
BRANCH  14  22
HETATM   22  C   UNL     1      18.194  48.324  43.504  1.00  0.00     0.037 C 
BRANCH  22  23
HETATM   23  C   UNL     1      17.843  49.825  43.385  1.00  0.00     0.006 C 
HETATM   24  C   UNL     1      18.876  50.632  42.607  1.00  0.00     0.006 C 
ENDBRANCH  22  23
BRANCH  22  25
HETATM   25  C   UNL     1      16.954  47.466  43.176  1.00  0.00     0.006 C 
HETATM   26  C   UNL     1      15.987  48.148  42.214  1.00  0.00     0.006 C 
ENDBRANCH  22  25
ENDBRANCH  14  22
ENDBRANCH   1  10
BRANCH   4  27
HETATM   27  C   UNL     1      23.365  48.420  48.663  1.00  0.00     0.157 C 
BRANCH  27  28
HETATM   28  N   UNL     1      23.498  47.572  49.852  1.00  0.00    -0.341 N 
HETATM   29  C   UNL     1      24.708  47.357  50.467  1.00  0.00     0.320 C 
HETATM   30  N   UNL     1      24.580  46.684  51.652  1.00  0.00    -0.309 N 
HETATM   31  O   UNL     1      25.757  47.707  49.934  1.00  0.00    -0.247 OA
HETATM   32  H   UNL     1      23.708  46.197  51.806  1.00  0.00     0.170 HD
HETATM   33  H   UNL     1      22.714  47.603  50.492  1.00  0.00     0.164 HD
BRANCH  30  34
HETATM   34  C   UNL     1      25.614  46.417  52.576  1.00  0.00     0.036 A 
HETATM   35  C   UNL     1      26.039  47.335  53.542  1.00  0.00     0.030 A 
HETATM   36  C   UNL     1      27.072  47.015  54.431  1.00  0.00     0.017 A 
HETATM   37  C   UNL     1      27.693  45.766  54.367  1.00  0.00     0.009 A 
HETATM   38  C   UNL     1      27.255  44.837  53.415  1.00  0.00     0.017 A 
HETATM   39  C   UNL     1      26.218  45.158  52.531  1.00  0.00     0.030 A 
BRANCH  37  40
HETATM   40  C   UNL     1      28.810  45.385  55.280  1.00  0.00     0.155 C 
HETATM   41  C   UNL     1      29.609  44.144  54.982  1.00  0.00     0.096 C 
HETATM   42  O   UNL     1      29.059  46.086  56.258  1.00  0.00    -0.293 OA
ENDBRANCH  37  40
ENDBRANCH  30  34
ENDBRANCH  27  28
ENDBRANCH   4  27
TORSDOF 9
ENDMDL
