MODEL 1
REMARK VINA RESULT:      -9.8      0.000      0.000
REMARK  8 active torsions:
REMARK  status: ('A' for Active; 'I' for Inactive)
REMARK    1  A    between atoms: C_5  and  C_6 
REMARK       I    between atoms: C_6  and  N_7 
REMARK    2  A    between atoms: N_7  and  N_8 
REMARK       I    between atoms: N_8  and  C_9 
REMARK    3  A    between atoms: C_9  and  C_10 
REMARK    4  A    between atoms: C_10  and  S_11 
REMARK    5  A    between atoms: S_11  and  C_12 
REMARK    6  A    between atoms: C_14  and  C_15 
REMARK    7  A    between atoms: C_15  and  N_16 
REMARK    8  A    between atoms: N_16  and  C_17 
ROOT
HETATM    1  S   UNL     1      24.460  44.446  49.717  1.00  0.00    -0.081 SA
ENDROOT
BRANCH   1   2
HETATM    2  C   UNL     1      24.678  46.249  49.714  1.00  0.00     0.187 C 
BRANCH   2   3
HETATM    3  C   UNL     1      23.482  46.985  49.128  1.00  0.00     0.245 C 
HETATM    4  N   UNL     1      23.147  48.127  49.834  1.00  0.00    -0.267 N 
HETATM    5  H   UNL     1      23.473  48.288  50.789  1.00  0.00     0.190 HD
HETATM    6  O   UNL     1      22.850  46.628  48.132  1.00  0.00    -0.271 OA
BRANCH   4   7
HETATM    7  N   UNL     1      21.918  48.738  49.525  1.00  0.00    -0.263 N 
HETATM    8  C   UNL     1      21.892  50.121  49.528  1.00  0.00     0.270 C 
HETATM    9  O   UNL     1      22.920  50.785  49.655  1.00  0.00    -0.266 OA
HETATM   10  H   UNL     1      21.088  48.174  49.698  1.00  0.00     0.190 HD
BRANCH   8  11
HETATM   11  C   UNL     1      20.559  50.776  49.408  1.00  0.00     0.033 A 
HETATM   12  C   UNL     1      20.313  51.837  48.527  1.00  0.00     0.017 A 
HETATM   13  C   UNL     1      19.040  52.414  48.460  1.00  0.00     0.007 A 
HETATM   14  C   UNL     1      18.000  51.943  49.268  1.00  0.00    -0.062 A 
HETATM   15  C   UNL     1      16.643  52.583  49.223  1.00  0.00     0.048 C 
HETATM   16  C   UNL     1      18.255  50.900  50.166  1.00  0.00     0.007 A 
HETATM   17  C   UNL     1      19.524  50.321  50.234  1.00  0.00     0.017 A 
ENDBRANCH   8  11
ENDBRANCH   4   7
ENDBRANCH   2   3
ENDBRANCH   1   2
BRANCH   1  18
HETATM   18  C   UNL     1      25.317  44.033  51.151  1.00  0.00     0.185 A 
HETATM   19  N   UNL     1      26.355  43.247  51.264  1.00  0.00    -0.204 NA
HETATM   20  C   UNL     1      26.630  43.303  52.615  1.00  0.00     0.166 A 
HETATM   21  N   UNL     1      25.814  44.105  53.321  1.00  0.00    -0.155 NA
HETATM   22  N   UNL     1      24.974  44.539  52.365  1.00  0.00    -0.254 N 
HETATM   23  H   UNL     1      24.247  45.216  52.579  1.00  0.00     0.191 HD
BRANCH  20  24
HETATM   24  C   UNL     1      27.741  42.498  53.245  1.00  0.00     0.202 C 
BRANCH  24  25
HETATM   25  N   UNL     1      29.051  43.156  53.308  1.00  0.00    -0.383 N 
HETATM   26  H   UNL     1      29.223  43.727  52.485  1.00  0.00     0.160 HD
BRANCH  25  27
HETATM   27  C   UNL     1      29.494  43.752  54.487  1.00  0.00     0.028 A 
HETATM   28  C   UNL     1      30.536  43.242  55.274  1.00  0.00     0.036 A 
HETATM   29  C   UNL     1      30.997  43.920  56.416  1.00  0.00    -0.060 A 
HETATM   30  C   UNL     1      32.107  43.354  57.251  1.00  0.00     0.048 C 
HETATM   31  C   UNL     1      30.433  45.153  56.752  1.00  0.00     0.007 A 
HETATM   32  C   UNL     1      29.428  45.700  55.959  1.00  0.00     0.003 A 
HETATM   33  C   UNL     1      28.975  45.007  54.833  1.00  0.00     0.029 A 
ENDBRANCH  25  27
ENDBRANCH  24  25
ENDBRANCH  20  24
ENDBRANCH   1  18
TORSDOF 8
ENDMDL
MODEL 2
REMARK VINA RESULT:      -9.7      1.466      2.222
REMARK  8 active torsions:
REMARK  status: ('A' for Active; 'I' for Inactive)
REMARK    1  A    between atoms: C_5  and  C_6 
REMARK       I    between atoms: C_6  and  N_7 
REMARK    2  A    between atoms: N_7  and  N_8 
REMARK       I    between atoms: N_8  and  C_9 
REMARK    3  A    between atoms: C_9  and  C_10 
REMARK    4  A    between atoms: C_10  and  S_11 
REMARK    5  A    between atoms: S_11  and  C_12 
REMARK    6  A    between atoms: C_14  and  C_15 
REMARK    7  A    between atoms: C_15  and  N_16 
REMARK    8  A    between atoms: N_16  and  C_17 
ROOT
HETATM    1  S   UNL     1      25.110  47.135  50.979  1.00  0.00    -0.081 SA
ENDROOT
BRANCH   1   2
HETATM    2  C   UNL     1      25.414  47.987  49.404  1.00  0.00     0.187 C 
BRANCH   2   3
HETATM    3  C   UNL     1      24.217  48.803  48.938  1.00  0.00     0.245 C 
HETATM    4  N   UNL     1      23.165  48.787  49.836  1.00  0.00    -0.267 N 
HETATM    5  H   UNL     1      23.091  48.082  50.571  1.00  0.00     0.190 HD
HETATM    6  O   UNL     1      24.155  49.424  47.874  1.00  0.00    -0.271 OA
BRANCH   4   7
HETATM    7  N   UNL     1      21.932  49.301  49.393  1.00  0.00    -0.263 N 
HETATM    8  C   UNL     1      21.557  50.536  49.891  1.00  0.00     0.270 C 
HETATM    9  O   UNL     1      22.322  51.216  50.573  1.00  0.00    -0.266 OA
HETATM   10  H   UNL     1      21.255  48.611  49.073  1.00  0.00     0.190 HD
BRANCH   8  11
HETATM   11  C   UNL     1      20.170  50.995  49.596  1.00  0.00     0.033 A 
HETATM   12  C   UNL     1      19.045  50.470  50.245  1.00  0.00     0.017 A 
HETATM   13  C   UNL     1      17.766  50.940  49.925  1.00  0.00     0.007 A 
HETATM   14  C   UNL     1      17.594  51.936  48.957  1.00  0.00    -0.062 A 
HETATM   15  C   UNL     1      16.221  52.416  48.588  1.00  0.00     0.048 C 
HETATM   16  C   UNL     1      18.717  52.441  48.293  1.00  0.00     0.007 A 
HETATM   17  C   UNL     1      19.995  51.975  48.611  1.00  0.00     0.017 A 
ENDBRANCH   8  11
ENDBRANCH   4   7
ENDBRANCH   2   3
ENDBRANCH   1   2
BRANCH   1  18
HETATM   18  C   UNL     1      26.086  45.734  50.766  1.00  0.00     0.185 A 
HETATM   19  N   UNL     1      26.662  45.012  51.691  1.00  0.00    -0.204 NA
HETATM   20  C   UNL     1      27.281  44.020  50.957  1.00  0.00     0.166 A 
HETATM   21  N   UNL     1      27.087  44.101  49.629  1.00  0.00    -0.155 NA
HETATM   22  N   UNL     1      26.340  45.215  49.536  1.00  0.00    -0.254 N 
HETATM   23  H   UNL     1      25.982  45.528  48.637  1.00  0.00     0.191 HD
BRANCH  20  24
HETATM   24  C   UNL     1      28.132  42.954  51.602  1.00  0.00     0.202 C 
BRANCH  24  25
HETATM   25  N   UNL     1      27.932  42.760  53.043  1.00  0.00    -0.383 N 
HETATM   26  H   UNL     1      27.766  41.783  53.269  1.00  0.00     0.160 HD
BRANCH  25  27
HETATM   27  C   UNL     1      28.752  43.402  53.970  1.00  0.00     0.028 A 
HETATM   28  C   UNL     1      28.356  44.518  54.719  1.00  0.00     0.036 A 
HETATM   29  C   UNL     1      29.192  45.085  55.696  1.00  0.00    -0.060 A 
HETATM   30  C   UNL     1      28.754  46.285  56.482  1.00  0.00     0.048 C 
HETATM   31  C   UNL     1      30.433  44.498  55.957  1.00  0.00     0.007 A 
HETATM   32  C   UNL     1      30.827  43.362  55.256  1.00  0.00     0.003 A 
HETATM   33  C   UNL     1      29.987  42.817  54.282  1.00  0.00     0.029 A 
ENDBRANCH  25  27
ENDBRANCH  24  25
ENDBRANCH  20  24
ENDBRANCH   1  18
TORSDOF 8
ENDMDL
MODEL 3
REMARK VINA RESULT:      -9.5      2.440     12.017
REMARK  8 active torsions:
REMARK  status: ('A' for Active; 'I' for Inactive)
REMARK    1  A    between atoms: C_5  and  C_6 
REMARK       I    between atoms: C_6  and  N_7 
REMARK    2  A    between atoms: N_7  and  N_8 
REMARK       I    between atoms: N_8  and  C_9 
REMARK    3  A    between atoms: C_9  and  C_10 
REMARK    4  A    between atoms: C_10  and  S_11 
REMARK    5  A    between atoms: S_11  and  C_12 
REMARK    6  A    between atoms: C_14  and  C_15 
REMARK    7  A    between atoms: C_15  and  N_16 
REMARK    8  A    between atoms: N_16  and  C_17 
ROOT
HETATM    1  S   UNL     1      26.025  47.939  49.797  1.00  0.00    -0.081 SA
ENDROOT
BRANCH   1   2
HETATM    2  C   UNL     1      25.581  46.182  49.681  1.00  0.00     0.187 C 
BRANCH   2   3
HETATM    3  C   UNL     1      26.558  45.279  50.419  1.00  0.00     0.245 C 
HETATM    4  N   UNL     1      26.403  45.318  51.793  1.00  0.00    -0.267 N 
HETATM    5  H   UNL     1      25.901  46.075  52.260  1.00  0.00     0.190 HD
HETATM    6  O   UNL     1      27.415  44.575  49.881  1.00  0.00    -0.271 OA
BRANCH   4   7
HETATM    7  N   UNL     1      27.408  44.716  52.572  1.00  0.00    -0.263 N 
HETATM    8  C   UNL     1      27.486  45.105  53.897  1.00  0.00     0.270 C 
HETATM    9  O   UNL     1      26.636  45.833  54.407  1.00  0.00    -0.266 OA
HETATM   10  H   UNL     1      28.211  44.358  52.058  1.00  0.00     0.190 HD
BRANCH   8  11
HETATM   11  C   UNL     1      28.668  44.635  54.675  1.00  0.00     0.033 A 
HETATM   12  C   UNL     1      29.306  43.414  54.420  1.00  0.00     0.017 A 
HETATM   13  C   UNL     1      30.411  43.025  55.185  1.00  0.00     0.007 A 
HETATM   14  C   UNL     1      30.892  43.845  56.212  1.00  0.00    -0.062 A 
HETATM   15  C   UNL     1      32.054  43.414  57.057  1.00  0.00     0.048 C 
HETATM   16  C   UNL     1      30.237  45.052  56.482  1.00  0.00     0.007 A 
HETATM   17  C   UNL     1      29.135  45.445  55.718  1.00  0.00     0.017 A 
ENDBRANCH   8  11
ENDBRANCH   4   7
ENDBRANCH   2   3
ENDBRANCH   1   2
BRANCH   1  18
HETATM   18  C   UNL     1      24.715  48.648  48.935  1.00  0.00     0.185 A 
HETATM   19  N   UNL     1      23.448  48.333  49.004  1.00  0.00    -0.204 NA
HETATM   20  C   UNL     1      22.867  49.229  48.130  1.00  0.00     0.166 A 
HETATM   21  N   UNL     1      23.726  50.085  47.550  1.00  0.00    -0.155 NA
HETATM   22  N   UNL     1      24.899  49.676  48.065  1.00  0.00    -0.254 N 
HETATM   23  H   UNL     1      25.762  50.167  47.848  1.00  0.00     0.191 HD
BRANCH  20  24
HETATM   24  C   UNL     1      21.388  49.219  47.832  1.00  0.00     0.202 C 
BRANCH  24  25
HETATM   25  N   UNL     1      20.793  50.519  47.499  1.00  0.00    -0.383 N 
HETATM   26  H   UNL     1      20.882  50.728  46.508  1.00  0.00     0.160 HD
BRANCH  25  27
HETATM   27  C   UNL     1      19.558  50.894  48.025  1.00  0.00     0.028 A 
HETATM   28  C   UNL     1      18.370  50.183  47.808  1.00  0.00     0.036 A 
HETATM   29  C   UNL     1      17.163  50.559  48.422  1.00  0.00    -0.060 A 
HETATM   30  C   UNL     1      15.899  49.791  48.171  1.00  0.00     0.048 C 
HETATM   31  C   UNL     1      17.154  51.644  49.304  1.00  0.00     0.007 A 
HETATM   32  C   UNL     1      18.332  52.336  49.568  1.00  0.00     0.003 A 
HETATM   33  C   UNL     1      19.521  51.954  48.942  1.00  0.00     0.029 A 
ENDBRANCH  25  27
ENDBRANCH  24  25
ENDBRANCH  20  24
ENDBRANCH   1  18
TORSDOF 8
ENDMDL
MODEL 4
REMARK VINA RESULT:      -9.5      2.190     11.254
REMARK  8 active torsions:
REMARK  status: ('A' for Active; 'I' for Inactive)
REMARK    1  A    between atoms: C_5  and  C_6 
REMARK       I    between atoms: C_6  and  N_7 
REMARK    2  A    between atoms: N_7  and  N_8 
REMARK       I    between atoms: N_8  and  C_9 
REMARK    3  A    between atoms: C_9  and  C_10 
REMARK    4  A    between atoms: C_10  and  S_11 
REMARK    5  A    between atoms: S_11  and  C_12 
REMARK    6  A    between atoms: C_14  and  C_15 
REMARK    7  A    between atoms: C_15  and  N_16 
REMARK    8  A    between atoms: N_16  and  C_17 
ROOT
HETATM    1  S   UNL     1      24.683  44.320  48.963  1.00  0.00    -0.081 SA
ENDROOT
BRANCH   1   2
HETATM    2  C   UNL     1      23.993  43.454  50.402  1.00  0.00     0.187 C 
BRANCH   2   3
HETATM    3  C   UNL     1      25.060  43.040  51.405  1.00  0.00     0.245 C 
HETATM    4  N   UNL     1      24.946  43.692  52.620  1.00  0.00    -0.267 N 
HETATM    5  H   UNL     1      24.403  44.551  52.724  1.00  0.00     0.190 HD
HETATM    6  O   UNL     1      25.950  42.215  51.191  1.00  0.00    -0.271 OA
BRANCH   4   7
HETATM    7  N   UNL     1      26.019  43.566  53.522  1.00  0.00    -0.263 N 
HETATM    8  C   UNL     1      26.928  44.607  53.559  1.00  0.00     0.270 C 
HETATM    9  O   UNL     1      26.737  45.653  52.940  1.00  0.00    -0.266 OA
HETATM   10  H   UNL     1      26.266  42.613  53.784  1.00  0.00     0.190 HD
BRANCH   8  11
HETATM   11  C   UNL     1      28.172  44.396  54.352  1.00  0.00     0.033 A 
HETATM   12  C   UNL     1      28.680  45.358  55.235  1.00  0.00     0.017 A 
HETATM   13  C   UNL     1      29.854  45.104  55.951  1.00  0.00     0.007 A 
HETATM   14  C   UNL     1      30.536  43.891  55.798  1.00  0.00    -0.062 A 
HETATM   15  C   UNL     1      31.814  43.631  56.539  1.00  0.00     0.048 C 
HETATM   16  C   UNL     1      30.040  42.942  54.897  1.00  0.00     0.007 A 
HETATM   17  C   UNL     1      28.867  43.192  54.181  1.00  0.00     0.017 A 
ENDBRANCH   8  11
ENDBRANCH   4   7
ENDBRANCH   2   3
ENDBRANCH   1   2
BRANCH   1  18
HETATM   18  C   UNL     1      24.396  45.955  49.418  1.00  0.00     0.185 A 
HETATM   19  N   UNL     1      23.550  46.797  48.885  1.00  0.00    -0.204 NA
HETATM   20  C   UNL     1      23.728  47.929  49.654  1.00  0.00     0.166 A 
HETATM   21  N   UNL     1      24.631  47.801  50.641  1.00  0.00    -0.155 NA
HETATM   22  N   UNL     1      25.056  46.539  50.453  1.00  0.00    -0.254 N 
HETATM   23  H   UNL     1      25.729  46.117  51.086  1.00  0.00     0.191 HD
BRANCH  20  24
HETATM   24  C   UNL     1      22.986  49.214  49.378  1.00  0.00     0.202 C 
BRANCH  24  25
HETATM   25  N   UNL     1      21.537  49.180  49.615  1.00  0.00    -0.383 N 
HETATM   26  H   UNL     1      21.322  49.084  50.604  1.00  0.00     0.160 HD
BRANCH  25  27
HETATM   27  C   UNL     1      20.686  50.065  48.955  1.00  0.00     0.028 A 
HETATM   28  C   UNL     1      20.164  49.835  47.675  1.00  0.00     0.036 A 
HETATM   29  C   UNL     1      19.249  50.722  47.082  1.00  0.00    -0.060 A 
HETATM   30  C   UNL     1      18.708  50.464  45.707  1.00  0.00     0.048 C 
HETATM   31  C   UNL     1      18.816  51.839  47.802  1.00  0.00     0.007 A 
HETATM   32  C   UNL     1      19.287  52.062  49.092  1.00  0.00     0.003 A 
HETATM   33  C   UNL     1      20.203  51.174  49.663  1.00  0.00     0.029 A 
ENDBRANCH  25  27
ENDBRANCH  24  25
ENDBRANCH  20  24
ENDBRANCH   1  18
TORSDOF 8
ENDMDL
MODEL 5
REMARK VINA RESULT:      -9.3      1.306      1.934
REMARK  8 active torsions:
REMARK  status: ('A' for Active; 'I' for Inactive)
REMARK    1  A    between atoms: C_5  and  C_6 
REMARK       I    between atoms: C_6  and  N_7 
REMARK    2  A    between atoms: N_7  and  N_8 
REMARK       I    between atoms: N_8  and  C_9 
REMARK    3  A    between atoms: C_9  and  C_10 
REMARK    4  A    between atoms: C_10  and  S_11 
REMARK    5  A    between atoms: S_11  and  C_12 
REMARK    6  A    between atoms: C_14  and  C_15 
REMARK    7  A    between atoms: C_15  and  N_16 
REMARK    8  A    between atoms: N_16  and  C_17 
ROOT
HETATM    1  S   UNL     1      24.384  42.820  49.890  1.00  0.00    -0.081 SA
ENDROOT
BRANCH   1   2
HETATM    2  C   UNL     1      24.783  44.585  50.044  1.00  0.00     0.187 C 
BRANCH   2   3
HETATM    3  C   UNL     1      23.747  45.481  49.383  1.00  0.00     0.245 C 
HETATM    4  N   UNL     1      23.788  46.787  49.837  1.00  0.00    -0.267 N 
HETATM    5  H   UNL     1      24.252  47.042  50.712  1.00  0.00     0.190 HD
HETATM    6  O   UNL     1      22.936  45.115  48.530  1.00  0.00    -0.271 OA
BRANCH   4   7
HETATM    7  N   UNL     1      22.722  47.630  49.475  1.00  0.00    -0.263 N 
HETATM    8  C   UNL     1      23.015  48.972  49.314  1.00  0.00     0.270 C 
HETATM    9  O   UNL     1      24.171  49.388  49.348  1.00  0.00    -0.266 OA
HETATM   10  H   UNL     1      21.792  47.298  49.725  1.00  0.00     0.190 HD
BRANCH   8  11
HETATM   11  C   UNL     1      21.864  49.903  49.135  1.00  0.00     0.033 A 
HETATM   12  C   UNL     1      21.249  50.561  50.208  1.00  0.00     0.017 A 
HETATM   13  C   UNL     1      20.171  51.423  49.979  1.00  0.00     0.007 A 
HETATM   14  C   UNL     1      19.693  51.638  48.682  1.00  0.00    -0.062 A 
HETATM   15  C   UNL     1      18.514  52.534  48.437  1.00  0.00     0.048 C 
HETATM   16  C   UNL     1      20.292  50.959  47.615  1.00  0.00     0.007 A 
HETATM   17  C   UNL     1      21.370  50.099  47.840  1.00  0.00     0.017 A 
ENDBRANCH   8  11
ENDBRANCH   4   7
ENDBRANCH   2   3
ENDBRANCH   1   2
BRANCH   1  18
HETATM   18  C   UNL     1      25.743  42.124  50.685  1.00  0.00     0.185 A 
HETATM   19  N   UNL     1      26.588  42.714  51.489  1.00  0.00    -0.204 NA
HETATM   20  C   UNL     1      27.439  41.685  51.839  1.00  0.00     0.166 A 
HETATM   21  N   UNL     1      27.133  40.494  51.295  1.00  0.00    -0.155 NA
HETATM   22  N   UNL     1      26.060  40.809  50.548  1.00  0.00    -0.254 N 
HETATM   23  H   UNL     1      25.556  40.093  50.033  1.00  0.00     0.191 HD
BRANCH  20  24
HETATM   24  C   UNL     1      28.635  41.899  52.734  1.00  0.00     0.202 C 
BRANCH  24  25
HETATM   25  N   UNL     1      29.080  43.289  52.887  1.00  0.00    -0.383 N 
HETATM   26  H   UNL     1      28.508  43.927  52.339  1.00  0.00     0.160 HD
BRANCH  25  27
HETATM   27  C   UNL     1      29.414  43.798  54.141  1.00  0.00     0.028 A 
HETATM   28  C   UNL     1      30.455  43.295  54.933  1.00  0.00     0.036 A 
HETATM   29  C   UNL     1      30.803  43.889  56.158  1.00  0.00    -0.060 A 
HETATM   30  C   UNL     1      31.915  43.332  56.996  1.00  0.00     0.048 C 
HETATM   31  C   UNL     1      30.122  45.034  56.579  1.00  0.00     0.007 A 
HETATM   32  C   UNL     1      29.114  45.576  55.787  1.00  0.00     0.003 A 
HETATM   33  C   UNL     1      28.776  44.967  54.576  1.00  0.00     0.029 A 
ENDBRANCH  25  27
ENDBRANCH  24  25
ENDBRANCH  20  24
ENDBRANCH   1  18
TORSDOF 8
ENDMDL
MODEL 6
REMARK VINA RESULT:      -9.0      1.324      1.909
REMARK  8 active torsions:
REMARK  status: ('A' for Active; 'I' for Inactive)
REMARK    1  A    between atoms: C_5  and  C_6 
REMARK       I    between atoms: C_6  and  N_7 
REMARK    2  A    between atoms: N_7  and  N_8 
REMARK       I    between atoms: N_8  and  C_9 
REMARK    3  A    between atoms: C_9  and  C_10 
REMARK    4  A    between atoms: C_10  and  S_11 
REMARK    5  A    between atoms: S_11  and  C_12 
REMARK    6  A    between atoms: C_14  and  C_15 
REMARK    7  A    between atoms: C_15  and  N_16 
REMARK    8  A    between atoms: N_16  and  C_17 
ROOT
HETATM    1  S   UNL     1      23.753  45.473  49.682  1.00  0.00    -0.081 SA
ENDROOT
BRANCH   1   2
HETATM    2  C   UNL     1      24.353  47.102  49.148  1.00  0.00     0.187 C 
BRANCH   2   3
HETATM    3  C   UNL     1      23.416  48.232  49.544  1.00  0.00     0.245 C 
HETATM    4  N   UNL     1      22.082  47.865  49.524  1.00  0.00    -0.267 N 
HETATM    5  H   UNL     1      21.756  47.036  49.023  1.00  0.00     0.190 HD
HETATM    6  O   UNL     1      23.772  49.371  49.854  1.00  0.00    -0.271 OA
BRANCH   4   7
HETATM    7  N   UNL     1      21.128  48.893  49.633  1.00  0.00    -0.263 N 
HETATM    8  C   UNL     1      19.803  48.534  49.474  1.00  0.00     0.270 C 
HETATM    9  O   UNL     1      19.460  47.356  49.382  1.00  0.00    -0.266 OA
HETATM   10  H   UNL     1      21.468  49.833  49.438  1.00  0.00     0.190 HD
BRANCH   8  11
HETATM   11  C   UNL     1      18.805  49.637  49.381  1.00  0.00     0.033 A 
HETATM   12  C   UNL     1      17.560  49.481  48.757  1.00  0.00     0.017 A 
HETATM   13  C   UNL     1      16.664  50.554  48.698  1.00  0.00     0.007 A 
HETATM   14  C   UNL     1      16.997  51.793  49.259  1.00  0.00    -0.062 A 
HETATM   15  C   UNL     1      16.052  52.955  49.167  1.00  0.00     0.048 C 
HETATM   16  C   UNL     1      18.251  51.953  49.859  1.00  0.00     0.007 A 
HETATM   17  C   UNL     1      19.147  50.883  49.921  1.00  0.00     0.017 A 
ENDBRANCH   8  11
ENDBRANCH   4   7
ENDBRANCH   2   3
ENDBRANCH   1   2
BRANCH   1  18
HETATM   18  C   UNL     1      25.178  44.840  50.410  1.00  0.00     0.185 A 
HETATM   19  N   UNL     1      25.321  44.384  51.627  1.00  0.00    -0.204 NA
HETATM   20  C   UNL     1      26.644  43.994  51.650  1.00  0.00     0.166 A 
HETATM   21  N   UNL     1      27.303  44.177  50.492  1.00  0.00    -0.155 NA
HETATM   22  N   UNL     1      26.349  44.738  49.727  1.00  0.00    -0.254 N 
HETATM   23  H   UNL     1      26.528  44.961  48.752  1.00  0.00     0.191 HD
BRANCH  20  24
HETATM   24  C   UNL     1      27.298  43.438  52.890  1.00  0.00     0.202 C 
BRANCH  24  25
HETATM   25  N   UNL     1      28.712  43.786  53.079  1.00  0.00    -0.383 N 
HETATM   26  H   UNL     1      29.062  44.356  52.314  1.00  0.00     0.160 HD
BRANCH  25  27
HETATM   27  C   UNL     1      29.185  44.196  54.325  1.00  0.00     0.028 A 
HETATM   28  C   UNL     1      30.222  43.553  55.014  1.00  0.00     0.036 A 
HETATM   29  C   UNL     1      30.716  44.048  56.233  1.00  0.00    -0.060 A 
HETATM   30  C   UNL     1      31.821  43.341  56.961  1.00  0.00     0.048 C 
HETATM   31  C   UNL     1      30.189  45.234  56.751  1.00  0.00     0.007 A 
HETATM   32  C   UNL     1      29.189  45.913  56.061  1.00  0.00     0.003 A 
HETATM   33  C   UNL     1      28.704  45.401  54.855  1.00  0.00     0.029 A 
ENDBRANCH  25  27
ENDBRANCH  24  25
ENDBRANCH  20  24
ENDBRANCH   1  18
TORSDOF 8
ENDMDL
MODEL 7
REMARK VINA RESULT:      -8.9      1.777      2.694
REMARK  8 active torsions:
REMARK  status: ('A' for Active; 'I' for Inactive)
REMARK    1  A    between atoms: C_5  and  C_6 
REMARK       I    between atoms: C_6  and  N_7 
REMARK    2  A    between atoms: N_7  and  N_8 
REMARK       I    between atoms: N_8  and  C_9 
REMARK    3  A    between atoms: C_9  and  C_10 
REMARK    4  A    between atoms: C_10  and  S_11 
REMARK    5  A    between atoms: S_11  and  C_12 
REMARK    6  A    between atoms: C_14  and  C_15 
REMARK    7  A    between atoms: C_15  and  N_16 
REMARK    8  A    between atoms: N_16  and  C_17 
ROOT
HETATM    1  S   UNL     1      23.253  43.605  50.076  1.00  0.00    -0.081 SA
ENDROOT
BRANCH   1   2
HETATM    2  C   UNL     1      23.152  44.441  48.466  1.00  0.00     0.187 C 
BRANCH   2   3
HETATM    3  C   UNL     1      21.993  45.423  48.386  1.00  0.00     0.245 C 
HETATM    4  N   UNL     1      22.343  46.631  47.810  1.00  0.00    -0.267 N 
HETATM    5  H   UNL     1      23.316  46.929  47.725  1.00  0.00     0.190 HD
HETATM    6  O   UNL     1      20.848  45.200  48.785  1.00  0.00    -0.271 OA
BRANCH   4   7
HETATM    7  N   UNL     1      21.416  47.686  47.912  1.00  0.00    -0.263 N 
HETATM    8  C   UNL     1      21.700  48.678  48.832  1.00  0.00     0.270 C 
HETATM    9  O   UNL     1      22.774  48.714  49.431  1.00  0.00    -0.266 OA
HETATM   10  H   UNL     1      20.467  47.469  47.615  1.00  0.00     0.190 HD
BRANCH   8  11
HETATM   11  C   UNL     1      20.634  49.685  49.097  1.00  0.00     0.033 A 
HETATM   12  C   UNL     1      19.517  49.412  49.897  1.00  0.00     0.017 A 
HETATM   13  C   UNL     1      18.546  50.397  50.109  1.00  0.00     0.007 A 
HETATM   14  C   UNL     1      18.677  51.663  49.528  1.00  0.00    -0.062 A 
HETATM   15  C   UNL     1      17.620  52.710  49.725  1.00  0.00     0.048 C 
HETATM   16  C   UNL     1      19.781  51.925  48.709  1.00  0.00     0.007 A 
HETATM   17  C   UNL     1      20.752  50.944  48.496  1.00  0.00     0.017 A 
ENDBRANCH   8  11
ENDBRANCH   4   7
ENDBRANCH   2   3
ENDBRANCH   1   2
BRANCH   1  18
HETATM   18  C   UNL     1      24.112  44.787  50.985  1.00  0.00     0.185 A 
HETATM   19  N   UNL     1      24.700  44.635  52.142  1.00  0.00    -0.204 NA
HETATM   20  C   UNL     1      25.238  45.884  52.375  1.00  0.00     0.166 A 
HETATM   21  N   UNL     1      25.017  46.781  51.397  1.00  0.00    -0.155 NA
HETATM   22  N   UNL     1      24.278  46.059  50.535  1.00  0.00    -0.254 N 
HETATM   23  H   UNL     1      23.981  46.454  49.647  1.00  0.00     0.191 HD
BRANCH  20  24
HETATM   24  C   UNL     1      25.985  46.216  53.643  1.00  0.00     0.202 C 
BRANCH  24  25
HETATM   25  N   UNL     1      26.156  45.111  54.593  1.00  0.00    -0.383 N 
HETATM   26  H   UNL     1      25.308  44.558  54.680  1.00  0.00     0.160 HD
BRANCH  25  27
HETATM   27  C   UNL     1      27.314  44.334  54.582  1.00  0.00     0.028 A 
HETATM   28  C   UNL     1      27.385  43.050  54.025  1.00  0.00     0.036 A 
HETATM   29  C   UNL     1      28.594  42.335  53.972  1.00  0.00    -0.060 A 
HETATM   30  C   UNL     1      28.649  40.958  53.379  1.00  0.00     0.048 C 
HETATM   31  C   UNL     1      29.763  42.935  54.448  1.00  0.00     0.007 A 
HETATM   32  C   UNL     1      29.723  44.227  54.964  1.00  0.00     0.003 A 
HETATM   33  C   UNL     1      28.511  44.919  55.018  1.00  0.00     0.029 A 
ENDBRANCH  25  27
ENDBRANCH  24  25
ENDBRANCH  20  24
ENDBRANCH   1  18
TORSDOF 8
ENDMDL
MODEL 8
REMARK VINA RESULT:      -8.8      1.754      2.261
REMARK  8 active torsions:
REMARK  status: ('A' for Active; 'I' for Inactive)
REMARK    1  A    between atoms: C_5  and  C_6 
REMARK       I    between atoms: C_6  and  N_7 
REMARK    2  A    between atoms: N_7  and  N_8 
REMARK       I    between atoms: N_8  and  C_9 
REMARK    3  A    between atoms: C_9  and  C_10 
REMARK    4  A    between atoms: C_10  and  S_11 
REMARK    5  A    between atoms: S_11  and  C_12 
REMARK    6  A    between atoms: C_14  and  C_15 
REMARK    7  A    between atoms: C_15  and  N_16 
REMARK    8  A    between atoms: N_16  and  C_17 
ROOT
HETATM    1  S   UNL     1      24.858  47.290  50.297  1.00  0.00    -0.081 SA
ENDROOT
BRANCH   1   2
HETATM    2  C   UNL     1      23.593  46.411  49.334  1.00  0.00     0.187 C 
BRANCH   2   3
HETATM    3  C   UNL     1      22.848  47.324  48.372  1.00  0.00     0.245 C 
HETATM    4  N   UNL     1      22.852  48.650  48.767  1.00  0.00    -0.267 N 
HETATM    5  H   UNL     1      23.069  48.929  49.726  1.00  0.00     0.190 HD
HETATM    6  O   UNL     1      22.285  46.955  47.339  1.00  0.00    -0.271 OA
BRANCH   4   7
HETATM    7  N   UNL     1      21.990  49.529  48.084  1.00  0.00    -0.263 N 
HETATM    8  C   UNL     1      20.789  49.828  48.699  1.00  0.00     0.270 C 
HETATM    9  O   UNL     1      20.543  49.459  49.847  1.00  0.00    -0.266 OA
HETATM   10  H   UNL     1      22.115  49.573  47.074  1.00  0.00     0.190 HD
BRANCH   8  11
HETATM   11  C   UNL     1      19.785  50.585  47.899  1.00  0.00     0.033 A 
HETATM   12  C   UNL     1      19.236  51.801  48.329  1.00  0.00     0.017 A 
HETATM   13  C   UNL     1      18.295  52.466  47.535  1.00  0.00     0.007 A 
HETATM   14  C   UNL     1      17.890  51.930  46.308  1.00  0.00    -0.062 A 
HETATM   15  C   UNL     1      16.856  52.624  45.471  1.00  0.00     0.048 C 
HETATM   16  C   UNL     1      18.421  50.703  45.893  1.00  0.00     0.007 A 
HETATM   17  C   UNL     1      19.362  50.037  46.682  1.00  0.00     0.017 A 
ENDBRANCH   8  11
ENDBRANCH   4   7
ENDBRANCH   2   3
ENDBRANCH   1   2
BRANCH   1  18
HETATM   18  C   UNL     1      25.208  46.110  51.499  1.00  0.00     0.185 A 
HETATM   19  N   UNL     1      26.240  46.064  52.300  1.00  0.00    -0.204 NA
HETATM   20  C   UNL     1      25.989  44.936  53.053  1.00  0.00     0.166 A 
HETATM   21  N   UNL     1      24.838  44.307  52.754  1.00  0.00    -0.155 NA
HETATM   22  N   UNL     1      24.373  45.066  51.746  1.00  0.00    -0.254 N 
HETATM   23  H   UNL     1      23.471  44.870  51.321  1.00  0.00     0.191 HD
BRANCH  20  24
HETATM   24  C   UNL     1      26.951  44.437  54.102  1.00  0.00     0.202 C 
BRANCH  24  25
HETATM   25  N   UNL     1      28.368  44.744  53.869  1.00  0.00    -0.383 N 
HETATM   26  H   UNL     1      28.482  45.616  53.359  1.00  0.00     0.160 HD
BRANCH  25  27
HETATM   27  C   UNL     1      29.310  44.577  54.883  1.00  0.00     0.028 A 
HETATM   28  C   UNL     1      29.432  45.438  55.981  1.00  0.00     0.036 A 
HETATM   29  C   UNL     1      30.349  45.186  57.017  1.00  0.00    -0.060 A 
HETATM   30  C   UNL     1      30.471  46.124  58.181  1.00  0.00     0.048 C 
HETATM   31  C   UNL     1      31.128  44.027  56.972  1.00  0.00     0.007 A 
HETATM   32  C   UNL     1      30.991  43.136  55.912  1.00  0.00     0.003 A 
HETATM   33  C   UNL     1      30.081  43.407  54.887  1.00  0.00     0.029 A 
ENDBRANCH  25  27
ENDBRANCH  24  25
ENDBRANCH  20  24
ENDBRANCH   1  18
TORSDOF 8
ENDMDL
MODEL 9
REMARK VINA RESULT:      -8.7      5.141      8.141
REMARK  8 active torsions:
REMARK  status: ('A' for Active; 'I' for Inactive)
REMARK    1  A    between atoms: C_5  and  C_6 
REMARK       I    between atoms: C_6  and  N_7 
REMARK    2  A    between atoms: N_7  and  N_8 
REMARK       I    between atoms: N_8  and  C_9 
REMARK    3  A    between atoms: C_9  and  C_10 
REMARK    4  A    between atoms: C_10  and  S_11 
REMARK    5  A    between atoms: S_11  and  C_12 
REMARK    6  A    between atoms: C_14  and  C_15 
REMARK    7  A    between atoms: C_15  and  N_16 
REMARK    8  A    between atoms: N_16  and  C_17 
ROOT
HETATM    1  S   UNL     1      25.098  47.170  50.455  1.00  0.00    -0.081 SA
ENDROOT
BRANCH   1   2
HETATM    2  C   UNL     1      25.555  48.413  49.211  1.00  0.00     0.187 C 
BRANCH   2   3
HETATM    3  C   UNL     1      24.367  49.240  48.744  1.00  0.00     0.245 C 
HETATM    4  N   UNL     1      23.283  49.168  49.602  1.00  0.00    -0.267 N 
HETATM    5  H   UNL     1      23.191  48.424  50.296  1.00  0.00     0.190 HD
HETATM    6  O   UNL     1      24.336  49.915  47.713  1.00  0.00    -0.271 OA
BRANCH   4   7
HETATM    7  N   UNL     1      22.061  49.693  49.142  1.00  0.00    -0.263 N 
HETATM    8  C   UNL     1      21.494  50.704  49.896  1.00  0.00     0.270 C 
HETATM    9  O   UNL     1      22.092  51.216  50.841  1.00  0.00    -0.266 OA
HETATM   10  H   UNL     1      21.509  49.074  48.551  1.00  0.00     0.190 HD
BRANCH   8  11
HETATM   11  C   UNL     1      20.109  51.123  49.539  1.00  0.00     0.033 A 
HETATM   12  C   UNL     1      18.978  50.657  50.222  1.00  0.00     0.017 A 
HETATM   13  C   UNL     1      17.701  51.084  49.841  1.00  0.00     0.007 A 
HETATM   14  C   UNL     1      17.537  51.979  48.777  1.00  0.00    -0.062 A 
HETATM   15  C   UNL     1      16.167  52.412  48.344  1.00  0.00     0.048 C 
HETATM   16  C   UNL     1      18.666  52.423  48.081  1.00  0.00     0.007 A 
HETATM   17  C   UNL     1      19.942  51.999  48.460  1.00  0.00     0.017 A 
ENDBRANCH   8  11
ENDBRANCH   4   7
ENDBRANCH   2   3
ENDBRANCH   1   2
BRANCH   1  18
HETATM   18  C   UNL     1      24.186  46.081  49.484  1.00  0.00     0.185 A 
HETATM   19  N   UNL     1      22.969  46.238  49.032  1.00  0.00    -0.204 NA
HETATM   20  C   UNL     1      22.765  45.082  48.307  1.00  0.00     0.166 A 
HETATM   21  N   UNL     1      23.814  44.241  48.285  1.00  0.00    -0.155 NA
HETATM   22  N   UNL     1      24.696  44.894  49.061  1.00  0.00    -0.254 N 
HETATM   23  H   UNL     1      25.632  44.526  49.208  1.00  0.00     0.191 HD
BRANCH  20  24
HETATM   24  C   UNL     1      21.453  44.781  47.624  1.00  0.00     0.202 C 
BRANCH  24  25
HETATM   25  N   UNL     1      20.246  45.205  48.343  1.00  0.00    -0.383 N 
HETATM   26  H   UNL     1      20.378  45.167  49.350  1.00  0.00     0.160 HD
BRANCH  25  27
HETATM   27  C   UNL     1      19.525  46.324  47.930  1.00  0.00     0.028 A 
HETATM   28  C   UNL     1      18.232  46.626  48.377  1.00  0.00     0.036 A 
HETATM   29  C   UNL     1      17.574  47.807  47.990  1.00  0.00    -0.060 A 
HETATM   30  C   UNL     1      16.187  48.110  48.473  1.00  0.00     0.048 C 
HETATM   31  C   UNL     1      18.242  48.722  47.171  1.00  0.00     0.007 A 
HETATM   32  C   UNL     1      19.543  48.463  46.752  1.00  0.00     0.003 A 
HETATM   33  C   UNL     1      20.177  47.280  47.139  1.00  0.00     0.029 A 
ENDBRANCH  25  27
ENDBRANCH  24  25
ENDBRANCH  20  24
ENDBRANCH   1  18
TORSDOF 8
ENDMDL
MODEL 10
REMARK VINA RESULT:      -8.7     12.699     15.100
REMARK  8 active torsions:
REMARK  status: ('A' for Active; 'I' for Inactive)
REMARK    1  A    between atoms: C_5  and  C_6 
REMARK       I    between atoms: C_6  and  N_7 
REMARK    2  A    between atoms: N_7  and  N_8 
REMARK       I    between atoms: N_8  and  C_9 
REMARK    3  A    between atoms: C_9  and  C_10 
REMARK    4  A    between atoms: C_10  and  S_11 
REMARK    5  A    between atoms: S_11  and  C_12 
REMARK    6  A    between atoms: C_14  and  C_15 
REMARK    7  A    between atoms: C_15  and  N_16 
REMARK    8  A    between atoms: N_16  and  C_17 
ROOT
HETATM    1  S   UNL     1      26.504  45.585  38.812  1.00  0.00    -0.081 SA
ENDROOT
BRANCH   1   2
HETATM    2  C   UNL     1      27.899  45.349  39.951  1.00  0.00     0.187 C 
BRANCH   2   3
HETATM    3  C   UNL     1      28.394  46.655  40.553  1.00  0.00     0.245 C 
HETATM    4  N   UNL     1      29.475  47.191  39.876  1.00  0.00    -0.267 N 
HETATM    5  H   UNL     1      30.048  46.632  39.241  1.00  0.00     0.190 HD
HETATM    6  O   UNL     1      27.908  47.207  41.542  1.00  0.00    -0.271 OA
BRANCH   4   7
HETATM    7  N   UNL     1      30.156  48.258  40.491  1.00  0.00    -0.263 N 
HETATM    8  C   UNL     1      31.472  48.032  40.850  1.00  0.00     0.270 C 
HETATM    9  O   UNL     1      32.063  47.003  40.524  1.00  0.00    -0.266 OA
HETATM   10  H   UNL     1      29.569  48.943  40.963  1.00  0.00     0.190 HD
BRANCH   8  11
HETATM   11  C   UNL     1      32.138  49.073  41.684  1.00  0.00     0.033 A 
HETATM   12  C   UNL     1      31.500  49.704  42.759  1.00  0.00     0.017 A 
HETATM   13  C   UNL     1      32.175  50.676  43.505  1.00  0.00     0.007 A 
HETATM   14  C   UNL     1      33.492  51.030  43.189  1.00  0.00    -0.062 A 
HETATM   15  C   UNL     1      34.206  52.097  43.966  1.00  0.00     0.048 C 
HETATM   16  C   UNL     1      34.119  50.416  42.099  1.00  0.00     0.007 A 
HETATM   17  C   UNL     1      33.447  49.444  41.353  1.00  0.00     0.017 A 
ENDBRANCH   8  11
ENDBRANCH   4   7
ENDBRANCH   2   3
ENDBRANCH   1   2
BRANCH   1  18
HETATM   18  C   UNL     1      26.345  47.297  38.868  1.00  0.00     0.185 A 
HETATM   19  N   UNL     1      27.083  48.190  38.262  1.00  0.00    -0.204 NA
HETATM   20  C   UNL     1      26.492  49.378  38.641  1.00  0.00     0.166 A 
HETATM   21  N   UNL     1      25.415  49.241  39.435  1.00  0.00    -0.155 NA
HETATM   22  N   UNL     1      25.359  47.905  39.580  1.00  0.00    -0.254 N 
HETATM   23  H   UNL     1      24.606  47.470  40.106  1.00  0.00     0.191 HD
BRANCH  20  24
HETATM   24  C   UNL     1      27.038  50.720  38.219  1.00  0.00     0.202 C 
BRANCH  24  25
HETATM   25  N   UNL     1      27.402  51.634  39.308  1.00  0.00    -0.383 N 
HETATM   26  H   UNL     1      26.808  51.500  40.122  1.00  0.00     0.160 HD
BRANCH  25  27
HETATM   27  C   UNL     1      28.738  51.854  39.638  1.00  0.00     0.028 A 
HETATM   28  C   UNL     1      29.815  51.419  38.856  1.00  0.00     0.036 A 
HETATM   29  C   UNL     1      31.145  51.730  39.191  1.00  0.00    -0.060 A 
HETATM   30  C   UNL     1      32.286  51.247  38.346  1.00  0.00     0.048 C 
HETATM   31  C   UNL     1      31.397  52.528  40.310  1.00  0.00     0.007 A 
HETATM   32  C   UNL     1      30.339  53.009  41.076  1.00  0.00     0.003 A 
HETATM   33  C   UNL     1      29.024  52.682  40.733  1.00  0.00     0.029 A 
ENDBRANCH  25  27
ENDBRANCH  24  25
ENDBRANCH  20  24
ENDBRANCH   1  18
TORSDOF 8
ENDMDL
