MODEL 1
REMARK VINA RESULT:     -10.0      0.000      0.000
REMARK  9 active torsions:
REMARK  status: ('A' for Active; 'I' for Inactive)
REMARK    1  A    between atoms: C_2  and  C_3 
REMARK    2  A    between atoms: C_3  and  O_4 
REMARK    3  A    between atoms: O_4  and  C_5 
REMARK    4  A    between atoms: C_8  and  C_9 
REMARK       I    between atoms: C_9  and  N_10 
REMARK    5  A    between atoms: N_10  and  C_11 
REMARK    6  A    between atoms: C_11  and  N_12 
REMARK    7  A    between atoms: N_12  and  C_13 
REMARK    8  A    between atoms: C_15  and  C_16 
REMARK    9  A    between atoms: C_25  and  O_26 
ROOT
HETATM    1  C   UNL     1      25.090  46.184  49.952  1.00  0.00     0.035 A 
HETATM    2  C   UNL     1      23.941  46.913  49.624  1.00  0.00     0.046 A 
HETATM    3  C   UNL     1      24.018  48.243  49.162  1.00  0.00     0.036 A 
HETATM    4  C   UNL     1      25.290  48.834  49.056  1.00  0.00     0.084 A 
HETATM    5  C   UNL     1      26.448  48.132  49.425  1.00  0.00    -0.026 A 
HETATM    6  C   UNL     1      27.806  48.778  49.364  1.00  0.00     0.051 C 
HETATM    7  C   UNL     1      26.332  46.816  49.895  1.00  0.00     0.039 A 
ENDROOT
BRANCH   1   8
HETATM    8  N   UNL     1      24.920  44.839  50.340  1.00  0.00    -0.333 N 
HETATM    9  H   UNL     1      24.163  44.334  49.886  1.00  0.00     0.168 HD
BRANCH   8  10
HETATM   10  C   UNL     1      25.697  44.020  51.134  1.00  0.00     0.179 C 
HETATM   11  S   UNL     1      27.191  43.585  50.531  1.00  0.00    -0.040 SA
BRANCH  10  12
HETATM   12  N   UNL     1      25.190  43.744  52.395  1.00  0.00    -0.299 N 
HETATM   13  C   UNL     1      25.464  44.221  53.670  1.00  0.00     0.257 C 
HETATM   14  O   UNL     1      24.519  44.427  54.433  1.00  0.00    -0.267 OA
HETATM   15  H   UNL     1      24.190  43.589  52.359  1.00  0.00     0.171 HD
BRANCH  13  16
HETATM   16  C   UNL     1      26.834  44.517  54.139  1.00  0.00     0.032 A 
HETATM   17  C   UNL     1      27.056  45.783  54.696  1.00  0.00     0.020 A 
HETATM   18  C   UNL     1      28.291  46.100  55.265  1.00  0.00     0.038 A 
HETATM   19  C   UNL     1      29.306  45.144  55.306  1.00  0.00     0.068 A 
HETATM   20  C   UNL     1      29.086  43.884  54.735  1.00  0.00     0.038 A 
HETATM   21  C   UNL     1      27.849  43.560  54.160  1.00  0.00     0.020 A 
BRANCH  19  22
HETATM   22  O   UNL     1      30.537  45.323  55.880  1.00  0.00    -0.351 OA
BRANCH  22  23
HETATM   23  C   UNL     1      30.543  45.707  57.258  1.00  0.00     0.175 C 
BRANCH  23  24
HETATM   24  C   UNL     1      31.039  44.543  58.112  1.00  0.00     0.022 C 
HETATM   25  C   UNL     1      31.850  43.540  57.302  1.00  0.00     0.007 C 
ENDBRANCH  23  24
ENDBRANCH  22  23
ENDBRANCH  19  22
ENDBRANCH  13  16
ENDBRANCH  10  12
ENDBRANCH   8  10
ENDBRANCH   1   8
BRANCH   3  26
HETATM   26  C   UNL     1      22.762  48.898  48.760  1.00  0.00     0.112 A 
HETATM   27  S   UNL     1      21.604  48.087  47.777  1.00  0.00    -0.067 SA
HETATM   28  C   UNL     1      20.556  49.447  47.869  1.00  0.00     0.035 A 
HETATM   29  C   UNL     1      21.183  50.452  48.605  1.00  0.00     0.075 A 
HETATM   30  C   UNL     1      19.270  49.614  47.329  1.00  0.00     0.021 A 
HETATM   31  N   UNL     1      22.444  50.134  49.084  1.00  0.00    -0.239 NA
HETATM   32  C   UNL     1      20.503  51.669  48.807  1.00  0.00     0.033 A 
HETATM   33  C   UNL     1      19.220  51.846  48.278  1.00  0.00     0.002 A 
HETATM   34  C   UNL     1      18.612  50.828  47.550  1.00  0.00     0.002 A 
ENDBRANCH   3  26
BRANCH   4  35
HETATM   35  O   UNL     1      25.488  50.100  48.566  1.00  0.00    -0.359 OA
HETATM   36  H   UNL     1      25.827  50.054  47.657  1.00  0.00     0.218 HD
ENDBRANCH   4  35
TORSDOF 9
ENDMDL
MODEL 2
REMARK VINA RESULT:      -9.7      2.470     10.686
REMARK  9 active torsions:
REMARK  status: ('A' for Active; 'I' for Inactive)
REMARK    1  A    between atoms: C_2  and  C_3 
REMARK    2  A    between atoms: C_3  and  O_4 
REMARK    3  A    between atoms: O_4  and  C_5 
REMARK    4  A    between atoms: C_8  and  C_9 
REMARK       I    between atoms: C_9  and  N_10 
REMARK    5  A    between atoms: N_10  and  C_11 
REMARK    6  A    between atoms: C_11  and  N_12 
REMARK    7  A    between atoms: N_12  and  C_13 
REMARK    8  A    between atoms: C_15  and  C_16 
REMARK    9  A    between atoms: C_25  and  O_26 
ROOT
HETATM    1  C   UNL     1      26.939  44.089  50.795  1.00  0.00     0.035 A 
HETATM    2  C   UNL     1      27.544  44.357  52.028  1.00  0.00     0.046 A 
HETATM    3  C   UNL     1      28.368  43.409  52.667  1.00  0.00     0.036 A 
HETATM    4  C   UNL     1      28.558  42.166  52.038  1.00  0.00     0.084 A 
HETATM    5  C   UNL     1      27.921  41.864  50.824  1.00  0.00    -0.026 A 
HETATM    6  C   UNL     1      28.076  40.516  50.174  1.00  0.00     0.051 C 
HETATM    7  C   UNL     1      27.095  42.826  50.225  1.00  0.00     0.039 A 
ENDROOT
BRANCH   1   8
HETATM    8  N   UNL     1      26.186  45.123  50.200  1.00  0.00    -0.333 N 
HETATM    9  H   UNL     1      25.531  44.840  49.475  1.00  0.00     0.168 HD
BRANCH   8  10
HETATM   10  C   UNL     1      26.066  46.458  50.525  1.00  0.00     0.179 C 
HETATM   11  S   UNL     1      25.381  46.814  52.005  1.00  0.00    -0.040 SA
BRANCH  10  12
HETATM   12  N   UNL     1      26.634  47.352  49.629  1.00  0.00    -0.299 N 
HETATM   13  C   UNL     1      26.272  48.608  49.160  1.00  0.00     0.257 C 
HETATM   14  O   UNL     1      27.155  49.456  49.020  1.00  0.00    -0.267 OA
HETATM   15  H   UNL     1      27.642  47.359  49.715  1.00  0.00     0.171 HD
BRANCH  13  16
HETATM   16  C   UNL     1      24.876  48.977  48.849  1.00  0.00     0.032 A 
HETATM   17  C   UNL     1      24.677  50.162  48.130  1.00  0.00     0.020 A 
HETATM   18  C   UNL     1      23.400  50.523  47.698  1.00  0.00     0.038 A 
HETATM   19  C   UNL     1      22.313  49.688  47.959  1.00  0.00     0.068 A 
HETATM   20  C   UNL     1      22.513  48.511  48.691  1.00  0.00     0.038 A 
HETATM   21  C   UNL     1      23.793  48.144  49.129  1.00  0.00     0.020 A 
BRANCH  19  22
HETATM   22  O   UNL     1      21.027  49.912  47.544  1.00  0.00    -0.351 OA
BRANCH  22  23
HETATM   23  C   UNL     1      20.058  50.128  48.573  1.00  0.00     0.175 C 
BRANCH  23  24
HETATM   24  C   UNL     1      20.112  51.583  49.030  1.00  0.00     0.022 C 
HETATM   25  C   UNL     1      18.999  52.421  48.418  1.00  0.00     0.007 C 
ENDBRANCH  23  24
ENDBRANCH  22  23
ENDBRANCH  19  22
ENDBRANCH  13  16
ENDBRANCH  10  12
ENDBRANCH   8  10
ENDBRANCH   1   8
BRANCH   3  26
HETATM   26  C   UNL     1      29.030  43.815  53.919  1.00  0.00     0.112 A 
HETATM   27  S   UNL     1      28.571  45.252  54.749  1.00  0.00    -0.067 SA
HETATM   28  C   UNL     1      29.708  44.910  55.993  1.00  0.00     0.035 A 
HETATM   29  C   UNL     1      30.399  43.744  55.666  1.00  0.00     0.075 A 
HETATM   30  C   UNL     1      29.970  45.622  57.176  1.00  0.00     0.021 A 
HETATM   31  N   UNL     1      30.019  43.147  54.475  1.00  0.00    -0.239 NA
HETATM   32  C   UNL     1      31.391  43.273  56.549  1.00  0.00     0.033 A 
HETATM   33  C   UNL     1      31.658  43.971  57.732  1.00  0.00     0.002 A 
HETATM   34  C   UNL     1      30.953  45.131  58.040  1.00  0.00     0.002 A 
ENDBRANCH   3  26
BRANCH   4  35
HETATM   35  O   UNL     1      29.382  41.191  52.540  1.00  0.00    -0.359 OA
HETATM   36  H   UNL     1      28.863  40.545  53.046  1.00  0.00     0.218 HD
ENDBRANCH   4  35
TORSDOF 9
ENDMDL
MODEL 3
REMARK VINA RESULT:      -9.7      2.443      3.311
REMARK  9 active torsions:
REMARK  status: ('A' for Active; 'I' for Inactive)
REMARK    1  A    between atoms: C_2  and  C_3 
REMARK    2  A    between atoms: C_3  and  O_4 
REMARK    3  A    between atoms: O_4  and  C_5 
REMARK    4  A    between atoms: C_8  and  C_9 
REMARK       I    between atoms: C_9  and  N_10 
REMARK    5  A    between atoms: N_10  and  C_11 
REMARK    6  A    between atoms: C_11  and  N_12 
REMARK    7  A    between atoms: N_12  and  C_13 
REMARK    8  A    between atoms: C_15  and  C_16 
REMARK    9  A    between atoms: C_25  and  O_26 
ROOT
HETATM    1  C   UNL     1      26.322  44.401  50.331  1.00  0.00     0.035 A 
HETATM    2  C   UNL     1      25.397  45.304  49.794  1.00  0.00     0.046 A 
HETATM    3  C   UNL     1      24.959  46.431  50.519  1.00  0.00     0.036 A 
HETATM    4  C   UNL     1      25.465  46.619  51.818  1.00  0.00     0.084 A 
HETATM    5  C   UNL     1      26.357  45.697  52.389  1.00  0.00    -0.026 A 
HETATM    6  C   UNL     1      26.858  45.865  53.798  1.00  0.00     0.051 C 
HETATM    7  C   UNL     1      26.758  44.580  51.644  1.00  0.00     0.039 A 
ENDROOT
BRANCH   1   8
HETATM    8  N   UNL     1      26.752  43.341  49.507  1.00  0.00    -0.333 N 
HETATM    9  H   UNL     1      27.458  43.571  48.813  1.00  0.00     0.168 HD
BRANCH   8  10
HETATM   10  C   UNL     1      26.492  41.987  49.563  1.00  0.00     0.179 C 
HETATM   11  S   UNL     1      24.922  41.508  49.260  1.00  0.00    -0.040 SA
BRANCH  10  12
HETATM   12  N   UNL     1      27.595  41.168  49.755  1.00  0.00    -0.299 N 
HETATM   13  C   UNL     1      28.286  40.729  50.877  1.00  0.00     0.257 C 
HETATM   14  O   UNL     1      28.666  39.557  50.908  1.00  0.00    -0.267 OA
HETATM   15  H   UNL     1      27.588  40.393  49.104  1.00  0.00     0.171 HD
BRANCH  13  16
HETATM   16  C   UNL     1      28.562  41.596  52.040  1.00  0.00     0.032 A 
HETATM   17  C   UNL     1      27.696  41.486  53.136  1.00  0.00     0.020 A 
HETATM   18  C   UNL     1      27.953  42.186  54.315  1.00  0.00     0.038 A 
HETATM   19  C   UNL     1      29.093  42.983  54.419  1.00  0.00     0.068 A 
HETATM   20  C   UNL     1      29.949  43.103  53.318  1.00  0.00     0.038 A 
HETATM   21  C   UNL     1      29.696  42.404  52.129  1.00  0.00     0.020 A 
BRANCH  19  22
HETATM   22  O   UNL     1      29.474  43.675  55.539  1.00  0.00    -0.351 OA
BRANCH  22  23
HETATM   23  C   UNL     1      30.872  43.947  55.670  1.00  0.00     0.175 C 
BRANCH  23  24
HETATM   24  C   UNL     1      31.351  43.511  57.052  1.00  0.00     0.022 C 
HETATM   25  C   UNL     1      31.161  44.601  58.098  1.00  0.00     0.007 C 
ENDBRANCH  23  24
ENDBRANCH  22  23
ENDBRANCH  19  22
ENDBRANCH  13  16
ENDBRANCH  10  12
ENDBRANCH   8  10
ENDBRANCH   1   8
BRANCH   3  26
HETATM   26  C   UNL     1      24.053  47.370  49.837  1.00  0.00     0.112 A 
HETATM   27  S   UNL     1      22.852  46.815  48.736  1.00  0.00    -0.067 SA
HETATM   28  C   UNL     1      22.295  48.427  48.513  1.00  0.00     0.035 A 
HETATM   29  C   UNL     1      23.097  49.289  49.258  1.00  0.00     0.075 A 
HETATM   30  C   UNL     1      21.223  48.895  47.734  1.00  0.00     0.021 A 
HETATM   31  N   UNL     1      24.106  48.678  49.986  1.00  0.00    -0.239 NA
HETATM   32  C   UNL     1      22.823  50.671  49.223  1.00  0.00     0.033 A 
HETATM   33  C   UNL     1      21.756  51.150  48.455  1.00  0.00     0.002 A 
HETATM   34  C   UNL     1      20.966  50.270  47.722  1.00  0.00     0.002 A 
ENDBRANCH   3  26
BRANCH   4  35
HETATM   35  O   UNL     1      25.152  47.708  52.592  1.00  0.00    -0.359 OA
HETATM   36  H   UNL     1      25.755  48.442  52.390  1.00  0.00     0.218 HD
ENDBRANCH   4  35
TORSDOF 9
ENDMDL
MODEL 4
REMARK VINA RESULT:      -9.6      2.547     10.883
REMARK  9 active torsions:
REMARK  status: ('A' for Active; 'I' for Inactive)
REMARK    1  A    between atoms: C_2  and  C_3 
REMARK    2  A    between atoms: C_3  and  O_4 
REMARK    3  A    between atoms: O_4  and  C_5 
REMARK    4  A    between atoms: C_8  and  C_9 
REMARK       I    between atoms: C_9  and  N_10 
REMARK    5  A    between atoms: N_10  and  C_11 
REMARK    6  A    between atoms: C_11  and  N_12 
REMARK    7  A    between atoms: N_12  and  C_13 
REMARK    8  A    between atoms: C_15  and  C_16 
REMARK    9  A    between atoms: C_25  and  O_26 
ROOT
HETATM    1  C   UNL     1      24.656  46.135  50.985  1.00  0.00     0.035 A 
HETATM    2  C   UNL     1      25.654  46.027  51.962  1.00  0.00     0.046 A 
HETATM    3  C   UNL     1      26.179  44.776  52.344  1.00  0.00     0.036 A 
HETATM    4  C   UNL     1      25.660  43.623  51.728  1.00  0.00     0.084 A 
HETATM    5  C   UNL     1      24.628  43.711  50.780  1.00  0.00    -0.026 A 
HETATM    6  C   UNL     1      24.031  42.478  50.159  1.00  0.00     0.051 C 
HETATM    7  C   UNL     1      24.118  44.971  50.436  1.00  0.00     0.039 A 
ENDROOT
BRANCH   1   8
HETATM    8  N   UNL     1      24.240  47.432  50.620  1.00  0.00    -0.333 N 
HETATM    9  H   UNL     1      24.181  48.112  51.372  1.00  0.00     0.168 HD
BRANCH   8  10
HETATM   10  C   UNL     1      24.030  47.999  49.380  1.00  0.00     0.179 C 
HETATM   11  S   UNL     1      25.148  49.130  48.871  1.00  0.00    -0.040 SA
BRANCH  10  12
HETATM   12  N   UNL     1      22.973  47.480  48.648  1.00  0.00    -0.299 N 
HETATM   13  C   UNL     1      21.855  48.037  48.040  1.00  0.00     0.257 C 
HETATM   14  O   UNL     1      21.520  47.613  46.933  1.00  0.00    -0.267 OA
HETATM   15  H   UNL     1      23.285  46.733  48.040  1.00  0.00     0.171 HD
BRANCH  13  16
HETATM   16  C   UNL     1      21.070  49.130  48.650  1.00  0.00     0.032 A 
HETATM   17  C   UNL     1      21.274  50.419  48.143  1.00  0.00     0.020 A 
HETATM   18  C   UNL     1      20.491  51.486  48.587  1.00  0.00     0.038 A 
HETATM   19  C   UNL     1      19.479  51.268  49.522  1.00  0.00     0.068 A 
HETATM   20  C   UNL     1      19.288  49.981  50.038  1.00  0.00     0.038 A 
HETATM   21  C   UNL     1      20.072  48.905  49.599  1.00  0.00     0.020 A 
BRANCH  19  22
HETATM   22  O   UNL     1      18.618  52.225  49.992  1.00  0.00    -0.351 OA
BRANCH  22  23
HETATM   23  C   UNL     1      17.223  51.962  49.817  1.00  0.00     0.175 C 
BRANCH  23  24
HETATM   24  C   UNL     1      16.868  52.051  48.335  1.00  0.00     0.022 C 
HETATM   25  C   UNL     1      15.738  51.103  47.956  1.00  0.00     0.007 C 
ENDBRANCH  23  24
ENDBRANCH  22  23
ENDBRANCH  19  22
ENDBRANCH  13  16
ENDBRANCH  10  12
ENDBRANCH   8  10
ENDBRANCH   1   8
BRANCH   3  26
HETATM   26  C   UNL     1      27.286  44.771  53.316  1.00  0.00     0.112 A 
HETATM   27  S   UNL     1      27.453  46.019  54.490  1.00  0.00    -0.067 SA
HETATM   28  C   UNL     1      28.829  45.229  55.152  1.00  0.00     0.035 A 
HETATM   29  C   UNL     1      29.099  44.086  54.399  1.00  0.00     0.075 A 
HETATM   30  C   UNL     1      29.614  45.592  56.259  1.00  0.00     0.021 A 
HETATM   31  N   UNL     1      28.230  43.853  53.347  1.00  0.00    -0.239 NA
HETATM   32  C   UNL     1      30.196  43.279  54.763  1.00  0.00     0.033 A 
HETATM   33  C   UNL     1      30.982  43.628  55.866  1.00  0.00     0.002 A 
HETATM   34  C   UNL     1      30.691  44.771  56.604  1.00  0.00     0.002 A 
ENDBRANCH   3  26
BRANCH   4  35
HETATM   35  O   UNL     1      26.135  42.362  51.981  1.00  0.00    -0.359 OA
HETATM   36  H   UNL     1      25.416  41.714  51.899  1.00  0.00     0.218 HD
ENDBRANCH   4  35
TORSDOF 9
ENDMDL
MODEL 5
REMARK VINA RESULT:      -9.6      3.540      9.264
REMARK  9 active torsions:
REMARK  status: ('A' for Active; 'I' for Inactive)
REMARK    1  A    between atoms: C_2  and  C_3 
REMARK    2  A    between atoms: C_3  and  O_4 
REMARK    3  A    between atoms: O_4  and  C_5 
REMARK    4  A    between atoms: C_8  and  C_9 
REMARK       I    between atoms: C_9  and  N_10 
REMARK    5  A    between atoms: N_10  and  C_11 
REMARK    6  A    between atoms: C_11  and  N_12 
REMARK    7  A    between atoms: N_12  and  C_13 
REMARK    8  A    between atoms: C_15  and  C_16 
REMARK    9  A    between atoms: C_25  and  O_26 
ROOT
HETATM    1  C   UNL     1      26.585  41.545  49.128  1.00  0.00     0.035 A 
HETATM    2  C   UNL     1      27.029  42.254  50.250  1.00  0.00     0.046 A 
HETATM    3  C   UNL     1      27.925  41.683  51.177  1.00  0.00     0.036 A 
HETATM    4  C   UNL     1      28.354  40.362  50.955  1.00  0.00     0.084 A 
HETATM    5  C   UNL     1      27.882  39.622  49.859  1.00  0.00    -0.026 A 
HETATM    6  C   UNL     1      28.295  38.190  49.647  1.00  0.00     0.051 C 
HETATM    7  C   UNL     1      26.979  40.217  48.967  1.00  0.00     0.039 A 
ENDROOT
BRANCH   1   8
HETATM    8  N   UNL     1      25.743  42.222  48.221  1.00  0.00    -0.333 N 
HETATM    9  H   UNL     1      26.203  42.679  47.438  1.00  0.00     0.168 HD
BRANCH   8  10
HETATM   10  C   UNL     1      24.368  42.258  48.117  1.00  0.00     0.179 C 
HETATM   11  S   UNL     1      23.714  41.869  46.630  1.00  0.00    -0.040 SA
BRANCH  10  12
HETATM   12  N   UNL     1      23.679  42.504  49.295  1.00  0.00    -0.299 N 
HETATM   13  C   UNL     1      23.077  43.629  49.843  1.00  0.00     0.257 C 
HETATM   14  O   UNL     1      21.993  43.494  50.412  1.00  0.00    -0.267 OA
HETATM   15  H   UNL     1      23.091  41.718  49.542  1.00  0.00     0.171 HD
BRANCH  13  16
HETATM   16  C   UNL     1      23.666  44.981  49.748  1.00  0.00     0.032 A 
HETATM   17  C   UNL     1      23.020  45.900  48.912  1.00  0.00     0.020 A 
HETATM   18  C   UNL     1      23.446  47.228  48.856  1.00  0.00     0.038 A 
HETATM   19  C   UNL     1      24.506  47.655  49.655  1.00  0.00     0.068 A 
HETATM   20  C   UNL     1      25.159  46.731  50.480  1.00  0.00     0.038 A 
HETATM   21  C   UNL     1      24.738  45.395  50.540  1.00  0.00     0.020 A 
BRANCH  19  22
HETATM   22  O   UNL     1      24.977  48.940  49.722  1.00  0.00    -0.351 OA
BRANCH  22  23
HETATM   23  C   UNL     1      25.313  49.556  48.476  1.00  0.00     0.175 C 
BRANCH  23  24
HETATM   24  C   UNL     1      26.764  50.029  48.513  1.00  0.00     0.022 C 
HETATM   25  C   UNL     1      27.698  48.976  49.094  1.00  0.00     0.007 C 
ENDBRANCH  23  24
ENDBRANCH  22  23
ENDBRANCH  19  22
ENDBRANCH  13  16
ENDBRANCH  10  12
ENDBRANCH   8  10
ENDBRANCH   1   8
BRANCH   3  26
HETATM   26  C   UNL     1      28.402  42.537  52.278  1.00  0.00     0.112 A 
HETATM   27  S   UNL     1      27.602  44.007  52.682  1.00  0.00    -0.067 SA
HETATM   28  C   UNL     1      28.698  44.258  53.984  1.00  0.00     0.035 A 
HETATM   29  C   UNL     1      29.634  43.225  53.993  1.00  0.00     0.075 A 
HETATM   30  C   UNL     1      28.727  45.296  54.931  1.00  0.00     0.021 A 
HETATM   31  N   UNL     1      29.467  42.268  53.005  1.00  0.00    -0.239 NA
HETATM   32  C   UNL     1      30.639  43.228  54.981  1.00  0.00     0.033 A 
HETATM   33  C   UNL     1      30.676  44.254  55.932  1.00  0.00     0.002 A 
HETATM   34  C   UNL     1      29.729  45.273  55.906  1.00  0.00     0.002 A 
ENDBRANCH   3  26
BRANCH   4  35
HETATM   35  O   UNL     1      29.266  39.727  51.758  1.00  0.00    -0.359 OA
HETATM   36  H   UNL     1      28.938  38.845  52.000  1.00  0.00     0.218 HD
ENDBRANCH   4  35
TORSDOF 9
ENDMDL
MODEL 6
REMARK VINA RESULT:      -9.2      2.829     10.935
REMARK  9 active torsions:
REMARK  status: ('A' for Active; 'I' for Inactive)
REMARK    1  A    between atoms: C_2  and  C_3 
REMARK    2  A    between atoms: C_3  and  O_4 
REMARK    3  A    between atoms: O_4  and  C_5 
REMARK    4  A    between atoms: C_8  and  C_9 
REMARK       I    between atoms: C_9  and  N_10 
REMARK    5  A    between atoms: N_10  and  C_11 
REMARK    6  A    between atoms: C_11  and  N_12 
REMARK    7  A    between atoms: N_12  and  C_13 
REMARK    8  A    between atoms: C_15  and  C_16 
REMARK    9  A    between atoms: C_25  and  O_26 
ROOT
HETATM    1  C   UNL     1      23.945  46.624  49.625  1.00  0.00     0.035 A 
HETATM    2  C   UNL     1      24.805  46.682  50.728  1.00  0.00     0.046 A 
HETATM    3  C   UNL     1      25.067  45.545  51.519  1.00  0.00     0.036 A 
HETATM    4  C   UNL     1      24.424  44.340  51.181  1.00  0.00     0.084 A 
HETATM    5  C   UNL     1      23.524  44.277  50.106  1.00  0.00    -0.026 A 
HETATM    6  C   UNL     1      22.791  43.005  49.773  1.00  0.00     0.051 C 
HETATM    7  C   UNL     1      23.274  45.432  49.350  1.00  0.00     0.039 A 
ENDROOT
BRANCH   1   8
HETATM    8  N   UNL     1      23.796  47.795  48.853  1.00  0.00    -0.333 N 
HETATM    9  H   UNL     1      24.558  48.012  48.216  1.00  0.00     0.168 HD
BRANCH   8  10
HETATM   10  C   UNL     1      22.719  48.643  48.693  1.00  0.00     0.179 C 
HETATM   11  S   UNL     1      21.390  48.029  47.891  1.00  0.00    -0.040 SA
BRANCH  10  12
HETATM   12  N   UNL     1      22.823  49.876  49.320  1.00  0.00    -0.299 N 
HETATM   13  C   UNL     1      21.927  50.689  50.001  1.00  0.00     0.257 C 
HETATM   14  O   UNL     1      22.317  51.262  51.020  1.00  0.00    -0.267 OA
HETATM   15  H   UNL     1      23.710  49.966  49.799  1.00  0.00     0.171 HD
BRANCH  13  16
HETATM   16  C   UNL     1      20.526  50.876  49.573  1.00  0.00     0.032 A 
HETATM   17  C   UNL     1      19.543  50.183  50.291  1.00  0.00     0.020 A 
HETATM   18  C   UNL     1      18.190  50.392  50.023  1.00  0.00     0.038 A 
HETATM   19  C   UNL     1      17.806  51.317  49.052  1.00  0.00     0.068 A 
HETATM   20  C   UNL     1      18.790  51.999  48.326  1.00  0.00     0.038 A 
HETATM   21  C   UNL     1      20.152  51.791  48.589  1.00  0.00     0.020 A 
BRANCH  19  22
HETATM   22  O   UNL     1      16.512  51.643  48.738  1.00  0.00    -0.351 OA
BRANCH  22  23
HETATM   23  C   UNL     1      16.083  52.957  49.103  1.00  0.00     0.175 C 
BRANCH  23  24
HETATM   24  C   UNL     1      15.355  52.905  50.443  1.00  0.00     0.022 C 
HETATM   25  C   UNL     1      13.919  53.400  50.338  1.00  0.00     0.007 C 
ENDBRANCH  23  24
ENDBRANCH  22  23
ENDBRANCH  19  22
ENDBRANCH  13  16
ENDBRANCH  10  12
ENDBRANCH   8  10
ENDBRANCH   1   8
BRANCH   3  26
HETATM   26  C   UNL     1      26.052  45.684  52.606  1.00  0.00     0.112 A 
HETATM   27  S   UNL     1      26.032  47.041  53.664  1.00  0.00    -0.067 SA
HETATM   28  C   UNL     1      27.351  46.383  54.551  1.00  0.00     0.035 A 
HETATM   29  C   UNL     1      27.751  45.192  53.947  1.00  0.00     0.075 A 
HETATM   30  C   UNL     1      27.986  46.885  55.699  1.00  0.00     0.021 A 
HETATM   31  N   UNL     1      27.020  44.820  52.831  1.00  0.00    -0.239 NA
HETATM   32  C   UNL     1      28.828  44.476  54.508  1.00  0.00     0.033 A 
HETATM   33  C   UNL     1      29.466  44.964  55.654  1.00  0.00     0.002 A 
HETATM   34  C   UNL     1      29.047  46.153  56.241  1.00  0.00     0.002 A 
ENDBRANCH   3  26
BRANCH   4  35
HETATM   35  O   UNL     1      24.648  43.161  51.845  1.00  0.00    -0.359 OA
HETATM   36  H   UNL     1      25.573  42.888  51.732  1.00  0.00     0.218 HD
ENDBRANCH   4  35
TORSDOF 9
ENDMDL
MODEL 7
REMARK VINA RESULT:      -8.8      1.581      2.004
REMARK  9 active torsions:
REMARK  status: ('A' for Active; 'I' for Inactive)
REMARK    1  A    between atoms: C_2  and  C_3 
REMARK    2  A    between atoms: C_3  and  O_4 
REMARK    3  A    between atoms: O_4  and  C_5 
REMARK    4  A    between atoms: C_8  and  C_9 
REMARK       I    between atoms: C_9  and  N_10 
REMARK    5  A    between atoms: N_10  and  C_11 
REMARK    6  A    between atoms: C_11  and  N_12 
REMARK    7  A    between atoms: N_12  and  C_13 
REMARK    8  A    between atoms: C_15  and  C_16 
REMARK    9  A    between atoms: C_25  and  O_26 
ROOT
HETATM    1  C   UNL     1      25.179  46.515  50.312  1.00  0.00     0.035 A 
HETATM    2  C   UNL     1      24.010  47.187  49.937  1.00  0.00     0.046 A 
HETATM    3  C   UNL     1      24.055  48.409  49.236  1.00  0.00     0.036 A 
HETATM    4  C   UNL     1      25.316  48.953  48.932  1.00  0.00     0.084 A 
HETATM    5  C   UNL     1      26.498  48.314  49.341  1.00  0.00    -0.026 A 
HETATM    6  C   UNL     1      27.848  48.919  49.067  1.00  0.00     0.051 C 
HETATM    7  C   UNL     1      26.415  47.108  50.051  1.00  0.00     0.039 A 
ENDROOT
BRANCH   1   8
HETATM    8  N   UNL     1      25.037  45.265  50.951  1.00  0.00    -0.333 N 
HETATM    9  H   UNL     1      24.864  45.292  51.953  1.00  0.00     0.168 HD
BRANCH   8  10
HETATM   10  C   UNL     1      24.942  43.990  50.434  1.00  0.00     0.179 C 
HETATM   11  S   UNL     1      23.406  43.356  50.271  1.00  0.00    -0.040 SA
BRANCH  10  12
HETATM   12  N   UNL     1      26.131  43.422  50.003  1.00  0.00    -0.299 N 
HETATM   13  C   UNL     1      27.161  42.742  50.639  1.00  0.00     0.257 C 
HETATM   14  O   UNL     1      27.653  41.765  50.072  1.00  0.00    -0.267 OA
HETATM   15  H   UNL     1      26.017  42.984  49.098  1.00  0.00     0.171 HD
BRANCH  13  16
HETATM   16  C   UNL     1      27.671  43.121  51.972  1.00  0.00     0.032 A 
HETATM   17  C   UNL     1      28.972  42.715  52.296  1.00  0.00     0.020 A 
HETATM   18  C   UNL     1      29.568  43.129  53.488  1.00  0.00     0.038 A 
HETATM   19  C   UNL     1      28.878  43.976  54.355  1.00  0.00     0.068 A 
HETATM   20  C   UNL     1      27.573  44.369  54.037  1.00  0.00     0.038 A 
HETATM   21  C   UNL     1      26.967  43.955  52.842  1.00  0.00     0.020 A 
BRANCH  19  22
HETATM   22  O   UNL     1      29.377  44.486  55.525  1.00  0.00    -0.351 OA
BRANCH  22  23
HETATM   23  C   UNL     1      30.799  44.619  55.602  1.00  0.00     0.175 C 
BRANCH  23  24
HETATM   24  C   UNL     1      31.372  43.500  56.467  1.00  0.00     0.022 C 
HETATM   25  C   UNL     1      31.741  43.983  57.863  1.00  0.00     0.007 C 
ENDBRANCH  23  24
ENDBRANCH  22  23
ENDBRANCH  19  22
ENDBRANCH  13  16
ENDBRANCH  10  12
ENDBRANCH   8  10
ENDBRANCH   1   8
BRANCH   3  26
HETATM   26  C   UNL     1      22.773  48.997  48.810  1.00  0.00     0.112 A 
HETATM   27  S   UNL     1      21.622  48.083  47.914  1.00  0.00    -0.067 SA
HETATM   28  C   UNL     1      20.537  49.417  47.924  1.00  0.00     0.035 A 
HETATM   29  C   UNL     1      21.148  50.491  48.570  1.00  0.00     0.075 A 
HETATM   30  C   UNL     1      19.237  49.507  47.399  1.00  0.00     0.021 A 
HETATM   31  N   UNL     1      22.425  50.245  49.046  1.00  0.00    -0.239 NA
HETATM   32  C   UNL     1      20.437  51.701  48.693  1.00  0.00     0.033 A 
HETATM   33  C   UNL     1      19.140  51.802  48.177  1.00  0.00     0.002 A 
HETATM   34  C   UNL     1      18.549  50.716  47.540  1.00  0.00     0.002 A 
ENDBRANCH   3  26
BRANCH   4  35
HETATM   35  O   UNL     1      25.479  50.105  48.206  1.00  0.00    -0.359 OA
HETATM   36  H   UNL     1      25.560  50.866  48.805  1.00  0.00     0.218 HD
ENDBRANCH   4  35
TORSDOF 9
ENDMDL
MODEL 8
REMARK VINA RESULT:      -8.7      3.386     11.281
REMARK  9 active torsions:
REMARK  status: ('A' for Active; 'I' for Inactive)
REMARK    1  A    between atoms: C_2  and  C_3 
REMARK    2  A    between atoms: C_3  and  O_4 
REMARK    3  A    between atoms: O_4  and  C_5 
REMARK    4  A    between atoms: C_8  and  C_9 
REMARK       I    between atoms: C_9  and  N_10 
REMARK    5  A    between atoms: N_10  and  C_11 
REMARK    6  A    between atoms: C_11  and  N_12 
REMARK    7  A    between atoms: N_12  and  C_13 
REMARK    8  A    between atoms: C_15  and  C_16 
REMARK    9  A    between atoms: C_25  and  O_26 
ROOT
HETATM    1  C   UNL     1      23.406  48.340  49.164  1.00  0.00     0.035 A 
HETATM    2  C   UNL     1      24.026  47.389  49.982  1.00  0.00     0.046 A 
HETATM    3  C   UNL     1      25.419  47.398  50.200  1.00  0.00     0.036 A 
HETATM    4  C   UNL     1      26.183  48.387  49.555  1.00  0.00     0.084 A 
HETATM    5  C   UNL     1      25.583  49.320  48.694  1.00  0.00    -0.026 A 
HETATM    6  C   UNL     1      26.403  50.345  47.959  1.00  0.00     0.051 C 
HETATM    7  C   UNL     1      24.197  49.270  48.489  1.00  0.00     0.039 A 
ENDROOT
BRANCH   1   8
HETATM    8  N   UNL     1      22.000  48.293  49.058  1.00  0.00    -0.333 N 
HETATM    9  H   UNL     1      21.583  47.366  49.055  1.00  0.00     0.168 HD
BRANCH   8  10
HETATM   10  C   UNL     1      21.055  49.296  49.104  1.00  0.00     0.179 C 
HETATM   11  S   UNL     1      20.736  50.097  47.674  1.00  0.00    -0.040 SA
BRANCH  10  12
HETATM   12  N   UNL     1      20.394  49.449  50.314  1.00  0.00    -0.299 N 
HETATM   13  C   UNL     1      19.074  49.693  50.668  1.00  0.00     0.257 C 
HETATM   14  O   UNL     1      18.605  49.088  51.632  1.00  0.00    -0.267 OA
HETATM   15  H   UNL     1      20.762  48.813  51.011  1.00  0.00     0.171 HD
BRANCH  13  16
HETATM   16  C   UNL     1      18.203  50.626  49.923  1.00  0.00     0.032 A 
HETATM   17  C   UNL     1      17.157  50.064  49.180  1.00  0.00     0.020 A 
HETATM   18  C   UNL     1      16.223  50.881  48.541  1.00  0.00     0.038 A 
HETATM   19  C   UNL     1      16.311  52.268  48.661  1.00  0.00     0.068 A 
HETATM   20  C   UNL     1      17.366  52.827  49.393  1.00  0.00     0.038 A 
HETATM   21  C   UNL     1      18.309  52.012  50.035  1.00  0.00     0.020 A 
BRANCH  19  22
HETATM   22  O   UNL     1      15.427  53.165  48.123  1.00  0.00    -0.351 OA
BRANCH  22  23
HETATM   23  C   UNL     1      14.370  53.605  48.980  1.00  0.00     0.175 C 
BRANCH  23  24
HETATM   24  C   UNL     1      14.266  55.127  48.925  1.00  0.00     0.022 C 
HETATM   25  C   UNL     1      15.107  55.801  50.000  1.00  0.00     0.007 C 
ENDBRANCH  23  24
ENDBRANCH  22  23
ENDBRANCH  19  22
ENDBRANCH  13  16
ENDBRANCH  10  12
ENDBRANCH   8  10
ENDBRANCH   1   8
BRANCH   3  26
HETATM   26  C   UNL     1      25.967  46.410  51.145  1.00  0.00     0.112 A 
HETATM   27  S   UNL     1      25.693  46.544  52.839  1.00  0.00    -0.067 SA
HETATM   28  C   UNL     1      26.555  45.080  53.106  1.00  0.00     0.035 A 
HETATM   29  C   UNL     1      27.038  44.611  51.885  1.00  0.00     0.075 A 
HETATM   30  C   UNL     1      26.787  44.394  54.310  1.00  0.00     0.021 A 
HETATM   31  N   UNL     1      26.717  45.389  50.784  1.00  0.00    -0.239 NA
HETATM   32  C   UNL     1      27.783  43.415  51.864  1.00  0.00     0.033 A 
HETATM   33  C   UNL     1      28.017  42.720  53.056  1.00  0.00     0.002 A 
HETATM   34  C   UNL     1      27.522  43.205  54.263  1.00  0.00     0.002 A 
ENDBRANCH   3  26
BRANCH   4  35
HETATM   35  O   UNL     1      27.535  48.526  49.738  1.00  0.00    -0.359 OA
HETATM   36  H   UNL     1      27.941  48.905  48.941  1.00  0.00     0.218 HD
ENDBRANCH   4  35
TORSDOF 9
ENDMDL
MODEL 9
REMARK VINA RESULT:      -8.7      2.473      3.587
REMARK  9 active torsions:
REMARK  status: ('A' for Active; 'I' for Inactive)
REMARK    1  A    between atoms: C_2  and  C_3 
REMARK    2  A    between atoms: C_3  and  O_4 
REMARK    3  A    between atoms: O_4  and  C_5 
REMARK    4  A    between atoms: C_8  and  C_9 
REMARK       I    between atoms: C_9  and  N_10 
REMARK    5  A    between atoms: N_10  and  C_11 
REMARK    6  A    between atoms: C_11  and  N_12 
REMARK    7  A    between atoms: N_12  and  C_13 
REMARK    8  A    between atoms: C_15  and  C_16 
REMARK    9  A    between atoms: C_25  and  O_26 
ROOT
HETATM    1  C   UNL     1      22.698  47.013  48.614  1.00  0.00     0.035 A 
HETATM    2  C   UNL     1      21.486  47.702  48.739  1.00  0.00     0.046 A 
HETATM    3  C   UNL     1      21.438  49.110  48.771  1.00  0.00     0.036 A 
HETATM    4  C   UNL     1      22.652  49.816  48.690  1.00  0.00     0.084 A 
HETATM    5  C   UNL     1      23.880  49.140  48.611  1.00  0.00    -0.026 A 
HETATM    6  C   UNL     1      25.184  49.889  48.580  1.00  0.00     0.051 C 
HETATM    7  C   UNL     1      23.891  47.738  48.598  1.00  0.00     0.039 A 
ENDROOT
BRANCH   1   8
HETATM    8  N   UNL     1      22.643  45.607  48.523  1.00  0.00    -0.333 N 
HETATM    9  H   UNL     1      21.992  45.227  47.841  1.00  0.00     0.168 HD
BRANCH   8  10
HETATM   10  C   UNL     1      23.429  44.631  49.101  1.00  0.00     0.179 C 
HETATM   11  S   UNL     1      22.634  43.395  49.894  1.00  0.00    -0.040 SA
BRANCH  10  12
HETATM   12  N   UNL     1      24.790  44.729  48.857  1.00  0.00    -0.299 N 
HETATM   13  C   UNL     1      25.922  44.637  49.657  1.00  0.00     0.257 C 
HETATM   14  O   UNL     1      26.903  44.037  49.215  1.00  0.00    -0.267 OA
HETATM   15  H   UNL     1      25.032  44.302  47.972  1.00  0.00     0.171 HD
BRANCH  13  16
HETATM   16  C   UNL     1      25.990  45.203  51.020  1.00  0.00     0.032 A 
HETATM   17  C   UNL     1      26.134  46.592  51.126  1.00  0.00     0.020 A 
HETATM   18  C   UNL     1      26.093  47.215  52.374  1.00  0.00     0.038 A 
HETATM   19  C   UNL     1      25.880  46.458  53.525  1.00  0.00     0.068 A 
HETATM   20  C   UNL     1      25.751  45.067  53.418  1.00  0.00     0.038 A 
HETATM   21  C   UNL     1      25.794  44.434  52.168  1.00  0.00     0.020 A 
BRANCH  19  22
HETATM   22  O   UNL     1      25.771  46.962  54.794  1.00  0.00    -0.351 OA
BRANCH  22  23
HETATM   23  C   UNL     1      26.769  47.908  55.188  1.00  0.00     0.175 C 
BRANCH  23  24
HETATM   24  C   UNL     1      28.145  47.248  55.145  1.00  0.00     0.022 C 
HETATM   25  C   UNL     1      28.364  46.297  56.314  1.00  0.00     0.007 C 
ENDBRANCH  23  24
ENDBRANCH  22  23
ENDBRANCH  19  22
ENDBRANCH  13  16
ENDBRANCH  10  12
ENDBRANCH   8  10
ENDBRANCH   1   8
BRANCH   3  26
HETATM   26  C   UNL     1      20.110  49.745  48.817  1.00  0.00     0.112 A 
HETATM   27  S   UNL     1      18.737  49.004  48.090  1.00  0.00    -0.067 SA
HETATM   28  C   UNL     1      17.736  50.288  48.645  1.00  0.00     0.035 A 
HETATM   29  C   UNL     1      18.528  51.224  49.308  1.00  0.00     0.075 A 
HETATM   30  C   UNL     1      16.348  50.455  48.504  1.00  0.00     0.021 A 
HETATM   31  N   UNL     1      19.876  50.915  49.377  1.00  0.00    -0.239 NA
HETATM   32  C   UNL     1      17.913  52.372  49.848  1.00  0.00     0.033 A 
HETATM   33  C   UNL     1      16.531  52.547  49.718  1.00  0.00     0.002 A 
HETATM   34  C   UNL     1      15.760  51.598  49.055  1.00  0.00     0.002 A 
ENDBRANCH   3  26
BRANCH   4  35
HETATM   35  O   UNL     1      22.720  51.186  48.655  1.00  0.00    -0.359 OA
HETATM   36  H   UNL     1      21.961  51.568  49.127  1.00  0.00     0.218 HD
ENDBRANCH   4  35
TORSDOF 9
ENDMDL
MODEL 10
REMARK VINA RESULT:      -8.6      3.051     10.002
REMARK  9 active torsions:
REMARK  status: ('A' for Active; 'I' for Inactive)
REMARK    1  A    between atoms: C_2  and  C_3 
REMARK    2  A    between atoms: C_3  and  O_4 
REMARK    3  A    between atoms: O_4  and  C_5 
REMARK    4  A    between atoms: C_8  and  C_9 
REMARK       I    between atoms: C_9  and  N_10 
REMARK    5  A    between atoms: N_10  and  C_11 
REMARK    6  A    between atoms: C_11  and  N_12 
REMARK    7  A    between atoms: N_12  and  C_13 
REMARK    8  A    between atoms: C_15  and  C_16 
REMARK    9  A    between atoms: C_25  and  O_26 
ROOT
HETATM    1  C   UNL     1      26.726  42.080  49.500  1.00  0.00     0.035 A 
HETATM    2  C   UNL     1      27.162  42.728  50.662  1.00  0.00     0.046 A 
HETATM    3  C   UNL     1      28.062  42.113  51.556  1.00  0.00     0.036 A 
HETATM    4  C   UNL     1      28.503  40.811  51.260  1.00  0.00     0.084 A 
HETATM    5  C   UNL     1      28.039  40.130  50.123  1.00  0.00    -0.026 A 
HETATM    6  C   UNL     1      28.465  38.717  49.831  1.00  0.00     0.051 C 
HETATM    7  C   UNL     1      27.132  40.767  49.264  1.00  0.00     0.039 A 
ENDROOT
BRANCH   1   8
HETATM    8  N   UNL     1      25.878  42.799  48.632  1.00  0.00    -0.333 N 
HETATM    9  H   UNL     1      26.339  43.397  47.950  1.00  0.00     0.168 HD
BRANCH   8  10
HETATM   10  C   UNL     1      24.514  42.731  48.436  1.00  0.00     0.179 C 
HETATM   11  S   UNL     1      23.992  42.077  46.992  1.00  0.00    -0.040 SA
BRANCH  10  12
HETATM   12  N   UNL     1      23.730  43.112  49.514  1.00  0.00    -0.299 N 
HETATM   13  C   UNL     1      22.769  44.097  49.707  1.00  0.00     0.257 C 
HETATM   14  O   UNL     1      21.764  43.812  50.360  1.00  0.00    -0.267 OA
HETATM   15  H   UNL     1      23.419  42.305  50.040  1.00  0.00     0.171 HD
BRANCH  13  16
HETATM   16  C   UNL     1      22.889  45.457  49.143  1.00  0.00     0.032 A 
HETATM   17  C   UNL     1      21.883  45.870  48.261  1.00  0.00     0.020 A 
HETATM   18  C   UNL     1      21.862  47.178  47.773  1.00  0.00     0.038 A 
HETATM   19  C   UNL     1      22.832  48.092  48.186  1.00  0.00     0.068 A 
HETATM   20  C   UNL     1      23.844  47.672  49.057  1.00  0.00     0.038 A 
HETATM   21  C   UNL     1      23.873  46.359  49.549  1.00  0.00     0.020 A 
BRANCH  19  22
HETATM   22  O   UNL     1      22.883  49.410  47.816  1.00  0.00    -0.351 OA
BRANCH  22  23
HETATM   23  C   UNL     1      22.584  50.367  48.836  1.00  0.00     0.175 C 
BRANCH  23  24
HETATM   24  C   UNL     1      21.408  51.234  48.395  1.00  0.00     0.022 C 
HETATM   25  C   UNL     1      20.275  51.228  49.412  1.00  0.00     0.007 C 
ENDBRANCH  23  24
ENDBRANCH  22  23
ENDBRANCH  19  22
ENDBRANCH  13  16
ENDBRANCH  10  12
ENDBRANCH   8  10
ENDBRANCH   1   8
BRANCH   3  26
HETATM   26  C   UNL     1      28.530  42.907  52.705  1.00  0.00     0.112 A 
HETATM   27  S   UNL     1      27.690  44.318  53.220  1.00  0.00    -0.067 SA
HETATM   28  C   UNL     1      28.800  44.520  54.518  1.00  0.00     0.035 A 
HETATM   29  C   UNL     1      29.770  43.521  54.442  1.00  0.00     0.075 A 
HETATM   30  C   UNL     1      28.812  45.492  55.532  1.00  0.00     0.021 A 
HETATM   31  N   UNL     1      29.617  42.627  53.394  1.00  0.00    -0.239 NA
HETATM   32  C   UNL     1      30.792  43.493  55.412  1.00  0.00     0.033 A 
HETATM   33  C   UNL     1      30.812  44.453  56.430  1.00  0.00     0.002 A 
HETATM   34  C   UNL     1      29.832  45.438  56.488  1.00  0.00     0.002 A 
ENDBRANCH   3  26
BRANCH   4  35
HETATM   35  O   UNL     1      29.420  40.139  52.027  1.00  0.00    -0.359 OA
HETATM   36  H   UNL     1      30.304  40.521  51.897  1.00  0.00     0.218 HD
ENDBRANCH   4  35
TORSDOF 9
ENDMDL
