MODEL 1
REMARK VINA RESULT:      -8.8      0.000      0.000
REMARK  9 active torsions:
REMARK  status: ('A' for Active; 'I' for Inactive)
REMARK    1  A    between atoms: O_2  and  C_3 
REMARK    2  A    between atoms: C_4  and  O_5 
REMARK    3  A    between atoms: O_5  and  C_6 
REMARK    4  A    between atoms: C_6  and  C_7 
REMARK    5  A    between atoms: C_7  and  C_8 
REMARK    6  A    between atoms: C_8  and  C_9 
REMARK    7  A    between atoms: C_9  and  N_10 
REMARK       I    between atoms: N_10  and  C_11 
REMARK    8  A    between atoms: C_11  and  C_12 
REMARK    9  A    between atoms: C_16  and  C_17 
ROOT
HETATM    1  N   UNL     1      25.494  42.856  50.327  1.00  0.00    -0.345 N 
HETATM    2  C   UNL     1      26.740  43.420  50.238  1.00  0.00     0.270 C 
HETATM    3  O   UNL     1      27.121  44.021  49.239  1.00  0.00    -0.266 OA
HETATM    4  H   UNL     1      25.253  42.284  51.121  1.00  0.00     0.163 HD
ENDROOT
BRANCH   2   5
HETATM    5  C   UNL     1      27.577  43.253  51.396  1.00  0.00     0.120 A 
HETATM    6  N   UNL     1      28.248  42.087  51.631  1.00  0.00    -0.272 N 
HETATM    7  H   UNL     1      28.236  41.252  51.052  1.00  0.00     0.189 HD
HETATM    8  N   UNL     1      28.986  42.092  52.750  1.00  0.00    -0.174 NA
HETATM    9  C   UNL     1      28.805  43.314  53.276  1.00  0.00     0.089 A 
HETATM   10  C   UNL     1      27.922  44.072  52.453  1.00  0.00     0.071 A 
BRANCH   9  11
HETATM   11  C   UNL     1      29.468  43.722  54.522  1.00  0.00    -0.003 A 
HETATM   12  C   UNL     1      29.059  44.872  55.217  1.00  0.00     0.053 A 
HETATM   13  C   UNL     1      29.725  45.207  56.381  1.00  0.00     0.106 A 
HETATM   14  C   UNL     1      30.763  44.452  56.870  1.00  0.00     0.105 A 
HETATM   15  O   UNL     1      29.451  46.284  57.165  1.00  0.00    -0.323 OA
HETATM   16  O   UNL     1      31.276  44.958  58.022  1.00  0.00    -0.323 OA
HETATM   17  C   UNL     1      31.197  43.318  56.224  1.00  0.00     0.040 A 
HETATM   18  C   UNL     1      30.442  46.121  58.203  1.00  0.00     0.352 A 
HETATM   19  C   UNL     1      30.540  42.955  55.041  1.00  0.00     0.017 A 
ENDBRANCH   9  11
ENDBRANCH   2   5
BRANCH   1  20
HETATM   20  C   UNL     1      24.585  42.905  49.214  1.00  0.00     0.217 C 
BRANCH  20  21
HETATM   21  C   UNL     1      24.011  44.308  49.101  1.00  0.00    -0.085 C 
BRANCH  21  22
HETATM   22  C   UNL     1      23.519  45.511  49.004  1.00  0.00    -0.078 C 
BRANCH  22  23
HETATM   23  C   UNL     1      22.944  46.915  48.892  1.00  0.00     0.269 C 
BRANCH  23  24
HETATM   24  O   UNL     1      23.609  47.803  49.789  1.00  0.00    -0.337 OA
BRANCH  24  25
HETATM   25  C   UNL     1      24.789  48.365  49.379  1.00  0.00     0.103 A 
HETATM   26  C   UNL     1      25.986  47.878  49.934  1.00  0.00     0.101 A 
HETATM   27  C   UNL     1      27.202  48.497  49.617  1.00  0.00     0.039 A 
HETATM   28  C   UNL     1      27.248  49.575  48.736  1.00  0.00     0.003 A 
HETATM   29  C   UNL     1      26.070  50.055  48.176  1.00  0.00     0.003 A 
HETATM   30  C   UNL     1      24.847  49.460  48.503  1.00  0.00     0.040 A 
BRANCH  26  31
HETATM   31  O   UNL     1      26.121  46.844  50.825  1.00  0.00    -0.353 OA
HETATM   32  C   UNL     1      26.059  47.182  52.205  1.00  0.00     0.210 C 
ENDBRANCH  26  31
ENDBRANCH  24  25
ENDBRANCH  23  24
ENDBRANCH  22  23
ENDBRANCH  21  22
ENDBRANCH  20  21
ENDBRANCH   1  20
TORSDOF 9
ENDMDL
MODEL 2
REMARK VINA RESULT:      -8.5      3.088      4.050
REMARK  9 active torsions:
REMARK  status: ('A' for Active; 'I' for Inactive)
REMARK    1  A    between atoms: O_2  and  C_3 
REMARK    2  A    between atoms: C_4  and  O_5 
REMARK    3  A    between atoms: O_5  and  C_6 
REMARK    4  A    between atoms: C_6  and  C_7 
REMARK    5  A    between atoms: C_7  and  C_8 
REMARK    6  A    between atoms: C_8  and  C_9 
REMARK    7  A    between atoms: C_9  and  N_10 
REMARK       I    between atoms: N_10  and  C_11 
REMARK    8  A    between atoms: C_11  and  C_12 
REMARK    9  A    between atoms: C_16  and  C_17 
ROOT
HETATM    1  N   UNL     1      24.983  44.689  49.749  1.00  0.00    -0.345 N 
HETATM    2  C   UNL     1      24.948  44.059  50.966  1.00  0.00     0.270 C 
HETATM    3  O   UNL     1      23.927  43.549  51.415  1.00  0.00    -0.266 OA
HETATM    4  H   UNL     1      25.812  45.183  49.458  1.00  0.00     0.163 HD
ENDROOT
BRANCH   2   5
HETATM    5  C   UNL     1      26.192  44.042  51.687  1.00  0.00     0.120 A 
HETATM    6  N   UNL     1      27.380  43.797  51.059  1.00  0.00    -0.272 N 
HETATM    7  H   UNL     1      27.516  43.608  50.070  1.00  0.00     0.189 HD
HETATM    8  N   UNL     1      28.447  43.818  51.870  1.00  0.00    -0.174 NA
HETATM    9  C   UNL     1      27.950  44.098  53.085  1.00  0.00     0.089 A 
HETATM   10  C   UNL     1      26.535  44.242  53.010  1.00  0.00     0.071 A 
BRANCH   9  11
HETATM   11  C   UNL     1      28.820  44.222  54.263  1.00  0.00    -0.003 A 
HETATM   12  C   UNL     1      28.603  45.227  55.220  1.00  0.00     0.053 A 
HETATM   13  C   UNL     1      29.458  45.296  56.304  1.00  0.00     0.106 A 
HETATM   14  C   UNL     1      30.501  44.417  56.468  1.00  0.00     0.105 A 
HETATM   15  O   UNL     1      29.383  46.205  57.312  1.00  0.00    -0.323 OA
HETATM   16  O   UNL     1      31.215  44.662  57.597  1.00  0.00    -0.323 OA
HETATM   17  C   UNL     1      30.750  43.417  55.556  1.00  0.00     0.040 A 
HETATM   18  C   UNL     1      30.503  45.799  58.127  1.00  0.00     0.352 A 
HETATM   19  C   UNL     1      29.900  43.323  54.448  1.00  0.00     0.017 A 
ENDBRANCH   9  11
ENDBRANCH   2   5
BRANCH   1  20
HETATM   20  C   UNL     1      23.789  44.823  48.958  1.00  0.00     0.217 C 
BRANCH  20  21
HETATM   21  C   UNL     1      23.313  46.265  49.014  1.00  0.00    -0.085 C 
BRANCH  21  22
HETATM   22  C   UNL     1      22.903  47.502  49.062  1.00  0.00    -0.078 C 
BRANCH  22  23
HETATM   23  C   UNL     1      22.426  48.944  49.117  1.00  0.00     0.269 C 
BRANCH  23  24
HETATM   24  O   UNL     1      21.223  49.104  48.365  1.00  0.00    -0.337 OA
BRANCH  24  25
HETATM   25  C   UNL     1      20.343  50.076  48.763  1.00  0.00     0.103 A 
HETATM   26  C   UNL     1      19.299  49.713  49.632  1.00  0.00     0.101 A 
HETATM   27  C   UNL     1      18.320  50.655  49.976  1.00  0.00     0.039 A 
HETATM   28  C   UNL     1      18.380  51.959  49.490  1.00  0.00     0.003 A 
HETATM   29  C   UNL     1      19.415  52.327  48.638  1.00  0.00     0.003 A 
HETATM   30  C   UNL     1      20.385  51.389  48.269  1.00  0.00     0.040 A 
BRANCH  26  31
HETATM   31  O   UNL     1      19.079  48.477  50.187  1.00  0.00    -0.353 OA
HETATM   32  C   UNL     1      18.553  48.459  51.508  1.00  0.00     0.210 C 
ENDBRANCH  26  31
ENDBRANCH  24  25
ENDBRANCH  23  24
ENDBRANCH  22  23
ENDBRANCH  21  22
ENDBRANCH  20  21
ENDBRANCH   1  20
TORSDOF 9
ENDMDL
MODEL 3
REMARK VINA RESULT:      -8.5      3.619      4.885
REMARK  9 active torsions:
REMARK  status: ('A' for Active; 'I' for Inactive)
REMARK    1  A    between atoms: O_2  and  C_3 
REMARK    2  A    between atoms: C_4  and  O_5 
REMARK    3  A    between atoms: O_5  and  C_6 
REMARK    4  A    between atoms: C_6  and  C_7 
REMARK    5  A    between atoms: C_7  and  C_8 
REMARK    6  A    between atoms: C_8  and  C_9 
REMARK    7  A    between atoms: C_9  and  N_10 
REMARK       I    between atoms: N_10  and  C_11 
REMARK    8  A    between atoms: C_11  and  C_12 
REMARK    9  A    between atoms: C_16  and  C_17 
ROOT
HETATM    1  N   UNL     1      25.200  46.052  50.722  1.00  0.00    -0.345 N 
HETATM    2  C   UNL     1      24.980  45.357  51.882  1.00  0.00     0.270 C 
HETATM    3  O   UNL     1      24.051  44.567  52.011  1.00  0.00    -0.266 OA
HETATM    4  H   UNL     1      25.911  46.766  50.686  1.00  0.00     0.163 HD
ENDROOT
BRANCH   2   5
HETATM    5  C   UNL     1      25.911  45.622  52.946  1.00  0.00     0.120 A 
HETATM    6  N   UNL     1      25.928  46.821  53.600  1.00  0.00    -0.272 N 
HETATM    7  H   UNL     1      25.322  47.618  53.422  1.00  0.00     0.189 HD
HETATM    8  N   UNL     1      26.852  46.909  54.566  1.00  0.00    -0.174 NA
HETATM    9  C   UNL     1      27.470  45.717  54.560  1.00  0.00     0.089 A 
HETATM   10  C   UNL     1      26.908  44.882  53.552  1.00  0.00     0.071 A 
BRANCH   9  11
HETATM   11  C   UNL     1      28.557  45.409  55.501  1.00  0.00    -0.003 A 
HETATM   12  C   UNL     1      29.466  44.370  55.241  1.00  0.00     0.053 A 
HETATM   13  C   UNL     1      30.464  44.125  56.165  1.00  0.00     0.106 A 
HETATM   14  C   UNL     1      30.589  44.864  57.317  1.00  0.00     0.105 A 
HETATM   15  O   UNL     1      31.416  43.160  56.061  1.00  0.00    -0.323 OA
HETATM   16  O   UNL     1      31.634  44.457  58.084  1.00  0.00    -0.323 OA
HETATM   17  C   UNL     1      29.723  45.891  57.611  1.00  0.00     0.040 A 
HETATM   18  C   UNL     1      32.154  43.375  57.284  1.00  0.00     0.352 A 
HETATM   19  C   UNL     1      28.701  46.161  56.693  1.00  0.00     0.017 A 
ENDBRANCH   9  11
ENDBRANCH   2   5
BRANCH   1  20
HETATM   20  C   UNL     1      24.305  45.917  49.604  1.00  0.00     0.217 C 
BRANCH  20  21
HETATM   21  C   UNL     1      23.625  47.251  49.346  1.00  0.00    -0.085 C 
BRANCH  21  22
HETATM   22  C   UNL     1      23.040  48.396  49.124  1.00  0.00    -0.078 C 
BRANCH  22  23
HETATM   23  C   UNL     1      22.359  49.730  48.866  1.00  0.00     0.269 C 
BRANCH  23  24
HETATM   24  O   UNL     1      21.045  49.530  48.345  1.00  0.00    -0.337 OA
BRANCH  24  25
HETATM   25  C   UNL     1      20.060  50.397  48.739  1.00  0.00     0.103 A 
HETATM   26  C   UNL     1      18.995  49.889  49.504  1.00  0.00     0.101 A 
HETATM   27  C   UNL     1      17.917  50.721  49.836  1.00  0.00     0.039 A 
HETATM   28  C   UNL     1      17.898  52.057  49.442  1.00  0.00     0.003 A 
HETATM   29  C   UNL     1      18.953  52.568  48.695  1.00  0.00     0.003 A 
HETATM   30  C   UNL     1      20.022  51.740  48.337  1.00  0.00     0.040 A 
BRANCH  26  31
HETATM   31  O   UNL     1      18.845  48.603  49.959  1.00  0.00    -0.353 OA
HETATM   32  C   UNL     1      17.731  47.877  49.456  1.00  0.00     0.210 C 
ENDBRANCH  26  31
ENDBRANCH  24  25
ENDBRANCH  23  24
ENDBRANCH  22  23
ENDBRANCH  21  22
ENDBRANCH  20  21
ENDBRANCH   1  20
TORSDOF 9
ENDMDL
MODEL 4
REMARK VINA RESULT:      -8.3      4.879     11.349
REMARK  9 active torsions:
REMARK  status: ('A' for Active; 'I' for Inactive)
REMARK    1  A    between atoms: O_2  and  C_3 
REMARK    2  A    between atoms: C_4  and  O_5 
REMARK    3  A    between atoms: O_5  and  C_6 
REMARK    4  A    between atoms: C_6  and  C_7 
REMARK    5  A    between atoms: C_7  and  C_8 
REMARK    6  A    between atoms: C_8  and  C_9 
REMARK    7  A    between atoms: C_9  and  N_10 
REMARK       I    between atoms: N_10  and  C_11 
REMARK    8  A    between atoms: C_11  and  C_12 
REMARK    9  A    between atoms: C_16  and  C_17 
ROOT
HETATM    1  N   UNL     1      24.443  47.899  50.004  1.00  0.00    -0.345 N 
HETATM    2  C   UNL     1      24.045  48.939  49.205  1.00  0.00     0.270 C 
HETATM    3  O   UNL     1      24.840  49.629  48.576  1.00  0.00    -0.266 OA
HETATM    4  H   UNL     1      23.772  47.420  50.583  1.00  0.00     0.163 HD
ENDROOT
BRANCH   2   5
HETATM    5  C   UNL     1      22.626  49.173  49.159  1.00  0.00     0.120 A 
HETATM    6  N   UNL     1      21.728  48.162  49.349  1.00  0.00    -0.272 N 
HETATM    7  H   UNL     1      21.943  47.185  49.533  1.00  0.00     0.189 HD
HETATM    8  N   UNL     1      20.445  48.544  49.278  1.00  0.00    -0.174 NA
HETATM    9  C   UNL     1      20.492  49.864  49.039  1.00  0.00     0.089 A 
HETATM   10  C   UNL     1      21.848  50.295  48.955  1.00  0.00     0.071 A 
BRANCH   9  11
HETATM   11  C   UNL     1      19.268  50.666  48.904  1.00  0.00    -0.003 A 
HETATM   12  C   UNL     1      18.368  50.441  47.849  1.00  0.00     0.053 A 
HETATM   13  C   UNL     1      17.237  51.231  47.774  1.00  0.00     0.106 A 
HETATM   14  C   UNL     1      16.972  52.217  48.693  1.00  0.00     0.105 A 
HETATM   15  O   UNL     1      16.273  51.140  46.818  1.00  0.00    -0.323 OA
HETATM   16  O   UNL     1      15.811  52.872  48.433  1.00  0.00    -0.323 OA
HETATM   17  C   UNL     1      17.824  52.471  49.742  1.00  0.00     0.040 A 
HETATM   18  C   UNL     1      15.373  52.187  47.241  1.00  0.00     0.352 A 
HETATM   19  C   UNL     1      18.979  51.686  49.844  1.00  0.00     0.017 A 
ENDBRANCH   9  11
ENDBRANCH   2   5
BRANCH   1  20
HETATM   20  C   UNL     1      25.839  47.601  50.178  1.00  0.00     0.217 C 
BRANCH  20  21
HETATM   21  C   UNL     1      26.048  46.976  51.548  1.00  0.00    -0.085 C 
BRANCH  21  22
HETATM   22  C   UNL     1      26.227  46.440  52.723  1.00  0.00    -0.078 C 
BRANCH  22  23
HETATM   23  C   UNL     1      26.435  45.815  54.094  1.00  0.00     0.269 C 
BRANCH  23  24
HETATM   24  O   UNL     1      27.734  46.127  54.596  1.00  0.00    -0.337 OA
BRANCH  24  25
HETATM   25  C   UNL     1      28.626  45.098  54.746  1.00  0.00     0.103 A 
HETATM   26  C   UNL     1      29.603  45.207  55.752  1.00  0.00     0.101 A 
HETATM   27  C   UNL     1      30.596  44.224  55.867  1.00  0.00     0.039 A 
HETATM   28  C   UNL     1      30.614  43.123  55.015  1.00  0.00     0.003 A 
HETATM   29  C   UNL     1      29.646  43.004  54.025  1.00  0.00     0.003 A 
HETATM   30  C   UNL     1      28.664  43.991  53.885  1.00  0.00     0.040 A 
BRANCH  26  31
HETATM   31  O   UNL     1      29.742  46.225  56.660  1.00  0.00    -0.353 OA
HETATM   32  C   UNL     1      29.091  46.053  57.912  1.00  0.00     0.210 C 
ENDBRANCH  26  31
ENDBRANCH  24  25
ENDBRANCH  23  24
ENDBRANCH  22  23
ENDBRANCH  21  22
ENDBRANCH  20  21
ENDBRANCH   1  20
TORSDOF 9
ENDMDL
MODEL 5
REMARK VINA RESULT:      -8.2      4.471     10.794
REMARK  9 active torsions:
REMARK  status: ('A' for Active; 'I' for Inactive)
REMARK    1  A    between atoms: O_2  and  C_3 
REMARK    2  A    between atoms: C_4  and  O_5 
REMARK    3  A    between atoms: O_5  and  C_6 
REMARK    4  A    between atoms: C_6  and  C_7 
REMARK    5  A    between atoms: C_7  and  C_8 
REMARK    6  A    between atoms: C_8  and  C_9 
REMARK    7  A    between atoms: C_9  and  N_10 
REMARK       I    between atoms: N_10  and  C_11 
REMARK    8  A    between atoms: C_11  and  C_12 
REMARK    9  A    between atoms: C_16  and  C_17 
ROOT
HETATM    1  N   UNL     1      24.568  46.558  49.682  1.00  0.00    -0.345 N 
HETATM    2  C   UNL     1      24.350  47.902  49.524  1.00  0.00     0.270 C 
HETATM    3  O   UNL     1      25.255  48.728  49.585  1.00  0.00    -0.266 OA
HETATM    4  H   UNL     1      23.788  45.921  49.726  1.00  0.00     0.163 HD
ENDROOT
BRANCH   2   5
HETATM    5  C   UNL     1      22.984  48.282  49.287  1.00  0.00     0.120 A 
HETATM    6  N   UNL     1      22.006  47.349  49.085  1.00  0.00    -0.272 N 
HETATM    7  H   UNL     1      22.123  46.340  49.077  1.00  0.00     0.189 HD
HETATM    8  N   UNL     1      20.786  47.865  48.881  1.00  0.00    -0.174 NA
HETATM    9  C   UNL     1      20.957  49.195  48.960  1.00  0.00     0.089 A 
HETATM   10  C   UNL     1      22.327  49.495  49.212  1.00  0.00     0.071 A 
BRANCH   9  11
HETATM   11  C   UNL     1      19.832  50.126  48.801  1.00  0.00    -0.003 A 
HETATM   12  C   UNL     1      18.504  49.665  48.807  1.00  0.00     0.053 A 
HETATM   13  C   UNL     1      17.489  50.589  48.648  1.00  0.00     0.106 A 
HETATM   14  C   UNL     1      17.741  51.930  48.489  1.00  0.00     0.105 A 
HETATM   15  O   UNL     1      16.159  50.305  48.630  1.00  0.00    -0.323 OA
HETATM   16  O   UNL     1      16.603  52.660  48.350  1.00  0.00    -0.323 OA
HETATM   17  C   UNL     1      19.024  52.426  48.479  1.00  0.00     0.040 A 
HETATM   18  C   UNL     1      15.603  51.624  48.438  1.00  0.00     0.352 A 
HETATM   19  C   UNL     1      20.073  51.513  48.637  1.00  0.00     0.017 A 
ENDBRANCH   9  11
ENDBRANCH   2   5
BRANCH   1  20
HETATM   20  C   UNL     1      25.882  46.057  49.980  1.00  0.00     0.217 C 
BRANCH  20  21
HETATM   21  C   UNL     1      26.126  46.156  51.477  1.00  0.00    -0.085 C 
BRANCH  21  22
HETATM   22  C   UNL     1      26.335  46.240  52.761  1.00  0.00    -0.078 C 
BRANCH  22  23
HETATM   23  C   UNL     1      26.578  46.339  54.259  1.00  0.00     0.269 C 
BRANCH  23  24
HETATM   24  O   UNL     1      26.796  45.044  54.819  1.00  0.00    -0.337 OA
BRANCH  24  25
HETATM   25  C   UNL     1      28.089  44.610  54.943  1.00  0.00     0.103 A 
HETATM   26  C   UNL     1      28.438  43.382  54.354  1.00  0.00     0.101 A 
HETATM   27  C   UNL     1      29.722  42.855  54.550  1.00  0.00     0.039 A 
HETATM   28  C   UNL     1      30.672  43.546  55.299  1.00  0.00     0.003 A 
HETATM   29  C   UNL     1      30.336  44.766  55.876  1.00  0.00     0.003 A 
HETATM   30  C   UNL     1      29.050  45.289  55.708  1.00  0.00     0.040 A 
BRANCH  26  31
HETATM   31  O   UNL     1      27.629  42.567  53.604  1.00  0.00    -0.353 OA
HETATM   32  C   UNL     1      27.636  42.783  52.199  1.00  0.00     0.210 C 
ENDBRANCH  26  31
ENDBRANCH  24  25
ENDBRANCH  23  24
ENDBRANCH  22  23
ENDBRANCH  21  22
ENDBRANCH  20  21
ENDBRANCH   1  20
TORSDOF 9
ENDMDL
MODEL 6
REMARK VINA RESULT:      -8.2      3.761      5.290
REMARK  9 active torsions:
REMARK  status: ('A' for Active; 'I' for Inactive)
REMARK    1  A    between atoms: O_2  and  C_3 
REMARK    2  A    between atoms: C_4  and  O_5 
REMARK    3  A    between atoms: O_5  and  C_6 
REMARK    4  A    between atoms: C_6  and  C_7 
REMARK    5  A    between atoms: C_7  and  C_8 
REMARK    6  A    between atoms: C_8  and  C_9 
REMARK    7  A    between atoms: C_9  and  N_10 
REMARK       I    between atoms: N_10  and  C_11 
REMARK    8  A    between atoms: C_11  and  C_12 
REMARK    9  A    between atoms: C_16  and  C_17 
ROOT
HETATM    1  N   UNL     1      23.348  46.527  49.300  1.00  0.00    -0.345 N 
HETATM    2  C   UNL     1      24.218  47.279  50.046  1.00  0.00     0.270 C 
HETATM    3  O   UNL     1      24.402  48.474  49.838  1.00  0.00    -0.266 OA
HETATM    4  H   UNL     1      23.298  45.529  49.433  1.00  0.00     0.163 HD
ENDROOT
BRANCH   2   5
HETATM    5  C   UNL     1      24.911  46.568  51.087  1.00  0.00     0.120 A 
HETATM    6  N   UNL     1      24.426  45.399  51.600  1.00  0.00    -0.272 N 
HETATM    7  H   UNL     1      23.572  44.923  51.324  1.00  0.00     0.189 HD
HETATM    8  N   UNL     1      25.189  44.860  52.561  1.00  0.00    -0.174 NA
HETATM    9  C   UNL     1      26.228  45.702  52.687  1.00  0.00     0.089 A 
HETATM   10  C   UNL     1      26.086  46.790  51.778  1.00  0.00     0.071 A 
BRANCH   9  11
HETATM   11  C   UNL     1      27.310  45.450  53.649  1.00  0.00    -0.003 A 
HETATM   12  C   UNL     1      28.082  44.278  53.579  1.00  0.00     0.053 A 
HETATM   13  C   UNL     1      29.083  44.096  54.514  1.00  0.00     0.106 A 
HETATM   14  C   UNL     1      29.340  45.019  55.498  1.00  0.00     0.105 A 
HETATM   15  O   UNL     1      29.913  43.021  54.582  1.00  0.00    -0.323 OA
HETATM   16  O   UNL     1      30.362  44.644  56.310  1.00  0.00    -0.323 OA
HETATM   17  C   UNL     1      28.610  46.180  55.604  1.00  0.00     0.040 A 
HETATM   18  C   UNL     1      30.721  43.374  55.726  1.00  0.00     0.352 A 
HETATM   19  C   UNL     1      27.589  46.392  54.669  1.00  0.00     0.017 A 
ENDBRANCH   9  11
ENDBRANCH   2   5
BRANCH   1  20
HETATM   20  C   UNL     1      22.638  47.109  48.193  1.00  0.00     0.217 C 
BRANCH  20  21
HETATM   21  C   UNL     1      21.183  47.310  48.584  1.00  0.00    -0.085 C 
BRANCH  21  22
HETATM   22  C   UNL     1      19.935  47.482  48.921  1.00  0.00    -0.078 C 
BRANCH  22  23
HETATM   23  C   UNL     1      18.479  47.682  49.313  1.00  0.00     0.269 C 
BRANCH  23  24
HETATM   24  O   UNL     1      18.305  48.935  49.975  1.00  0.00    -0.337 OA
BRANCH  24  25
HETATM   25  C   UNL     1      18.348  50.073  49.215  1.00  0.00     0.103 A 
HETATM   26  C   UNL     1      19.388  50.990  49.448  1.00  0.00     0.101 A 
HETATM   27  C   UNL     1      19.405  52.213  48.763  1.00  0.00     0.039 A 
HETATM   28  C   UNL     1      18.418  52.524  47.831  1.00  0.00     0.003 A 
HETATM   29  C   UNL     1      17.392  51.618  47.589  1.00  0.00     0.003 A 
HETATM   30  C   UNL     1      17.352  50.405  48.284  1.00  0.00     0.040 A 
BRANCH  26  31
HETATM   31  O   UNL     1      20.425  50.853  50.335  1.00  0.00    -0.353 OA
HETATM   32  C   UNL     1      21.730  50.760  49.778  1.00  0.00     0.210 C 
ENDBRANCH  26  31
ENDBRANCH  24  25
ENDBRANCH  23  24
ENDBRANCH  22  23
ENDBRANCH  21  22
ENDBRANCH  20  21
ENDBRANCH   1  20
TORSDOF 9
ENDMDL
MODEL 7
REMARK VINA RESULT:      -8.1      1.830      2.554
REMARK  9 active torsions:
REMARK  status: ('A' for Active; 'I' for Inactive)
REMARK    1  A    between atoms: O_2  and  C_3 
REMARK    2  A    between atoms: C_4  and  O_5 
REMARK    3  A    between atoms: O_5  and  C_6 
REMARK    4  A    between atoms: C_6  and  C_7 
REMARK    5  A    between atoms: C_7  and  C_8 
REMARK    6  A    between atoms: C_8  and  C_9 
REMARK    7  A    between atoms: C_9  and  N_10 
REMARK       I    between atoms: N_10  and  C_11 
REMARK    8  A    between atoms: C_11  and  C_12 
REMARK    9  A    between atoms: C_16  and  C_17 
ROOT
HETATM    1  N   UNL     1      25.397  43.356  50.217  1.00  0.00    -0.345 N 
HETATM    2  C   UNL     1      26.617  43.939  50.443  1.00  0.00     0.270 C 
HETATM    3  O   UNL     1      27.280  44.450  49.546  1.00  0.00    -0.266 OA
HETATM    4  H   UNL     1      24.928  42.859  50.957  1.00  0.00     0.163 HD
ENDROOT
BRANCH   2   5
HETATM    5  C   UNL     1      27.073  43.904  51.807  1.00  0.00     0.120 A 
HETATM    6  N   UNL     1      26.247  43.530  52.828  1.00  0.00    -0.272 N 
HETATM    7  H   UNL     1      25.273  43.251  52.751  1.00  0.00     0.189 HD
HETATM    8  N   UNL     1      26.825  43.548  54.038  1.00  0.00    -0.174 NA
HETATM    9  C   UNL     1      28.088  43.941  53.810  1.00  0.00     0.089 A 
HETATM   10  C   UNL     1      28.281  44.177  52.419  1.00  0.00     0.071 A 
BRANCH   9  11
HETATM   11  C   UNL     1      29.061  44.075  54.903  1.00  0.00    -0.003 A 
HETATM   12  C   UNL     1      28.979  45.137  55.820  1.00  0.00     0.053 A 
HETATM   13  C   UNL     1      29.926  45.211  56.823  1.00  0.00     0.106 A 
HETATM   14  C   UNL     1      30.932  44.284  56.948  1.00  0.00     0.105 A 
HETATM   15  O   UNL     1      29.985  46.173  57.783  1.00  0.00    -0.323 OA
HETATM   16  O   UNL     1      31.752  44.545  57.999  1.00  0.00    -0.323 OA
HETATM   17  C   UNL     1      31.050  43.228  56.074  1.00  0.00     0.040 A 
HETATM   18  C   UNL     1      31.148  45.745  58.524  1.00  0.00     0.352 A 
HETATM   19  C   UNL     1      30.105  43.127  55.047  1.00  0.00     0.017 A 
ENDBRANCH   9  11
ENDBRANCH   2   5
BRANCH   1  20
HETATM   20  C   UNL     1      24.857  43.277  48.886  1.00  0.00     0.217 C 
BRANCH  20  21
HETATM   21  C   UNL     1      23.832  44.383  48.697  1.00  0.00    -0.085 C 
BRANCH  21  22
HETATM   22  C   UNL     1      22.953  45.332  48.534  1.00  0.00    -0.078 C 
BRANCH  22  23
HETATM   23  C   UNL     1      21.928  46.440  48.344  1.00  0.00     0.269 C 
BRANCH  23  24
HETATM   24  O   UNL     1      22.511  47.552  47.666  1.00  0.00    -0.337 OA
BRANCH  24  25
HETATM   25  C   UNL     1      22.095  48.809  48.021  1.00  0.00     0.103 A 
HETATM   26  C   UNL     1      22.815  49.492  49.016  1.00  0.00     0.101 A 
HETATM   27  C   UNL     1      22.358  50.734  49.478  1.00  0.00     0.039 A 
HETATM   28  C   UNL     1      21.211  51.316  48.945  1.00  0.00     0.003 A 
HETATM   29  C   UNL     1      20.499  50.650  47.954  1.00  0.00     0.003 A 
HETATM   30  C   UNL     1      20.933  49.400  47.502  1.00  0.00     0.040 A 
BRANCH  26  31
HETATM   31  O   UNL     1      23.949  49.061  49.657  1.00  0.00    -0.353 OA
HETATM   32  C   UNL     1      25.157  49.105  48.909  1.00  0.00     0.210 C 
ENDBRANCH  26  31
ENDBRANCH  24  25
ENDBRANCH  23  24
ENDBRANCH  22  23
ENDBRANCH  21  22
ENDBRANCH  20  21
ENDBRANCH   1  20
TORSDOF 9
ENDMDL
MODEL 8
REMARK VINA RESULT:      -8.1      4.484      6.235
REMARK  9 active torsions:
REMARK  status: ('A' for Active; 'I' for Inactive)
REMARK    1  A    between atoms: O_2  and  C_3 
REMARK    2  A    between atoms: C_4  and  O_5 
REMARK    3  A    between atoms: O_5  and  C_6 
REMARK    4  A    between atoms: C_6  and  C_7 
REMARK    5  A    between atoms: C_7  and  C_8 
REMARK    6  A    between atoms: C_8  and  C_9 
REMARK    7  A    between atoms: C_9  and  N_10 
REMARK       I    between atoms: N_10  and  C_11 
REMARK    8  A    between atoms: C_11  and  C_12 
REMARK    9  A    between atoms: C_16  and  C_17 
ROOT
HETATM    1  N   UNL     1      23.128  47.019  49.551  1.00  0.00    -0.345 N 
HETATM    2  C   UNL     1      24.294  47.569  50.015  1.00  0.00     0.270 C 
HETATM    3  O   UNL     1      24.741  48.627  49.585  1.00  0.00    -0.266 OA
HETATM    4  H   UNL     1      22.844  46.101  49.855  1.00  0.00     0.163 HD
ENDROOT
BRANCH   2   5
HETATM    5  C   UNL     1      24.965  46.816  51.040  1.00  0.00     0.120 A 
HETATM    6  N   UNL     1      24.477  45.621  51.486  1.00  0.00    -0.272 N 
HETATM    7  H   UNL     1      23.634  45.153  51.167  1.00  0.00     0.189 HD
HETATM    8  N   UNL     1      25.220  45.044  52.441  1.00  0.00    -0.174 NA
HETATM    9  C   UNL     1      26.248  45.886  52.632  1.00  0.00     0.089 A 
HETATM   10  C   UNL     1      26.121  47.014  51.771  1.00  0.00     0.071 A 
BRANCH   9  11
HETATM   11  C   UNL     1      27.308  45.597  53.609  1.00  0.00    -0.003 A 
HETATM   12  C   UNL     1      28.060  44.413  53.532  1.00  0.00     0.053 A 
HETATM   13  C   UNL     1      29.040  44.196  54.481  1.00  0.00     0.106 A 
HETATM   14  C   UNL     1      29.295  45.097  55.486  1.00  0.00     0.105 A 
HETATM   15  O   UNL     1      29.849  43.105  54.545  1.00  0.00    -0.323 OA
HETATM   16  O   UNL     1      30.295  44.689  56.310  1.00  0.00    -0.323 OA
HETATM   17  C   UNL     1      28.585  46.270  55.600  1.00  0.00     0.040 A 
HETATM   18  C   UNL     1      30.642  43.423  55.710  1.00  0.00     0.352 A 
HETATM   19  C   UNL     1      27.585  46.517  54.651  1.00  0.00     0.017 A 
ENDBRANCH   9  11
ENDBRANCH   2   5
BRANCH   1  20
HETATM   20  C   UNL     1      22.393  47.647  48.486  1.00  0.00     0.217 C 
BRANCH  20  21
HETATM   21  C   UNL     1      21.592  48.810  49.051  1.00  0.00    -0.085 C 
BRANCH  21  22
HETATM   22  C   UNL     1      20.906  49.807  49.536  1.00  0.00    -0.078 C 
BRANCH  22  23
HETATM   23  C   UNL     1      20.106  50.970  50.101  1.00  0.00     0.269 C 
BRANCH  23  24
HETATM   24  O   UNL     1      18.817  50.532  50.529  1.00  0.00    -0.337 OA
BRANCH  24  25
HETATM   25  C   UNL     1      17.733  50.900  49.776  1.00  0.00     0.103 A 
HETATM   26  C   UNL     1      17.180  49.952  48.898  1.00  0.00     0.101 A 
HETATM   27  C   UNL     1      16.138  50.324  48.037  1.00  0.00     0.039 A 
HETATM   28  C   UNL     1      15.622  51.618  48.057  1.00  0.00     0.003 A 
HETATM   29  C   UNL     1      16.158  52.557  48.930  1.00  0.00     0.003 A 
HETATM   30  C   UNL     1      17.214  52.204  49.777  1.00  0.00     0.040 A 
BRANCH  26  31
HETATM   31  O   UNL     1      17.574  48.648  48.736  1.00  0.00    -0.353 OA
HETATM   32  C   UNL     1      16.566  47.723  48.349  1.00  0.00     0.210 C 
ENDBRANCH  26  31
ENDBRANCH  24  25
ENDBRANCH  23  24
ENDBRANCH  22  23
ENDBRANCH  21  22
ENDBRANCH  20  21
ENDBRANCH   1  20
TORSDOF 9
ENDMDL
MODEL 9
REMARK VINA RESULT:      -8.1      5.732     11.707
REMARK  9 active torsions:
REMARK  status: ('A' for Active; 'I' for Inactive)
REMARK    1  A    between atoms: O_2  and  C_3 
REMARK    2  A    between atoms: C_4  and  O_5 
REMARK    3  A    between atoms: O_5  and  C_6 
REMARK    4  A    between atoms: C_6  and  C_7 
REMARK    5  A    between atoms: C_7  and  C_8 
REMARK    6  A    between atoms: C_8  and  C_9 
REMARK    7  A    between atoms: C_9  and  N_10 
REMARK       I    between atoms: N_10  and  C_11 
REMARK    8  A    between atoms: C_11  and  C_12 
REMARK    9  A    between atoms: C_16  and  C_17 
ROOT
HETATM    1  N   UNL     1      23.560  48.402  49.884  1.00  0.00    -0.345 N 
HETATM    2  C   UNL     1      23.041  49.095  48.822  1.00  0.00     0.270 C 
HETATM    3  O   UNL     1      23.563  49.089  47.712  1.00  0.00    -0.266 OA
HETATM    4  H   UNL     1      23.163  48.512  50.804  1.00  0.00     0.163 HD
ENDROOT
BRANCH   2   5
HETATM    5  C   UNL     1      21.843  49.841  49.099  1.00  0.00     0.120 A 
HETATM    6  N   UNL     1      21.647  50.460  50.300  1.00  0.00    -0.272 N 
HETATM    7  H   UNL     1      22.284  50.466  51.091  1.00  0.00     0.189 HD
HETATM    8  N   UNL     1      20.481  51.115  50.399  1.00  0.00    -0.174 NA
HETATM    9  C   UNL     1      19.881  50.930  49.212  1.00  0.00     0.089 A 
HETATM   10  C   UNL     1      20.706  50.131  48.369  1.00  0.00     0.071 A 
BRANCH   9  11
HETATM   11  C   UNL     1      18.565  51.513  48.916  1.00  0.00    -0.003 A 
HETATM   12  C   UNL     1      17.884  52.286  49.871  1.00  0.00     0.053 A 
HETATM   13  C   UNL     1      16.648  52.803  49.536  1.00  0.00     0.106 A 
HETATM   14  C   UNL     1      16.074  52.585  48.306  1.00  0.00     0.105 A 
HETATM   15  O   UNL     1      15.865  53.566  50.344  1.00  0.00    -0.323 OA
HETATM   16  O   UNL     1      14.859  53.181  48.186  1.00  0.00    -0.323 OA
HETATM   17  C   UNL     1      16.705  51.835  47.340  1.00  0.00     0.040 A 
HETATM   18  C   UNL     1      14.731  53.800  49.482  1.00  0.00     0.352 A 
HETATM   19  C   UNL     1      17.960  51.298  47.653  1.00  0.00     0.017 A 
ENDBRANCH   9  11
ENDBRANCH   2   5
BRANCH   1  20
HETATM   20  C   UNL     1      24.787  47.664  49.750  1.00  0.00     0.217 C 
BRANCH  20  21
HETATM   21  C   UNL     1      25.188  47.112  51.108  1.00  0.00    -0.085 C 
BRANCH  21  22
HETATM   22  C   UNL     1      25.531  46.637  52.273  1.00  0.00    -0.078 C 
BRANCH  22  23
HETATM   23  C   UNL     1      25.930  46.084  53.632  1.00  0.00     0.269 C 
BRANCH  23  24
HETATM   24  O   UNL     1      26.477  44.773  53.500  1.00  0.00    -0.337 OA
BRANCH  24  25
HETATM   25  C   UNL     1      27.706  44.531  54.054  1.00  0.00     0.103 A 
HETATM   26  C   UNL     1      28.330  43.301  53.780  1.00  0.00     0.101 A 
HETATM   27  C   UNL     1      29.537  42.976  54.413  1.00  0.00     0.039 A 
HETATM   28  C   UNL     1      30.146  43.869  55.292  1.00  0.00     0.003 A 
HETATM   29  C   UNL     1      29.540  45.091  55.559  1.00  0.00     0.003 A 
HETATM   30  C   UNL     1      28.323  45.416  54.952  1.00  0.00     0.040 A 
BRANCH  26  31
HETATM   31  O   UNL     1      27.865  42.305  52.959  1.00  0.00    -0.353 OA
HETATM   32  C   UNL     1      28.569  41.070  52.997  1.00  0.00     0.210 C 
ENDBRANCH  26  31
ENDBRANCH  24  25
ENDBRANCH  23  24
ENDBRANCH  22  23
ENDBRANCH  21  22
ENDBRANCH  20  21
ENDBRANCH   1  20
TORSDOF 9
ENDMDL
MODEL 10
REMARK VINA RESULT:      -8.0      4.603      6.401
REMARK  9 active torsions:
REMARK  status: ('A' for Active; 'I' for Inactive)
REMARK    1  A    between atoms: O_2  and  C_3 
REMARK    2  A    between atoms: C_4  and  O_5 
REMARK    3  A    between atoms: O_5  and  C_6 
REMARK    4  A    between atoms: C_6  and  C_7 
REMARK    5  A    between atoms: C_7  and  C_8 
REMARK    6  A    between atoms: C_8  and  C_9 
REMARK    7  A    between atoms: C_9  and  N_10 
REMARK       I    between atoms: N_10  and  C_11 
REMARK    8  A    between atoms: C_11  and  C_12 
REMARK    9  A    between atoms: C_16  and  C_17 
ROOT
HETATM    1  N   UNL     1      23.158  47.015  49.550  1.00  0.00    -0.345 N 
HETATM    2  C   UNL     1      24.320  47.565  50.026  1.00  0.00     0.270 C 
HETATM    3  O   UNL     1      24.764  48.629  49.608  1.00  0.00    -0.266 OA
HETATM    4  H   UNL     1      22.877  46.093  49.844  1.00  0.00     0.163 HD
ENDROOT
BRANCH   2   5
HETATM    5  C   UNL     1      24.989  46.804  51.046  1.00  0.00     0.120 A 
HETATM    6  N   UNL     1      24.498  45.608  51.485  1.00  0.00    -0.272 N 
HETATM    7  H   UNL     1      23.654  45.143  51.162  1.00  0.00     0.189 HD
HETATM    8  N   UNL     1      25.240  45.023  52.436  1.00  0.00    -0.174 NA
HETATM    9  C   UNL     1      26.270  45.861  52.632  1.00  0.00     0.089 A 
HETATM   10  C   UNL     1      26.145  46.994  51.778  1.00  0.00     0.071 A 
BRANCH   9  11
HETATM   11  C   UNL     1      27.329  45.564  53.607  1.00  0.00    -0.003 A 
HETATM   12  C   UNL     1      28.073  44.375  53.528  1.00  0.00     0.053 A 
HETATM   13  C   UNL     1      29.052  44.149  54.475  1.00  0.00     0.106 A 
HETATM   14  C   UNL     1      29.316  45.048  55.481  1.00  0.00     0.105 A 
HETATM   15  O   UNL     1      29.854  43.053  54.537  1.00  0.00    -0.323 OA
HETATM   16  O   UNL     1      30.314  44.631  56.303  1.00  0.00    -0.323 OA
HETATM   17  C   UNL     1      28.614  46.225  55.597  1.00  0.00     0.040 A 
HETATM   18  C   UNL     1      30.651  43.364  55.701  1.00  0.00     0.352 A 
HETATM   19  C   UNL     1      27.614  46.480  54.649  1.00  0.00     0.017 A 
ENDBRANCH   9  11
ENDBRANCH   2   5
BRANCH   1  20
HETATM   20  C   UNL     1      22.425  47.652  48.489  1.00  0.00     0.217 C 
BRANCH  20  21
HETATM   21  C   UNL     1      21.603  48.793  49.065  1.00  0.00    -0.085 C 
BRANCH  21  22
HETATM   22  C   UNL     1      20.899  49.772  49.559  1.00  0.00    -0.078 C 
BRANCH  22  23
HETATM   23  C   UNL     1      20.077  50.915  50.136  1.00  0.00     0.269 C 
BRANCH  23  24
HETATM   24  O   UNL     1      18.792  50.451  50.548  1.00  0.00    -0.337 OA
BRANCH  24  25
HETATM   25  C   UNL     1      17.806  50.367  49.600  1.00  0.00     0.103 A 
HETATM   26  C   UNL     1      16.975  51.484  49.404  1.00  0.00     0.101 A 
HETATM   27  C   UNL     1      15.892  51.400  48.519  1.00  0.00     0.039 A 
HETATM   28  C   UNL     1      15.641  50.230  47.806  1.00  0.00     0.003 A 
HETATM   29  C   UNL     1      16.465  49.125  47.988  1.00  0.00     0.003 A 
HETATM   30  C   UNL     1      17.535  49.190  48.886  1.00  0.00     0.040 A 
BRANCH  26  31
HETATM   31  O   UNL     1      17.067  52.702  50.031  1.00  0.00    -0.353 OA
HETATM   32  C   UNL     1      15.849  53.406  50.231  1.00  0.00     0.210 C 
ENDBRANCH  26  31
ENDBRANCH  24  25
ENDBRANCH  23  24
ENDBRANCH  22  23
ENDBRANCH  21  22
ENDBRANCH  20  21
ENDBRANCH   1  20
TORSDOF 9
ENDMDL
