MODEL 1
REMARK VINA RESULT:      -8.9      0.000      0.000
REMARK  6 active torsions:
REMARK  status: ('A' for Active; 'I' for Inactive)
REMARK    1  A    between atoms: C_9  and  C_10 
REMARK    2  A    between atoms: C_12  and  N_13 
REMARK    3  A    between atoms: N_13  and  C_14 
REMARK    4  A    between atoms: C_14  and  C_15 
REMARK    5  A    between atoms: C_15  and  C_16 
REMARK    6  A    between atoms: C_16  and  N_17 
ROOT
HETATM    1  C   UNL     1      28.405  43.070  52.513  1.00  0.00     0.071 A 
HETATM    2  N   UNL     1      28.767  41.763  52.423  1.00  0.00    -0.218 NA
HETATM    3  C   UNL     1      28.336  41.100  51.334  1.00  0.00     0.202 A 
HETATM    4  N   UNL     1      27.616  41.635  50.352  1.00  0.00    -0.231 NA
HETATM    5  C   UNL     1      27.278  42.932  50.480  1.00  0.00     0.122 A 
HETATM    6  C   UNL     1      27.643  43.703  51.554  1.00  0.00     0.052 A 
ENDROOT
BRANCH   1   7
HETATM    7  C   UNL     1      28.878  43.756  53.719  1.00  0.00    -0.006 A 
HETATM    8  C   UNL     1      28.303  44.963  54.142  1.00  0.00     0.014 A 
HETATM    9  C   UNL     1      28.727  45.581  55.322  1.00  0.00     0.013 A 
HETATM   10  C   UNL     1      29.732  45.008  56.112  1.00  0.00    -0.026 A 
HETATM   11  C   UNL     1      30.157  45.616  57.304  1.00  0.00     0.012 A 
HETATM   12  C   UNL     1      30.334  43.800  55.695  1.00  0.00    -0.025 A 
HETATM   13  C   UNL     1      31.160  45.034  58.079  1.00  0.00     0.001 A 
HETATM   14  C   UNL     1      31.757  43.845  57.670  1.00  0.00     0.001 A 
HETATM   15  C   UNL     1      31.349  43.233  56.483  1.00  0.00     0.012 A 
HETATM   16  C   UNL     1      29.904  43.196  54.502  1.00  0.00     0.026 A 
ENDBRANCH   1   7
BRANCH   3  17
HETATM   17  N   UNL     1      28.680  39.758  51.188  1.00  0.00    -0.261 NA
HETATM   18  H   UNL     1      29.592  39.706  51.651  1.00  0.00     0.130 HD
BRANCH  17  19
HETATM   19  C   UNL     1      28.733  39.309  49.807  1.00  0.00     0.097 C 
BRANCH  19  20
HETATM   20  C   UNL     1      29.751  38.177  49.658  1.00  0.00     0.042 C 
BRANCH  20  21
HETATM   21  C   UNL     1      29.880  37.244  50.856  1.00  0.00     0.230 C 
BRANCH  21  22
HETATM   22  N   UNL     1      28.719  36.338  50.975  1.00  0.00    -0.079 N 
HETATM   23  H   UNL     1      27.989  36.623  50.289  1.00  0.00     0.274 HD
HETATM   24  H   UNL     1      28.935  35.352  50.802  1.00  0.00     0.274 HD
HETATM   25  H   UNL     1      28.272  36.409  51.895  1.00  0.00     0.274 HD
ENDBRANCH  21  22
ENDBRANCH  20  21
ENDBRANCH  19  20
ENDBRANCH  17  19
ENDBRANCH   3  17
TORSDOF 6
ENDMDL
MODEL 2
REMARK VINA RESULT:      -8.7      2.320      3.341
REMARK  6 active torsions:
REMARK  status: ('A' for Active; 'I' for Inactive)
REMARK    1  A    between atoms: C_9  and  C_10 
REMARK    2  A    between atoms: C_12  and  N_13 
REMARK    3  A    between atoms: N_13  and  C_14 
REMARK    4  A    between atoms: C_14  and  C_15 
REMARK    5  A    between atoms: C_15  and  C_16 
REMARK    6  A    between atoms: C_16  and  N_17 
ROOT
HETATM    1  C   UNL     1      26.655  45.383  53.347  1.00  0.00     0.071 A 
HETATM    2  N   UNL     1      26.181  44.152  53.016  1.00  0.00    -0.218 NA
HETATM    3  C   UNL     1      25.218  44.119  52.076  1.00  0.00     0.202 A 
HETATM    4  N   UNL     1      24.729  45.185  51.448  1.00  0.00    -0.231 NA
HETATM    5  C   UNL     1      25.225  46.384  51.806  1.00  0.00     0.122 A 
HETATM    6  C   UNL     1      26.194  46.544  52.764  1.00  0.00     0.052 A 
ENDROOT
BRANCH   1   7
HETATM    7  C   UNL     1      27.691  45.382  54.385  1.00  0.00    -0.006 A 
HETATM    8  C   UNL     1      27.738  46.382  55.366  1.00  0.00     0.014 A 
HETATM    9  C   UNL     1      28.698  46.343  56.380  1.00  0.00     0.013 A 
HETATM   10  C   UNL     1      29.633  45.301  56.444  1.00  0.00    -0.026 A 
HETATM   11  C   UNL     1      30.594  45.246  57.466  1.00  0.00     0.012 A 
HETATM   12  C   UNL     1      29.612  44.292  55.456  1.00  0.00    -0.025 A 
HETATM   13  C   UNL     1      31.520  44.204  57.515  1.00  0.00     0.001 A 
HETATM   14  C   UNL     1      31.503  43.210  56.542  1.00  0.00     0.001 A 
HETATM   15  C   UNL     1      30.556  43.254  55.516  1.00  0.00     0.012 A 
HETATM   16  C   UNL     1      28.646  44.351  54.437  1.00  0.00     0.026 A 
ENDBRANCH   1   7
BRANCH   3  17
HETATM   17  N   UNL     1      24.697  42.885  51.695  1.00  0.00    -0.261 NA
HETATM   18  H   UNL     1      24.991  42.270  52.458  1.00  0.00     0.130 HD
BRANCH  17  19
HETATM   19  C   UNL     1      25.164  42.421  50.399  1.00  0.00     0.097 C 
BRANCH  19  20
HETATM   20  C   UNL     1      25.896  41.086  50.547  1.00  0.00     0.042 C 
BRANCH  20  21
HETATM   21  C   UNL     1      27.270  41.156  51.203  1.00  0.00     0.230 C 
BRANCH  21  22
HETATM   22  N   UNL     1      27.182  41.073  52.675  1.00  0.00    -0.079 N 
HETATM   23  H   UNL     1      26.262  41.451  52.986  1.00  0.00     0.274 HD
HETATM   24  H   UNL     1      27.265  40.122  53.048  1.00  0.00     0.274 HD
HETATM   25  H   UNL     1      27.888  41.658  53.134  1.00  0.00     0.274 HD
ENDBRANCH  21  22
ENDBRANCH  20  21
ENDBRANCH  19  20
ENDBRANCH  17  19
ENDBRANCH   3  17
TORSDOF 6
ENDMDL
MODEL 3
REMARK VINA RESULT:      -8.6      1.863      2.941
REMARK  6 active torsions:
REMARK  status: ('A' for Active; 'I' for Inactive)
REMARK    1  A    between atoms: C_9  and  C_10 
REMARK    2  A    between atoms: C_12  and  N_13 
REMARK    3  A    between atoms: N_13  and  C_14 
REMARK    4  A    between atoms: C_14  and  C_15 
REMARK    5  A    between atoms: C_15  and  C_16 
REMARK    6  A    between atoms: C_16  and  N_17 
ROOT
HETATM    1  C   UNL     1      27.507  44.549  52.632  1.00  0.00     0.071 A 
HETATM    2  N   UNL     1      27.724  43.877  51.471  1.00  0.00    -0.218 NA
HETATM    3  C   UNL     1      26.837  44.095  50.483  1.00  0.00     0.202 A 
HETATM    4  N   UNL     1      25.799  44.924  50.560  1.00  0.00    -0.231 NA
HETATM    5  C   UNL     1      25.620  45.570  51.727  1.00  0.00     0.122 A 
HETATM    6  C   UNL     1      26.447  45.413  52.810  1.00  0.00     0.052 A 
ENDROOT
BRANCH   1   7
HETATM    7  C   UNL     1      28.484  44.276  53.691  1.00  0.00    -0.006 A 
HETATM    8  C   UNL     1      29.391  43.213  53.586  1.00  0.00     0.014 A 
HETATM    9  C   UNL     1      30.352  42.993  54.577  1.00  0.00     0.013 A 
HETATM   10  C   UNL     1      30.434  43.833  55.696  1.00  0.00    -0.026 A 
HETATM   11  C   UNL     1      31.403  43.628  56.691  1.00  0.00     0.012 A 
HETATM   12  C   UNL     1      29.519  44.901  55.827  1.00  0.00    -0.025 A 
HETATM   13  C   UNL     1      31.472  44.471  57.801  1.00  0.00     0.001 A 
HETATM   14  C   UNL     1      30.570  45.523  57.933  1.00  0.00     0.001 A 
HETATM   15  C   UNL     1      29.597  45.736  56.954  1.00  0.00     0.012 A 
HETATM   16  C   UNL     1      28.553  45.103  54.827  1.00  0.00     0.026 A 
ENDBRANCH   1   7
BRANCH   3  17
HETATM   17  N   UNL     1      27.011  43.434  49.269  1.00  0.00    -0.261 NA
HETATM   18  H   UNL     1      26.555  44.062  48.602  1.00  0.00     0.130 HD
BRANCH  17  19
HETATM   19  C   UNL     1      26.450  42.094  49.240  1.00  0.00     0.097 C 
BRANCH  19  20
HETATM   20  C   UNL     1      27.569  41.052  49.250  1.00  0.00     0.042 C 
BRANCH  20  21
HETATM   21  C   UNL     1      27.862  40.410  50.601  1.00  0.00     0.230 C 
BRANCH  21  22
HETATM   22  N   UNL     1      26.855  40.781  51.616  1.00  0.00    -0.079 N 
HETATM   23  H   UNL     1      27.024  41.762  51.925  1.00  0.00     0.274 HD
HETATM   24  H   UNL     1      25.886  40.725  51.287  1.00  0.00     0.274 HD
HETATM   25  H   UNL     1      26.937  40.209  52.463  1.00  0.00     0.274 HD
ENDBRANCH  21  22
ENDBRANCH  20  21
ENDBRANCH  19  20
ENDBRANCH  17  19
ENDBRANCH   3  17
TORSDOF 6
ENDMDL
MODEL 4
REMARK VINA RESULT:      -8.4      1.878      4.033
REMARK  6 active torsions:
REMARK  status: ('A' for Active; 'I' for Inactive)
REMARK    1  A    between atoms: C_9  and  C_10 
REMARK    2  A    between atoms: C_12  and  N_13 
REMARK    3  A    between atoms: N_13  and  C_14 
REMARK    4  A    between atoms: C_14  and  C_15 
REMARK    5  A    between atoms: C_15  and  C_16 
REMARK    6  A    between atoms: C_16  and  N_17 
ROOT
HETATM    1  C   UNL     1      28.513  42.813  52.595  1.00  0.00     0.071 A 
HETATM    2  N   UNL     1      27.909  43.552  51.627  1.00  0.00    -0.218 NA
HETATM    3  C   UNL     1      27.514  42.883  50.528  1.00  0.00     0.202 A 
HETATM    4  N   UNL     1      27.651  41.573  50.343  1.00  0.00    -0.231 NA
HETATM    5  C   UNL     1      28.255  40.878  51.325  1.00  0.00     0.122 A 
HETATM    6  C   UNL     1      28.716  41.454  52.481  1.00  0.00     0.052 A 
ENDROOT
BRANCH   1   7
HETATM    7  C   UNL     1      28.944  43.576  53.770  1.00  0.00    -0.006 A 
HETATM    8  C   UNL     1      28.334  44.791  54.112  1.00  0.00     0.014 A 
HETATM    9  C   UNL     1      28.718  45.484  55.263  1.00  0.00     0.013 A 
HETATM   10  C   UNL     1      29.717  44.979  56.105  1.00  0.00    -0.026 A 
HETATM   11  C   UNL     1      30.102  45.662  57.270  1.00  0.00     0.012 A 
HETATM   12  C   UNL     1      30.355  43.764  55.771  1.00  0.00    -0.025 A 
HETATM   13  C   UNL     1      31.101  45.148  58.098  1.00  0.00     0.001 A 
HETATM   14  C   UNL     1      31.731  43.952  57.769  1.00  0.00     0.001 A 
HETATM   15  C   UNL     1      31.363  43.264  56.610  1.00  0.00     0.012 A 
HETATM   16  C   UNL     1      29.964  43.084  54.605  1.00  0.00     0.026 A 
ENDBRANCH   1   7
BRANCH   3  17
HETATM   17  N   UNL     1      26.887  43.589  49.504  1.00  0.00    -0.261 NA
HETATM   18  H   UNL     1      27.448  43.345  48.684  1.00  0.00     0.130 HD
BRANCH  17  19
HETATM   19  C   UNL     1      26.827  45.024  49.727  1.00  0.00     0.097 C 
BRANCH  19  20
HETATM   20  C   UNL     1      25.388  45.522  49.587  1.00  0.00     0.042 C 
BRANCH  20  21
HETATM   21  C   UNL     1      24.677  45.860  50.891  1.00  0.00     0.230 C 
BRANCH  21  22
HETATM   22  N   UNL     1      24.972  44.874  51.951  1.00  0.00    -0.079 N 
HETATM   23  H   UNL     1      24.891  45.336  52.882  1.00  0.00     0.274 HD
HETATM   24  H   UNL     1      24.347  44.062  51.956  1.00  0.00     0.274 HD
HETATM   25  H   UNL     1      25.937  44.533  51.898  1.00  0.00     0.274 HD
ENDBRANCH  21  22
ENDBRANCH  20  21
ENDBRANCH  19  20
ENDBRANCH  17  19
ENDBRANCH   3  17
TORSDOF 6
ENDMDL
MODEL 5
REMARK VINA RESULT:      -8.3      1.426      2.355
REMARK  6 active torsions:
REMARK  status: ('A' for Active; 'I' for Inactive)
REMARK    1  A    between atoms: C_9  and  C_10 
REMARK    2  A    between atoms: C_12  and  N_13 
REMARK    3  A    between atoms: N_13  and  C_14 
REMARK    4  A    between atoms: C_14  and  C_15 
REMARK    5  A    between atoms: C_15  and  C_16 
REMARK    6  A    between atoms: C_16  and  N_17 
ROOT
HETATM    1  C   UNL     1      27.080  42.317  51.917  1.00  0.00     0.071 A 
HETATM    2  N   UNL     1      27.157  40.994  51.615  1.00  0.00    -0.218 NA
HETATM    3  C   UNL     1      26.280  40.541  50.700  1.00  0.00     0.202 A 
HETATM    4  N   UNL     1      25.380  41.292  50.071  1.00  0.00    -0.231 NA
HETATM    5  C   UNL     1      25.336  42.596  50.400  1.00  0.00     0.122 A 
HETATM    6  C   UNL     1      26.166  43.167  51.331  1.00  0.00     0.052 A 
ENDROOT
BRANCH   1   7
HETATM    7  C   UNL     1      28.039  42.773  52.928  1.00  0.00    -0.006 A 
HETATM    8  C   UNL     1      29.293  42.162  53.068  1.00  0.00     0.014 A 
HETATM    9  C   UNL     1      30.220  42.637  54.000  1.00  0.00     0.013 A 
HETATM   10  C   UNL     1      29.920  43.738  54.813  1.00  0.00    -0.026 A 
HETATM   11  C   UNL     1      30.848  44.231  55.744  1.00  0.00     0.012 A 
HETATM   12  C   UNL     1      28.656  44.359  54.698  1.00  0.00    -0.025 A 
HETATM   13  C   UNL     1      30.534  45.327  56.548  1.00  0.00     0.001 A 
HETATM   14  C   UNL     1      29.289  45.938  56.438  1.00  0.00     0.001 A 
HETATM   15  C   UNL     1      28.353  45.456  55.521  1.00  0.00     0.012 A 
HETATM   16  C   UNL     1      27.732  43.863  53.763  1.00  0.00     0.026 A 
ENDBRANCH   1   7
BRANCH   3  17
HETATM   17  N   UNL     1      26.315  39.194  50.350  1.00  0.00    -0.261 NA
HETATM   18  H   UNL     1      26.574  38.738  51.229  1.00  0.00     0.130 HD
BRANCH  17  19
HETATM   19  C   UNL     1      27.241  38.887  49.273  1.00  0.00     0.097 C 
BRANCH  19  20
HETATM   20  C   UNL     1      28.096  37.674  49.640  1.00  0.00     0.042 C 
BRANCH  20  21
HETATM   21  C   UNL     1      29.488  37.986  50.177  1.00  0.00     0.230 C 
BRANCH  21  22
HETATM   22  N   UNL     1      29.441  38.928  51.313  1.00  0.00    -0.079 N 
HETATM   23  H   UNL     1      30.409  39.095  51.662  1.00  0.00     0.274 HD
HETATM   24  H   UNL     1      29.035  39.842  51.086  1.00  0.00     0.274 HD
HETATM   25  H   UNL     1      28.926  38.541  52.111  1.00  0.00     0.274 HD
ENDBRANCH  21  22
ENDBRANCH  20  21
ENDBRANCH  19  20
ENDBRANCH  17  19
ENDBRANCH   3  17
TORSDOF 6
ENDMDL
MODEL 6
REMARK VINA RESULT:      -8.3      3.838      6.103
REMARK  6 active torsions:
REMARK  status: ('A' for Active; 'I' for Inactive)
REMARK    1  A    between atoms: C_9  and  C_10 
REMARK    2  A    between atoms: C_12  and  N_13 
REMARK    3  A    between atoms: N_13  and  C_14 
REMARK    4  A    between atoms: C_14  and  C_15 
REMARK    5  A    between atoms: C_15  and  C_16 
REMARK    6  A    between atoms: C_16  and  N_17 
ROOT
HETATM    1  C   UNL     1      26.460  44.582  52.287  1.00  0.00     0.071 A 
HETATM    2  N   UNL     1      26.365  45.916  52.042  1.00  0.00    -0.218 NA
HETATM    3  C   UNL     1      25.371  46.300  51.220  1.00  0.00     0.202 A 
HETATM    4  N   UNL     1      24.482  45.480  50.664  1.00  0.00    -0.231 NA
HETATM    5  C   UNL     1      24.612  44.168  50.932  1.00  0.00     0.122 A 
HETATM    6  C   UNL     1      25.596  43.657  51.739  1.00  0.00     0.052 A 
ENDROOT
BRANCH   1   7
HETATM    7  C   UNL     1      27.563  44.198  53.174  1.00  0.00    -0.006 A 
HETATM    8  C   UNL     1      28.283  43.014  52.968  1.00  0.00     0.014 A 
HETATM    9  C   UNL     1      29.365  42.684  53.788  1.00  0.00     0.013 A 
HETATM   10  C   UNL     1      29.759  43.531  54.832  1.00  0.00    -0.026 A 
HETATM   11  C   UNL     1      30.852  43.214  55.655  1.00  0.00     0.012 A 
HETATM   12  C   UNL     1      29.037  44.722  55.066  1.00  0.00    -0.025 A 
HETATM   13  C   UNL     1      31.231  44.066  56.692  1.00  0.00     0.001 A 
HETATM   14  C   UNL     1      30.519  45.239  56.926  1.00  0.00     0.001 A 
HETATM   15  C   UNL     1      29.426  45.564  56.120  1.00  0.00     0.012 A 
HETATM   16  C   UNL     1      27.945  45.034  54.239  1.00  0.00     0.026 A 
ENDBRANCH   1   7
BRANCH   3  17
HETATM   17  N   UNL     1      25.225  47.655  50.935  1.00  0.00    -0.261 NA
HETATM   18  H   UNL     1      24.464  47.937  51.560  1.00  0.00     0.130 HD
BRANCH  17  19
HETATM   19  C   UNL     1      24.929  47.937  49.540  1.00  0.00     0.097 C 
BRANCH  19  20
HETATM   20  C   UNL     1      25.889  48.997  49.000  1.00  0.00     0.042 C 
BRANCH  20  21
HETATM   21  C   UNL     1      27.370  48.645  49.076  1.00  0.00     0.230 C 
BRANCH  21  22
HETATM   22  N   UNL     1      28.222  49.852  49.098  1.00  0.00    -0.079 N 
HETATM   23  H   UNL     1      27.616  50.700  49.130  1.00  0.00     0.274 HD
HETATM   24  H   UNL     1      28.862  49.902  49.897  1.00  0.00     0.274 HD
HETATM   25  H   UNL     1      28.776  49.945  48.240  1.00  0.00     0.274 HD
ENDBRANCH  21  22
ENDBRANCH  20  21
ENDBRANCH  19  20
ENDBRANCH  17  19
ENDBRANCH   3  17
TORSDOF 6
ENDMDL
MODEL 7
REMARK VINA RESULT:      -8.2      2.532      4.852
REMARK  6 active torsions:
REMARK  status: ('A' for Active; 'I' for Inactive)
REMARK    1  A    between atoms: C_9  and  C_10 
REMARK    2  A    between atoms: C_12  and  N_13 
REMARK    3  A    between atoms: N_13  and  C_14 
REMARK    4  A    between atoms: C_14  and  C_15 
REMARK    5  A    between atoms: C_15  and  C_16 
REMARK    6  A    between atoms: C_16  and  N_17 
ROOT
HETATM    1  C   UNL     1      28.158  43.091  51.727  1.00  0.00     0.071 A 
HETATM    2  N   UNL     1      27.635  44.160  51.070  1.00  0.00    -0.218 NA
HETATM    3  C   UNL     1      27.040  43.900  49.891  1.00  0.00     0.202 A 
HETATM    4  N   UNL     1      26.912  42.690  49.353  1.00  0.00    -0.231 NA
HETATM    5  C   UNL     1      27.445  41.659  50.035  1.00  0.00     0.122 A 
HETATM    6  C   UNL     1      28.092  41.804  51.236  1.00  0.00     0.052 A 
ENDROOT
BRANCH   1   7
HETATM    7  C   UNL     1      28.813  43.413  52.999  1.00  0.00    -0.006 A 
HETATM    8  C   UNL     1      29.996  42.772  53.391  1.00  0.00     0.014 A 
HETATM    9  C   UNL     1      30.639  43.124  54.581  1.00  0.00     0.013 A 
HETATM   10  C   UNL     1      30.119  44.128  55.408  1.00  0.00    -0.026 A 
HETATM   11  C   UNL     1      30.763  44.497  56.600  1.00  0.00     0.012 A 
HETATM   12  C   UNL     1      28.919  44.776  55.038  1.00  0.00    -0.025 A 
HETATM   13  C   UNL     1      30.233  45.497  57.414  1.00  0.00     0.001 A 
HETATM   14  C   UNL     1      29.049  46.135  57.053  1.00  0.00     0.001 A 
HETATM   15  C   UNL     1      28.394  45.775  55.874  1.00  0.00     0.012 A 
HETATM   16  C   UNL     1      28.280  44.404  53.844  1.00  0.00     0.026 A 
ENDBRANCH   1   7
BRANCH   3  17
HETATM   17  N   UNL     1      26.484  44.957  49.175  1.00  0.00    -0.261 NA
HETATM   18  H   UNL     1      26.884  44.833  48.241  1.00  0.00     0.130 HD
BRANCH  17  19
HETATM   19  C   UNL     1      26.775  46.267  49.734  1.00  0.00     0.097 C 
BRANCH  19  20
HETATM   20  C   UNL     1      25.477  47.035  49.984  1.00  0.00     0.042 C 
BRANCH  20  21
HETATM   21  C   UNL     1      24.191  46.281  49.666  1.00  0.00     0.230 C 
BRANCH  21  22
HETATM   22  N   UNL     1      23.860  45.293  50.713  1.00  0.00    -0.079 N 
HETATM   23  H   UNL     1      24.398  44.417  50.541  1.00  0.00     0.274 HD
HETATM   24  H   UNL     1      24.074  45.602  51.666  1.00  0.00     0.274 HD
HETATM   25  H   UNL     1      22.873  45.018  50.682  1.00  0.00     0.274 HD
ENDBRANCH  21  22
ENDBRANCH  20  21
ENDBRANCH  19  20
ENDBRANCH  17  19
ENDBRANCH   3  17
TORSDOF 6
ENDMDL
MODEL 8
REMARK VINA RESULT:      -7.8      3.685      4.661
REMARK  6 active torsions:
REMARK  status: ('A' for Active; 'I' for Inactive)
REMARK    1  A    between atoms: C_9  and  C_10 
REMARK    2  A    between atoms: C_12  and  N_13 
REMARK    3  A    between atoms: N_13  and  C_14 
REMARK    4  A    between atoms: C_14  and  C_15 
REMARK    5  A    between atoms: C_15  and  C_16 
REMARK    6  A    between atoms: C_16  and  N_17 
ROOT
HETATM    1  C   UNL     1      27.064  45.386  53.239  1.00  0.00     0.071 A 
HETATM    2  N   UNL     1      26.680  44.608  52.192  1.00  0.00    -0.218 NA
HETATM    3  C   UNL     1      25.690  45.096  51.421  1.00  0.00     0.202 A 
HETATM    4  N   UNL     1      25.096  46.273  51.598  1.00  0.00    -0.231 NA
HETATM    5  C   UNL     1      25.505  47.011  52.646  1.00  0.00     0.122 A 
HETATM    6  C   UNL     1      26.490  46.610  53.512  1.00  0.00     0.052 A 
ENDROOT
BRANCH   1   7
HETATM    7  C   UNL     1      28.132  44.817  54.066  1.00  0.00    -0.006 A 
HETATM    8  C   UNL     1      28.835  43.675  53.661  1.00  0.00     0.014 A 
HETATM    9  C   UNL     1      29.886  43.171  54.433  1.00  0.00     0.013 A 
HETATM   10  C   UNL     1      30.265  43.799  55.627  1.00  0.00    -0.026 A 
HETATM   11  C   UNL     1      31.326  43.308  56.404  1.00  0.00     0.012 A 
HETATM   12  C   UNL     1      29.559  44.944  56.060  1.00  0.00    -0.025 A 
HETATM   13  C   UNL     1      31.691  43.943  57.591  1.00  0.00     0.001 A 
HETATM   14  C   UNL     1      30.995  45.069  58.021  1.00  0.00     0.001 A 
HETATM   15  C   UNL     1      29.933  45.566  57.262  1.00  0.00     0.012 A 
HETATM   16  C   UNL     1      28.499  45.432  55.278  1.00  0.00     0.026 A 
ENDBRANCH   1   7
BRANCH   3  17
HETATM   17  N   UNL     1      25.258  44.342  50.332  1.00  0.00    -0.261 NA
HETATM   18  H   UNL     1      25.857  44.676  49.573  1.00  0.00     0.130 HD
BRANCH  17  19
HETATM   19  C   UNL     1      23.844  44.497  50.031  1.00  0.00     0.097 C 
BRANCH  19  20
HETATM   20  C   UNL     1      23.162  43.129  49.980  1.00  0.00     0.042 C 
BRANCH  20  21
HETATM   21  C   UNL     1      23.286  42.378  48.660  1.00  0.00     0.230 C 
BRANCH  21  22
HETATM   22  N   UNL     1      24.228  43.043  47.736  1.00  0.00    -0.079 N 
HETATM   23  H   UNL     1      24.094  42.661  46.776  1.00  0.00     0.274 HD
HETATM   24  H   UNL     1      24.116  44.060  47.681  1.00  0.00     0.274 HD
HETATM   25  H   UNL     1      25.205  42.843  47.976  1.00  0.00     0.274 HD
ENDBRANCH  21  22
ENDBRANCH  20  21
ENDBRANCH  19  20
ENDBRANCH  17  19
ENDBRANCH   3  17
TORSDOF 6
ENDMDL
MODEL 9
REMARK VINA RESULT:      -7.7      4.087      5.891
REMARK  6 active torsions:
REMARK  status: ('A' for Active; 'I' for Inactive)
REMARK    1  A    between atoms: C_9  and  C_10 
REMARK    2  A    between atoms: C_12  and  N_13 
REMARK    3  A    between atoms: N_13  and  C_14 
REMARK    4  A    between atoms: C_14  and  C_15 
REMARK    5  A    between atoms: C_15  and  C_16 
REMARK    6  A    between atoms: C_16  and  N_17 
ROOT
HETATM    1  C   UNL     1      26.212  44.827  52.347  1.00  0.00     0.071 A 
HETATM    2  N   UNL     1      26.084  45.866  51.480  1.00  0.00    -0.218 NA
HETATM    3  C   UNL     1      25.176  45.712  50.498  1.00  0.00     0.202 A 
HETATM    4  N   UNL     1      24.398  44.644  50.340  1.00  0.00    -0.231 NA
HETATM    5  C   UNL     1      24.558  43.638  51.219  1.00  0.00     0.122 A 
HETATM    6  C   UNL     1      25.464  43.672  52.248  1.00  0.00     0.052 A 
ENDROOT
BRANCH   1   7
HETATM    7  C   UNL     1      27.221  45.022  53.393  1.00  0.00    -0.006 A 
HETATM    8  C   UNL     1      27.221  46.170  54.197  1.00  0.00     0.014 A 
HETATM    9  C   UNL     1      28.155  46.322  55.226  1.00  0.00     0.013 A 
HETATM   10  C   UNL     1      29.110  45.329  55.480  1.00  0.00    -0.026 A 
HETATM   11  C   UNL     1      30.046  45.467  56.518  1.00  0.00     0.012 A 
HETATM   12  C   UNL     1      29.136  44.171  54.671  1.00  0.00    -0.025 A 
HETATM   13  C   UNL     1      30.992  44.470  56.759  1.00  0.00     0.001 A 
HETATM   14  C   UNL     1      31.021  43.330  55.961  1.00  0.00     0.001 A 
HETATM   15  C   UNL     1      30.101  43.182  54.921  1.00  0.00     0.012 A 
HETATM   16  C   UNL     1      28.196  44.038  53.636  1.00  0.00     0.026 A 
ENDBRANCH   1   7
BRANCH   3  17
HETATM   17  N   UNL     1      24.999  46.746  49.582  1.00  0.00    -0.261 NA
HETATM   18  H   UNL     1      25.959  46.975  49.311  1.00  0.00     0.130 HD
BRANCH  17  19
HETATM   19  C   UNL     1      24.286  47.894  50.117  1.00  0.00     0.097 C 
BRANCH  19  20
HETATM   20  C   UNL     1      23.065  48.208  49.251  1.00  0.00     0.042 C 
BRANCH  20  21
HETATM   21  C   UNL     1      22.640  47.109  48.285  1.00  0.00     0.230 C 
BRANCH  21  22
HETATM   22  N   UNL     1      21.912  46.024  48.973  1.00  0.00    -0.079 N 
HETATM   23  H   UNL     1      22.070  45.128  48.465  1.00  0.00     0.274 HD
HETATM   24  H   UNL     1      22.195  45.878  49.947  1.00  0.00     0.274 HD
HETATM   25  H   UNL     1      20.897  46.172  48.955  1.00  0.00     0.274 HD
ENDBRANCH  21  22
ENDBRANCH  20  21
ENDBRANCH  19  20
ENDBRANCH  17  19
ENDBRANCH   3  17
TORSDOF 6
ENDMDL
MODEL 10
REMARK VINA RESULT:      -7.6      5.651      8.208
REMARK  6 active torsions:
REMARK  status: ('A' for Active; 'I' for Inactive)
REMARK    1  A    between atoms: C_9  and  C_10 
REMARK    2  A    between atoms: C_12  and  N_13 
REMARK    3  A    between atoms: N_13  and  C_14 
REMARK    4  A    between atoms: C_14  and  C_15 
REMARK    5  A    between atoms: C_15  and  C_16 
REMARK    6  A    between atoms: C_16  and  N_17 
ROOT
HETATM    1  C   UNL     1      24.816  46.302  50.755  1.00  0.00     0.071 A 
HETATM    2  N   UNL     1      24.734  47.655  50.646  1.00  0.00    -0.218 NA
HETATM    3  C   UNL     1      23.890  48.125  49.709  1.00  0.00     0.202 A 
HETATM    4  N   UNL     1      23.131  47.370  48.919  1.00  0.00    -0.231 NA
HETATM    5  C   UNL     1      23.243  46.036  49.059  1.00  0.00     0.122 A 
HETATM    6  C   UNL     1      24.083  45.441  49.965  1.00  0.00     0.052 A 
ENDROOT
BRANCH   1   7
HETATM    7  C   UNL     1      25.756  45.825  51.774  1.00  0.00    -0.006 A 
HETATM    8  C   UNL     1      26.354  44.561  51.677  1.00  0.00     0.014 A 
HETATM    9  C   UNL     1      27.288  44.138  52.626  1.00  0.00     0.013 A 
HETATM   10  C   UNL     1      27.653  44.968  53.694  1.00  0.00    -0.026 A 
HETATM   11  C   UNL     1      28.598  44.556  54.647  1.00  0.00     0.012 A 
HETATM   12  C   UNL     1      27.050  46.240  53.818  1.00  0.00    -0.025 A 
HETATM   13  C   UNL     1      28.950  45.393  55.707  1.00  0.00     0.001 A 
HETATM   14  C   UNL     1      28.356  46.646  55.832  1.00  0.00     0.001 A 
HETATM   15  C   UNL     1      27.409  47.066  54.896  1.00  0.00     0.012 A 
HETATM   16  C   UNL     1      26.106  46.647  52.861  1.00  0.00     0.026 A 
ENDBRANCH   1   7
BRANCH   3  17
HETATM   17  N   UNL     1      23.763  49.503  49.554  1.00  0.00    -0.261 NA
HETATM   18  H   UNL     1      23.197  49.771  50.364  1.00  0.00     0.130 HD
BRANCH  17  19
HETATM   19  C   UNL     1      23.154  49.903  48.296  1.00  0.00     0.097 C 
BRANCH  19  20
HETATM   20  C   UNL     1      22.070  50.953  48.543  1.00  0.00     0.042 C 
BRANCH  20  21
HETATM   21  C   UNL     1      21.215  50.738  49.787  1.00  0.00     0.230 C 
BRANCH  21  22
HETATM   22  N   UNL     1      20.637  49.380  49.829  1.00  0.00    -0.079 N 
HETATM   23  H   UNL     1      19.601  49.450  49.915  1.00  0.00     0.274 HD
HETATM   24  H   UNL     1      20.838  48.810  49.001  1.00  0.00     0.274 HD
HETATM   25  H   UNL     1      20.945  48.858  50.656  1.00  0.00     0.274 HD
ENDBRANCH  21  22
ENDBRANCH  20  21
ENDBRANCH  19  20
ENDBRANCH  17  19
ENDBRANCH   3  17
TORSDOF 6
ENDMDL
