MODEL 1
REMARK VINA RESULT:      -8.8      0.000      0.000
REMARK  8 active torsions:
REMARK  status: ('A' for Active; 'I' for Inactive)
REMARK    1  A    between atoms: C_2  and  C_3 
REMARK    2  A    between atoms: C_3  and  N_4 
REMARK       I    between atoms: N_4  and  C_5 
REMARK    3  A    between atoms: N_4  and  C_20 
REMARK    4  A    between atoms: C_5  and  C_6 
REMARK    5  A    between atoms: C_10  and  C_11 
REMARK    6  A    between atoms: C_12  and  O_13 
REMARK    7  A    between atoms: C_20  and  C_21 
REMARK    8  A    between atoms: C_21  and  C_22 
ROOT
HETATM    1  C   UNL     1      26.231  44.940  51.693  1.00  0.00     0.120 A 
HETATM    2  N   UNL     1      25.569  45.809  52.516  1.00  0.00    -0.272 N 
HETATM    3  H   UNL     1      25.298  45.634  53.480  1.00  0.00     0.189 HD
HETATM    4  N   UNL     1      25.266  46.991  51.955  1.00  0.00    -0.174 NA
HETATM    5  C   UNL     1      25.795  46.922  50.721  1.00  0.00     0.092 A 
HETATM    6  C   UNL     1      26.441  45.666  50.537  1.00  0.00     0.071 A 
ENDROOT
BRANCH   1   7
HETATM    7  C   UNL     1      26.615  43.634  52.180  1.00  0.00     0.271 C 
HETATM    8  N   UNL     1      27.682  43.484  53.084  1.00  0.00    -0.346 N 
HETATM    9  O   UNL     1      25.991  42.652  51.777  1.00  0.00    -0.266 OA
BRANCH   8  10
HETATM   10  C   UNL     1      27.773  42.200  53.792  1.00  0.00     0.126 C 
BRANCH  10  11
HETATM   11  C   UNL     1      29.049  41.420  53.466  1.00  0.00     0.015 C 
HETATM   12  C   UNL     1      28.912  40.552  52.225  1.00  0.00     0.006 C 
ENDBRANCH  10  11
ENDBRANCH   8  10
BRANCH   8  13
HETATM   13  C   UNL     1      28.600  44.572  53.467  1.00  0.00     0.130 C 
BRANCH  13  14
HETATM   14  C   UNL     1      28.343  45.225  54.837  1.00  0.00     0.058 C 
BRANCH  14  15
HETATM   15  C   UNL     1      29.422  45.007  55.878  1.00  0.00    -0.057 A 
HETATM   16  C   UNL     1      29.437  45.829  57.017  1.00  0.00     0.007 A 
HETATM   17  C   UNL     1      30.386  45.645  58.024  1.00  0.00     0.001 A 
HETATM   18  C   UNL     1      31.331  44.629  57.913  1.00  0.00     0.000 A 
HETATM   19  C   UNL     1      31.319  43.792  56.800  1.00  0.00     0.001 A 
HETATM   20  C   UNL     1      30.365  43.973  55.794  1.00  0.00     0.007 A 
ENDBRANCH  14  15
ENDBRANCH  13  14
ENDBRANCH   8  13
ENDBRANCH   1   7
BRANCH   5  21
HETATM   21  C   UNL     1      25.684  48.050  49.782  1.00  0.00     0.028 A 
HETATM   22  C   UNL     1      24.435  48.539  49.356  1.00  0.00     0.078 A 
HETATM   23  C   UNL     1      24.337  49.612  48.471  1.00  0.00     0.037 A 
HETATM   24  C   UNL     1      25.493  50.216  47.982  1.00  0.00     0.003 A 
HETATM   25  C   UNL     1      26.742  49.744  48.382  1.00  0.00     0.001 A 
HETATM   26  C   UNL     1      26.838  48.671  49.274  1.00  0.00     0.017 A 
BRANCH  22  27
HETATM   27  O   UNL     1      23.246  47.999  49.776  1.00  0.00    -0.360 OA
HETATM   28  H   UNL     1      22.701  47.876  48.963  1.00  0.00     0.217 HD
ENDBRANCH  22  27
ENDBRANCH   5  21
TORSDOF 8
ENDMDL
MODEL 2
REMARK VINA RESULT:      -8.5      2.044      7.797
REMARK  8 active torsions:
REMARK  status: ('A' for Active; 'I' for Inactive)
REMARK    1  A    between atoms: C_2  and  C_3 
REMARK    2  A    between atoms: C_3  and  N_4 
REMARK       I    between atoms: N_4  and  C_5 
REMARK    3  A    between atoms: N_4  and  C_20 
REMARK    4  A    between atoms: C_5  and  C_6 
REMARK    5  A    between atoms: C_10  and  C_11 
REMARK    6  A    between atoms: C_12  and  O_13 
REMARK    7  A    between atoms: C_20  and  C_21 
REMARK    8  A    between atoms: C_21  and  C_22 
ROOT
HETATM    1  C   UNL     1      26.082  43.746  52.205  1.00  0.00     0.120 A 
HETATM    2  N   UNL     1      25.478  43.688  53.432  1.00  0.00    -0.272 N 
HETATM    3  H   UNL     1      24.486  43.548  53.605  1.00  0.00     0.189 HD
HETATM    4  N   UNL     1      26.310  43.839  54.474  1.00  0.00    -0.174 NA
HETATM    5  C   UNL     1      27.529  43.951  53.916  1.00  0.00     0.092 A 
HETATM    6  C   UNL     1      27.427  43.857  52.499  1.00  0.00     0.071 A 
ENDROOT
BRANCH   1   7
HETATM    7  C   UNL     1      25.293  43.596  51.003  1.00  0.00     0.271 C 
HETATM    8  N   UNL     1      24.740  44.715  50.356  1.00  0.00    -0.346 N 
HETATM    9  O   UNL     1      25.107  42.461  50.563  1.00  0.00    -0.266 OA
BRANCH   8  10
HETATM   10  C   UNL     1      24.271  44.516  48.978  1.00  0.00     0.126 C 
BRANCH  10  11
HETATM   11  C   UNL     1      23.010  45.320  48.648  1.00  0.00     0.015 C 
HETATM   12  C   UNL     1      21.728  44.573  48.981  1.00  0.00     0.006 C 
ENDBRANCH  10  11
ENDBRANCH   8  10
BRANCH   8  13
HETATM   13  C   UNL     1      24.748  46.080  50.913  1.00  0.00     0.130 C 
BRANCH  13  14
HETATM   14  C   UNL     1      26.039  46.891  50.700  1.00  0.00     0.058 C 
BRANCH  14  15
HETATM   15  C   UNL     1      25.935  48.039  49.717  1.00  0.00    -0.057 A 
HETATM   16  C   UNL     1      24.659  48.478  49.325  1.00  0.00     0.007 A 
HETATM   17  C   UNL     1      24.507  49.558  48.452  1.00  0.00     0.001 A 
HETATM   18  C   UNL     1      25.628  50.221  47.963  1.00  0.00     0.000 A 
HETATM   19  C   UNL     1      26.900  49.812  48.357  1.00  0.00     0.001 A 
HETATM   20  C   UNL     1      27.053  48.735  49.235  1.00  0.00     0.007 A 
ENDBRANCH  14  15
ENDBRANCH  13  14
ENDBRANCH   8  13
ENDBRANCH   1   7
BRANCH   5  21
HETATM   21  C   UNL     1      28.732  44.119  54.747  1.00  0.00     0.028 A 
HETATM   22  C   UNL     1      28.951  45.285  55.505  1.00  0.00     0.078 A 
HETATM   23  C   UNL     1      30.091  45.435  56.295  1.00  0.00     0.037 A 
HETATM   24  C   UNL     1      31.045  44.423  56.335  1.00  0.00     0.003 A 
HETATM   25  C   UNL     1      30.856  43.263  55.587  1.00  0.00     0.001 A 
HETATM   26  C   UNL     1      29.709  43.111  54.799  1.00  0.00     0.017 A 
BRANCH  22  27
HETATM   27  O   UNL     1      28.071  46.337  55.517  1.00  0.00    -0.360 OA
HETATM   28  H   UNL     1      28.569  47.103  55.888  1.00  0.00     0.217 HD
ENDBRANCH  22  27
ENDBRANCH   5  21
TORSDOF 8
ENDMDL
MODEL 3
REMARK VINA RESULT:      -8.3      3.288      5.980
REMARK  8 active torsions:
REMARK  status: ('A' for Active; 'I' for Inactive)
REMARK    1  A    between atoms: C_2  and  C_3 
REMARK    2  A    between atoms: C_3  and  N_4 
REMARK       I    between atoms: N_4  and  C_5 
REMARK    3  A    between atoms: N_4  and  C_20 
REMARK    4  A    between atoms: C_5  and  C_6 
REMARK    5  A    between atoms: C_10  and  C_11 
REMARK    6  A    between atoms: C_12  and  O_13 
REMARK    7  A    between atoms: C_20  and  C_21 
REMARK    8  A    between atoms: C_21  and  C_22 
ROOT
HETATM    1  C   UNL     1      26.065  43.173  51.164  1.00  0.00     0.120 A 
HETATM    2  N   UNL     1      26.656  43.789  50.095  1.00  0.00    -0.272 N 
HETATM    3  H   UNL     1      26.687  44.791  49.922  1.00  0.00     0.189 HD
HETATM    4  N   UNL     1      27.234  42.955  49.216  1.00  0.00    -0.174 NA
HETATM    5  C   UNL     1      27.063  41.733  49.752  1.00  0.00     0.092 A 
HETATM    6  C   UNL     1      26.370  41.837  50.992  1.00  0.00     0.071 A 
ENDROOT
BRANCH   1   7
HETATM    7  C   UNL     1      25.411  43.963  52.182  1.00  0.00     0.271 C 
HETATM    8  N   UNL     1      26.004  44.155  53.443  1.00  0.00    -0.346 N 
HETATM    9  O   UNL     1      24.313  44.458  51.924  1.00  0.00    -0.266 OA
BRANCH   8  10
HETATM   10  C   UNL     1      25.461  45.241  54.271  1.00  0.00     0.126 C 
BRANCH  10  11
HETATM   11  C   UNL     1      25.876  46.633  53.787  1.00  0.00     0.015 C 
HETATM   12  C   UNL     1      26.619  47.431  54.847  1.00  0.00     0.006 C 
ENDBRANCH  10  11
ENDBRANCH   8  10
BRANCH   8  13
HETATM   13  C   UNL     1      27.213  43.448  53.903  1.00  0.00     0.130 C 
BRANCH  13  14
HETATM   14  C   UNL     1      28.551  44.172  53.669  1.00  0.00     0.058 C 
BRANCH  14  15
HETATM   15  C   UNL     1      29.486  44.221  54.861  1.00  0.00    -0.057 A 
HETATM   16  C   UNL     1      29.402  45.313  55.741  1.00  0.00     0.007 A 
HETATM   17  C   UNL     1      30.213  45.386  56.875  1.00  0.00     0.001 A 
HETATM   18  C   UNL     1      31.116  44.364  57.153  1.00  0.00     0.000 A 
HETATM   19  C   UNL     1      31.199  43.265  56.302  1.00  0.00     0.001 A 
HETATM   20  C   UNL     1      30.383  43.188  55.169  1.00  0.00     0.007 A 
ENDBRANCH  14  15
ENDBRANCH  13  14
ENDBRANCH   8  13
ENDBRANCH   1   7
BRANCH   5  21
HETATM   21  C   UNL     1      27.580  40.530  49.080  1.00  0.00     0.028 A 
HETATM   22  C   UNL     1      27.745  40.476  47.683  1.00  0.00     0.078 A 
HETATM   23  C   UNL     1      28.240  39.334  47.054  1.00  0.00     0.037 A 
HETATM   24  C   UNL     1      28.572  38.213  47.810  1.00  0.00     0.003 A 
HETATM   25  C   UNL     1      28.409  38.239  49.194  1.00  0.00     0.001 A 
HETATM   26  C   UNL     1      27.917  39.387  49.824  1.00  0.00     0.017 A 
BRANCH  22  27
HETATM   27  O   UNL     1      27.434  41.526  46.858  1.00  0.00    -0.360 OA
HETATM   28  H   UNL     1      27.429  42.329  47.430  1.00  0.00     0.217 HD
ENDBRANCH  22  27
ENDBRANCH   5  21
TORSDOF 8
ENDMDL
MODEL 4
REMARK VINA RESULT:      -8.1      2.674      7.019
REMARK  8 active torsions:
REMARK  status: ('A' for Active; 'I' for Inactive)
REMARK    1  A    between atoms: C_2  and  C_3 
REMARK    2  A    between atoms: C_3  and  N_4 
REMARK       I    between atoms: N_4  and  C_5 
REMARK    3  A    between atoms: N_4  and  C_20 
REMARK    4  A    between atoms: C_5  and  C_6 
REMARK    5  A    between atoms: C_10  and  C_11 
REMARK    6  A    between atoms: C_12  and  O_13 
REMARK    7  A    between atoms: C_20  and  C_21 
REMARK    8  A    between atoms: C_21  and  C_22 
ROOT
HETATM    1  C   UNL     1      26.615  45.215  54.099  1.00  0.00     0.120 A 
HETATM    2  N   UNL     1      27.146  46.471  54.214  1.00  0.00    -0.272 N 
HETATM    3  H   UNL     1      26.774  47.320  53.795  1.00  0.00     0.189 HD
HETATM    4  N   UNL     1      28.263  46.542  54.955  1.00  0.00    -0.174 NA
HETATM    5  C   UNL     1      28.454  45.285  55.394  1.00  0.00     0.092 A 
HETATM    6  C   UNL     1      27.418  44.436  54.909  1.00  0.00     0.071 A 
ENDROOT
BRANCH   1   7
HETATM    7  C   UNL     1      25.411  45.008  53.327  1.00  0.00     0.271 C 
HETATM    8  N   UNL     1      25.440  45.025  51.922  1.00  0.00    -0.346 N 
HETATM    9  O   UNL     1      24.353  44.825  53.931  1.00  0.00    -0.266 OA
BRANCH   8  10
HETATM   10  C   UNL     1      24.273  44.459  51.229  1.00  0.00     0.126 C 
BRANCH  10  11
HETATM   11  C   UNL     1      23.951  45.170  49.912  1.00  0.00     0.015 C 
HETATM   12  C   UNL     1      24.017  44.244  48.708  1.00  0.00     0.006 C 
ENDBRANCH  10  11
ENDBRANCH   8  10
BRANCH   8  13
HETATM   13  C   UNL     1      26.613  45.425  51.124  1.00  0.00     0.130 C 
BRANCH  13  14
HETATM   14  C   UNL     1      27.384  44.284  50.435  1.00  0.00     0.058 C 
BRANCH  14  15
HETATM   15  C   UNL     1      27.938  43.218  51.358  1.00  0.00    -0.057 A 
HETATM   16  C   UNL     1      29.169  43.449  51.994  1.00  0.00     0.007 A 
HETATM   17  C   UNL     1      29.705  42.516  52.884  1.00  0.00     0.001 A 
HETATM   18  C   UNL     1      29.013  41.340  53.160  1.00  0.00     0.000 A 
HETATM   19  C   UNL     1      27.782  41.103  52.554  1.00  0.00     0.001 A 
HETATM   20  C   UNL     1      27.243  42.039  51.666  1.00  0.00     0.007 A 
ENDBRANCH  14  15
ENDBRANCH  13  14
ENDBRANCH   8  13
ENDBRANCH   1   7
BRANCH   5  21
HETATM   21  C   UNL     1      29.591  44.950  56.266  1.00  0.00     0.028 A 
HETATM   22  C   UNL     1      29.755  45.546  57.531  1.00  0.00     0.078 A 
HETATM   23  C   UNL     1      30.833  45.219  58.354  1.00  0.00     0.037 A 
HETATM   24  C   UNL     1      31.779  44.293  57.924  1.00  0.00     0.003 A 
HETATM   25  C   UNL     1      31.643  43.695  56.672  1.00  0.00     0.001 A 
HETATM   26  C   UNL     1      30.559  44.020  55.850  1.00  0.00     0.017 A 
BRANCH  22  27
HETATM   27  O   UNL     1      28.881  46.476  58.031  1.00  0.00    -0.360 OA
HETATM   28  H   UNL     1      29.311  47.353  57.898  1.00  0.00     0.217 HD
ENDBRANCH  22  27
ENDBRANCH   5  21
TORSDOF 8
ENDMDL
MODEL 5
REMARK VINA RESULT:      -7.9     11.704     13.951
REMARK  8 active torsions:
REMARK  status: ('A' for Active; 'I' for Inactive)
REMARK    1  A    between atoms: C_2  and  C_3 
REMARK    2  A    between atoms: C_3  and  N_4 
REMARK       I    between atoms: N_4  and  C_5 
REMARK    3  A    between atoms: N_4  and  C_20 
REMARK    4  A    between atoms: C_5  and  C_6 
REMARK    5  A    between atoms: C_10  and  C_11 
REMARK    6  A    between atoms: C_12  and  O_13 
REMARK    7  A    between atoms: C_20  and  C_21 
REMARK    8  A    between atoms: C_21  and  C_22 
ROOT
HETATM    1  C   UNL     1      29.930  48.077  40.683  1.00  0.00     0.120 A 
HETATM    2  N   UNL     1      30.461  48.848  39.685  1.00  0.00    -0.272 N 
HETATM    3  H   UNL     1      30.207  48.812  38.700  1.00  0.00     0.189 HD
HETATM    4  N   UNL     1      31.402  49.717  40.087  1.00  0.00    -0.174 NA
HETATM    5  C   UNL     1      31.462  49.551  41.421  1.00  0.00     0.092 A 
HETATM    6  C   UNL     1      30.526  48.560  41.832  1.00  0.00     0.071 A 
ENDROOT
BRANCH   1   7
HETATM    7  C   UNL     1      28.906  47.104  40.377  1.00  0.00     0.271 C 
HETATM    8  N   UNL     1      27.544  47.453  40.405  1.00  0.00    -0.346 N 
HETATM    9  O   UNL     1      29.253  45.955  40.101  1.00  0.00    -0.266 OA
BRANCH   8  10
HETATM   10  C   UNL     1      26.611  46.529  39.746  1.00  0.00     0.126 C 
BRANCH  10  11
HETATM   11  C   UNL     1      25.520  46.004  40.683  1.00  0.00     0.015 C 
HETATM   12  C   UNL     1      26.081  45.289  41.902  1.00  0.00     0.006 C 
ENDBRANCH  10  11
ENDBRANCH   8  10
BRANCH   8  13
HETATM   13  C   UNL     1      27.031  48.741  40.908  1.00  0.00     0.130 C 
BRANCH  13  14
HETATM   14  C   UNL     1      26.859  49.857  39.862  1.00  0.00     0.058 C 
BRANCH  14  15
HETATM   15  C   UNL     1      27.758  51.064  40.039  1.00  0.00    -0.057 A 
HETATM   16  C   UNL     1      28.164  51.418  41.337  1.00  0.00     0.007 A 
HETATM   17  C   UNL     1      29.023  52.497  41.551  1.00  0.00     0.001 A 
HETATM   18  C   UNL     1      29.497  53.236  40.471  1.00  0.00     0.000 A 
HETATM   19  C   UNL     1      29.120  52.887  39.177  1.00  0.00     0.001 A 
HETATM   20  C   UNL     1      28.264  51.803  38.960  1.00  0.00     0.007 A 
ENDBRANCH  14  15
ENDBRANCH  13  14
ENDBRANCH   8  13
ENDBRANCH   1   7
BRANCH   5  21
HETATM   21  C   UNL     1      32.385  50.349  42.244  1.00  0.00     0.028 A 
HETATM   22  C   UNL     1      33.744  50.491  41.907  1.00  0.00     0.078 A 
HETATM   23  C   UNL     1      34.611  51.253  42.689  1.00  0.00     0.037 A 
HETATM   24  C   UNL     1      34.137  51.884  43.836  1.00  0.00     0.003 A 
HETATM   25  C   UNL     1      32.798  51.751  44.197  1.00  0.00     0.001 A 
HETATM   26  C   UNL     1      31.928  50.991  43.408  1.00  0.00     0.017 A 
BRANCH  22  27
HETATM   27  O   UNL     1      34.300  49.896  40.803  1.00  0.00    -0.360 OA
HETATM   28  H   UNL     1      33.591  49.875  40.119  1.00  0.00     0.217 HD
ENDBRANCH  22  27
ENDBRANCH   5  21
TORSDOF 8
ENDMDL
MODEL 6
REMARK VINA RESULT:      -7.9      3.468      6.982
REMARK  8 active torsions:
REMARK  status: ('A' for Active; 'I' for Inactive)
REMARK    1  A    between atoms: C_2  and  C_3 
REMARK    2  A    between atoms: C_3  and  N_4 
REMARK       I    between atoms: N_4  and  C_5 
REMARK    3  A    between atoms: N_4  and  C_20 
REMARK    4  A    between atoms: C_5  and  C_6 
REMARK    5  A    between atoms: C_10  and  C_11 
REMARK    6  A    between atoms: C_12  and  O_13 
REMARK    7  A    between atoms: C_20  and  C_21 
REMARK    8  A    between atoms: C_21  and  C_22 
ROOT
HETATM    1  C   UNL     1      28.296  41.122  52.019  1.00  0.00     0.120 A 
HETATM    2  N   UNL     1      27.592  40.822  53.153  1.00  0.00    -0.272 N 
HETATM    3  H   UNL     1      27.071  39.965  53.327  1.00  0.00     0.189 HD
HETATM    4  N   UNL     1      27.616  41.775  54.098  1.00  0.00    -0.174 NA
HETATM    5  C   UNL     1      28.414  42.731  53.588  1.00  0.00     0.092 A 
HETATM    6  C   UNL     1      28.889  42.337  52.305  1.00  0.00     0.071 A 
ENDROOT
BRANCH   1   7
HETATM    7  C   UNL     1      28.348  40.175  50.929  1.00  0.00     0.271 C 
HETATM    8  N   UNL     1      27.463  40.274  49.841  1.00  0.00    -0.346 N 
HETATM    9  O   UNL     1      29.182  39.270  50.979  1.00  0.00    -0.266 OA
BRANCH   8  10
HETATM   10  C   UNL     1      27.812  39.512  48.634  1.00  0.00     0.126 C 
BRANCH  10  11
HETATM   11  C   UNL     1      26.775  38.444  48.274  1.00  0.00     0.015 C 
HETATM   12  C   UNL     1      26.798  37.254  49.219  1.00  0.00     0.006 C 
ENDBRANCH  10  11
ENDBRANCH   8  10
BRANCH   8  13
HETATM   13  C   UNL     1      26.317  41.199  49.790  1.00  0.00     0.130 C 
BRANCH  13  14
HETATM   14  C   UNL     1      26.607  42.607  49.239  1.00  0.00     0.058 C 
BRANCH  14  15
HETATM   15  C   UNL     1      26.201  43.757  50.139  1.00  0.00    -0.057 A 
HETATM   16  C   UNL     1      26.639  45.053  49.817  1.00  0.00     0.007 A 
HETATM   17  C   UNL     1      26.262  46.152  50.590  1.00  0.00     0.001 A 
HETATM   18  C   UNL     1      25.433  45.975  51.694  1.00  0.00     0.000 A 
HETATM   19  C   UNL     1      24.974  44.701  52.017  1.00  0.00     0.001 A 
HETATM   20  C   UNL     1      25.347  43.600  51.239  1.00  0.00     0.007 A 
ENDBRANCH  14  15
ENDBRANCH  13  14
ENDBRANCH   8  13
ENDBRANCH   1   7
BRANCH   5  21
HETATM   21  C   UNL     1      28.707  43.959  54.345  1.00  0.00     0.028 A 
HETATM   22  C   UNL     1      29.811  44.048  55.213  1.00  0.00     0.078 A 
HETATM   23  C   UNL     1      30.086  45.217  55.923  1.00  0.00     0.037 A 
HETATM   24  C   UNL     1      29.251  46.323  55.787  1.00  0.00     0.003 A 
HETATM   25  C   UNL     1      28.146  46.257  54.940  1.00  0.00     0.001 A 
HETATM   26  C   UNL     1      27.876  45.085  54.225  1.00  0.00     0.017 A 
BRANCH  22  27
HETATM   27  O   UNL     1      30.679  43.006  55.418  1.00  0.00    -0.360 OA
HETATM   28  H   UNL     1      30.368  42.274  54.836  1.00  0.00     0.217 HD
ENDBRANCH  22  27
ENDBRANCH   5  21
TORSDOF 8
ENDMDL
MODEL 7
REMARK VINA RESULT:      -7.8      2.360      3.434
REMARK  8 active torsions:
REMARK  status: ('A' for Active; 'I' for Inactive)
REMARK    1  A    between atoms: C_2  and  C_3 
REMARK    2  A    between atoms: C_3  and  N_4 
REMARK       I    between atoms: N_4  and  C_5 
REMARK    3  A    between atoms: N_4  and  C_20 
REMARK    4  A    between atoms: C_5  and  C_6 
REMARK    5  A    between atoms: C_10  and  C_11 
REMARK    6  A    between atoms: C_12  and  O_13 
REMARK    7  A    between atoms: C_20  and  C_21 
REMARK    8  A    between atoms: C_21  and  C_22 
ROOT
HETATM    1  C   UNL     1      25.752  45.958  50.048  1.00  0.00     0.120 A 
HETATM    2  N   UNL     1      26.307  47.147  50.438  1.00  0.00    -0.272 N 
HETATM    3  H   UNL     1      27.191  47.265  50.926  1.00  0.00     0.189 HD
HETATM    4  N   UNL     1      25.580  48.233  50.128  1.00  0.00    -0.174 NA
HETATM    5  C   UNL     1      24.520  47.747  49.459  1.00  0.00     0.092 A 
HETATM    6  C   UNL     1      24.616  46.329  49.356  1.00  0.00     0.071 A 
ENDROOT
BRANCH   1   7
HETATM    7  C   UNL     1      26.439  44.717  50.322  1.00  0.00     0.271 C 
HETATM    8  N   UNL     1      26.015  43.868  51.360  1.00  0.00    -0.346 N 
HETATM    9  O   UNL     1      27.415  44.422  49.630  1.00  0.00    -0.266 OA
BRANCH   8  10
HETATM   10  C   UNL     1      26.527  42.491  51.338  1.00  0.00     0.126 C 
BRANCH  10  11
HETATM   11  C   UNL     1      27.490  42.188  52.489  1.00  0.00     0.015 C 
HETATM   12  C   UNL     1      28.845  42.857  52.319  1.00  0.00     0.006 C 
ENDBRANCH  10  11
ENDBRANCH   8  10
BRANCH   8  13
HETATM   13  C   UNL     1      24.987  44.228  52.353  1.00  0.00     0.130 C 
BRANCH  13  14
HETATM   14  C   UNL     1      25.449  44.269  53.821  1.00  0.00     0.058 C 
BRANCH  14  15
HETATM   15  C   UNL     1      26.359  45.424  54.187  1.00  0.00    -0.057 A 
HETATM   16  C   UNL     1      25.892  46.737  54.004  1.00  0.00     0.007 A 
HETATM   17  C   UNL     1      26.676  47.835  54.362  1.00  0.00     0.001 A 
HETATM   18  C   UNL     1      27.937  47.640  54.916  1.00  0.00     0.000 A 
HETATM   19  C   UNL     1      28.409  46.346  55.122  1.00  0.00     0.001 A 
HETATM   20  C   UNL     1      27.622  45.245  54.769  1.00  0.00     0.007 A 
ENDBRANCH  14  15
ENDBRANCH  13  14
ENDBRANCH   8  13
ENDBRANCH   1   7
BRANCH   5  21
HETATM   21  C   UNL     1      23.479  48.643  48.930  1.00  0.00     0.028 A 
HETATM   22  C   UNL     1      23.794  49.733  48.097  1.00  0.00     0.078 A 
HETATM   23  C   UNL     1      22.801  50.575  47.595  1.00  0.00     0.037 A 
HETATM   24  C   UNL     1      21.468  50.350  47.927  1.00  0.00     0.003 A 
HETATM   25  C   UNL     1      21.132  49.284  48.758  1.00  0.00     0.001 A 
HETATM   26  C   UNL     1      22.128  48.437  49.256  1.00  0.00     0.017 A 
BRANCH  22  27
HETATM   27  O   UNL     1      25.079  50.037  47.728  1.00  0.00    -0.360 OA
HETATM   28  H   UNL     1      25.275  50.917  48.125  1.00  0.00     0.217 HD
ENDBRANCH  22  27
ENDBRANCH   5  21
TORSDOF 8
ENDMDL
MODEL 8
REMARK VINA RESULT:      -7.8      2.710      7.055
REMARK  8 active torsions:
REMARK  status: ('A' for Active; 'I' for Inactive)
REMARK    1  A    between atoms: C_2  and  C_3 
REMARK    2  A    between atoms: C_3  and  N_4 
REMARK       I    between atoms: N_4  and  C_5 
REMARK    3  A    between atoms: N_4  and  C_20 
REMARK    4  A    between atoms: C_5  and  C_6 
REMARK    5  A    between atoms: C_10  and  C_11 
REMARK    6  A    between atoms: C_12  and  O_13 
REMARK    7  A    between atoms: C_20  and  C_21 
REMARK    8  A    between atoms: C_21  and  C_22 
ROOT
HETATM    1  C   UNL     1      28.246  41.522  52.009  1.00  0.00     0.120 A 
HETATM    2  N   UNL     1      27.264  41.529  52.962  1.00  0.00    -0.272 N 
HETATM    3  H   UNL     1      26.383  41.022  52.920  1.00  0.00     0.189 HD
HETATM    4  N   UNL     1      27.529  42.293  54.034  1.00  0.00    -0.174 NA
HETATM    5  C   UNL     1      28.764  42.774  53.806  1.00  0.00     0.092 A 
HETATM    6  C   UNL     1      29.258  42.280  52.565  1.00  0.00     0.071 A 
ENDROOT
BRANCH   1   7
HETATM    7  C   UNL     1      28.080  40.736  50.808  1.00  0.00     0.271 C 
HETATM    8  N   UNL     1      27.249  41.177  49.763  1.00  0.00    -0.346 N 
HETATM    9  O   UNL     1      28.678  39.663  50.723  1.00  0.00    -0.266 OA
BRANCH   8  10
HETATM   10  C   UNL     1      27.415  40.516  48.461  1.00  0.00     0.126 C 
BRANCH  10  11
HETATM   11  C   UNL     1      26.212  40.702  47.532  1.00  0.00     0.015 C 
HETATM   12  C   UNL     1      26.586  40.636  46.060  1.00  0.00     0.006 C 
ENDBRANCH  10  11
ENDBRANCH   8  10
BRANCH   8  13
HETATM   13  C   UNL     1      26.352  42.344  49.857  1.00  0.00     0.130 C 
BRANCH  13  14
HETATM   14  C   UNL     1      26.996  43.716  49.588  1.00  0.00     0.058 C 
BRANCH  14  15
HETATM   15  C   UNL     1      26.405  44.878  50.361  1.00  0.00    -0.057 A 
HETATM   16  C   UNL     1      25.780  44.621  51.593  1.00  0.00     0.007 A 
HETATM   17  C   UNL     1      25.254  45.661  52.363  1.00  0.00     0.001 A 
HETATM   18  C   UNL     1      25.351  46.975  51.917  1.00  0.00     0.000 A 
HETATM   19  C   UNL     1      25.984  47.250  50.708  1.00  0.00     0.001 A 
HETATM   20  C   UNL     1      26.516  46.211  49.939  1.00  0.00     0.007 A 
ENDBRANCH  14  15
ENDBRANCH  13  14
ENDBRANCH   8  13
ENDBRANCH   1   7
BRANCH   5  21
HETATM   21  C   UNL     1      29.426  43.659  54.778  1.00  0.00     0.028 A 
HETATM   22  C   UNL     1      28.943  44.952  55.050  1.00  0.00     0.078 A 
HETATM   23  C   UNL     1      29.572  45.784  55.976  1.00  0.00     0.037 A 
HETATM   24  C   UNL     1      30.710  45.341  56.646  1.00  0.00     0.003 A 
HETATM   25  C   UNL     1      31.214  44.067  56.387  1.00  0.00     0.001 A 
HETATM   26  C   UNL     1      30.577  43.233  55.461  1.00  0.00     0.017 A 
BRANCH  22  27
HETATM   27  O   UNL     1      27.837  45.476  54.431  1.00  0.00    -0.360 OA
HETATM   28  H   UNL     1      27.361  45.998  55.118  1.00  0.00     0.217 HD
ENDBRANCH  22  27
ENDBRANCH   5  21
TORSDOF 8
ENDMDL
MODEL 9
REMARK VINA RESULT:      -7.7      2.705      6.554
REMARK  8 active torsions:
REMARK  status: ('A' for Active; 'I' for Inactive)
REMARK    1  A    between atoms: C_2  and  C_3 
REMARK    2  A    between atoms: C_3  and  N_4 
REMARK       I    between atoms: N_4  and  C_5 
REMARK    3  A    between atoms: N_4  and  C_20 
REMARK    4  A    between atoms: C_5  and  C_6 
REMARK    5  A    between atoms: C_10  and  C_11 
REMARK    6  A    between atoms: C_12  and  O_13 
REMARK    7  A    between atoms: C_20  and  C_21 
REMARK    8  A    between atoms: C_21  and  C_22 
ROOT
HETATM    1  C   UNL     1      26.113  42.887  50.805  1.00  0.00     0.120 A 
HETATM    2  N   UNL     1      26.164  41.914  51.765  1.00  0.00    -0.272 N 
HETATM    3  H   UNL     1      25.790  41.982  52.709  1.00  0.00     0.189 HD
HETATM    4  N   UNL     1      26.776  40.781  51.384  1.00  0.00    -0.174 NA
HETATM    5  C   UNL     1      27.101  40.994  50.096  1.00  0.00     0.092 A 
HETATM    6  C   UNL     1      26.665  42.287  49.690  1.00  0.00     0.071 A 
ENDROOT
BRANCH   1   7
HETATM    7  C   UNL     1      25.477  44.153  51.093  1.00  0.00     0.271 C 
HETATM    8  N   UNL     1      26.141  45.144  51.838  1.00  0.00    -0.346 N 
HETATM    9  O   UNL     1      24.333  44.341  50.678  1.00  0.00    -0.266 OA
BRANCH   8  10
HETATM   10  C   UNL     1      25.583  46.502  51.777  1.00  0.00     0.126 C 
BRANCH  10  11
HETATM   11  C   UNL     1      26.187  47.352  50.655  1.00  0.00     0.015 C 
HETATM   12  C   UNL     1      25.147  47.845  49.661  1.00  0.00     0.006 C 
ENDBRANCH  10  11
ENDBRANCH   8  10
BRANCH   8  13
HETATM   13  C   UNL     1      27.425  44.934  52.532  1.00  0.00     0.130 C 
BRANCH  13  14
HETATM   14  C   UNL     1      27.342  44.688  54.049  1.00  0.00     0.058 C 
BRANCH  14  15
HETATM   15  C   UNL     1      28.670  44.515  54.757  1.00  0.00    -0.057 A 
HETATM   16  C   UNL     1      29.102  45.522  55.637  1.00  0.00     0.007 A 
HETATM   17  C   UNL     1      30.300  45.394  56.343  1.00  0.00     0.001 A 
HETATM   18  C   UNL     1      31.082  44.253  56.188  1.00  0.00     0.000 A 
HETATM   19  C   UNL     1      30.659  43.237  55.335  1.00  0.00     0.001 A 
HETATM   20  C   UNL     1      29.457  43.361  54.632  1.00  0.00     0.007 A 
ENDBRANCH  14  15
ENDBRANCH  13  14
ENDBRANCH   8  13
ENDBRANCH   1   7
BRANCH   5  21
HETATM   21  C   UNL     1      27.788  39.960  49.306  1.00  0.00     0.028 A 
HETATM   22  C   UNL     1      28.791  39.146  49.864  1.00  0.00     0.078 A 
HETATM   23  C   UNL     1      29.434  38.164  49.110  1.00  0.00     0.037 A 
HETATM   24  C   UNL     1      29.092  37.981  47.773  1.00  0.00     0.003 A 
HETATM   25  C   UNL     1      28.109  38.781  47.195  1.00  0.00     0.001 A 
HETATM   26  C   UNL     1      27.461  39.761  47.954  1.00  0.00     0.017 A 
BRANCH  22  27
HETATM   27  O   UNL     1      29.200  39.263  51.168  1.00  0.00    -0.360 OA
HETATM   28  H   UNL     1      29.078  38.372  51.572  1.00  0.00     0.217 HD
ENDBRANCH  22  27
ENDBRANCH   5  21
TORSDOF 8
ENDMDL
MODEL 10
REMARK VINA RESULT:      -7.7      2.578      3.910
REMARK  8 active torsions:
REMARK  status: ('A' for Active; 'I' for Inactive)
REMARK    1  A    between atoms: C_2  and  C_3 
REMARK    2  A    between atoms: C_3  and  N_4 
REMARK       I    between atoms: N_4  and  C_5 
REMARK    3  A    between atoms: N_4  and  C_20 
REMARK    4  A    between atoms: C_5  and  C_6 
REMARK    5  A    between atoms: C_10  and  C_11 
REMARK    6  A    between atoms: C_12  and  O_13 
REMARK    7  A    between atoms: C_20  and  C_21 
REMARK    8  A    between atoms: C_21  and  C_22 
ROOT
HETATM    1  C   UNL     1      25.295  46.625  49.757  1.00  0.00     0.120 A 
HETATM    2  N   UNL     1      25.677  47.932  49.888  1.00  0.00    -0.272 N 
HETATM    3  H   UNL     1      26.600  48.263  50.158  1.00  0.00     0.189 HD
HETATM    4  N   UNL     1      24.711  48.828  49.629  1.00  0.00    -0.174 NA
HETATM    5  C   UNL     1      23.654  48.082  49.260  1.00  0.00     0.092 A 
HETATM    6  C   UNL     1      23.997  46.700  49.291  1.00  0.00     0.071 A 
ENDROOT
BRANCH   1   7
HETATM    7  C   UNL     1      26.246  45.565  50.007  1.00  0.00     0.271 C 
HETATM    8  N   UNL     1      26.010  44.601  51.002  1.00  0.00    -0.346 N 
HETATM    9  O   UNL     1      27.276  45.532  49.332  1.00  0.00    -0.266 OA
BRANCH   8  10
HETATM   10  C   UNL     1      26.828  43.381  50.948  1.00  0.00     0.126 C 
BRANCH  10  11
HETATM   11  C   UNL     1      26.209  42.278  50.085  1.00  0.00     0.015 C 
HETATM   12  C   UNL     1      26.213  40.920  50.768  1.00  0.00     0.006 C 
ENDBRANCH  10  11
ENDBRANCH   8  10
BRANCH   8  13
HETATM   13  C   UNL     1      24.908  44.674  51.979  1.00  0.00     0.130 C 
BRANCH  13  14
HETATM   14  C   UNL     1      25.287  44.411  53.448  1.00  0.00     0.058 C 
BRANCH  14  15
HETATM   15  C   UNL     1      26.371  45.305  54.013  1.00  0.00    -0.057 A 
HETATM   16  C   UNL     1      26.146  46.691  54.063  1.00  0.00     0.007 A 
HETATM   17  C   UNL     1      27.097  47.555  54.610  1.00  0.00     0.001 A 
HETATM   18  C   UNL     1      28.286  47.046  55.124  1.00  0.00     0.000 A 
HETATM   19  C   UNL     1      28.518  45.673  55.100  1.00  0.00     0.001 A 
HETATM   20  C   UNL     1      27.564  44.807  54.557  1.00  0.00     0.007 A 
ENDBRANCH  14  15
ENDBRANCH  13  14
ENDBRANCH   8  13
ENDBRANCH   1   7
BRANCH   5  21
HETATM   21  C   UNL     1      22.379  48.710  48.876  1.00  0.00     0.028 A 
HETATM   22  C   UNL     1      21.925  49.895  49.485  1.00  0.00     0.078 A 
HETATM   23  C   UNL     1      20.718  50.487  49.113  1.00  0.00     0.037 A 
HETATM   24  C   UNL     1      19.931  49.898  48.126  1.00  0.00     0.003 A 
HETATM   25  C   UNL     1      20.355  48.719  47.516  1.00  0.00     0.001 A 
HETATM   26  C   UNL     1      21.568  48.130  47.887  1.00  0.00     0.017 A 
BRANCH  22  27
HETATM   27  O   UNL     1      22.627  50.538  50.472  1.00  0.00    -0.360 OA
HETATM   28  H   UNL     1      23.371  51.000  50.020  1.00  0.00     0.217 HD
ENDBRANCH  22  27
ENDBRANCH   5  21
TORSDOF 8
ENDMDL
