MODEL 1
REMARK VINA RESULT:      -8.4      0.000      0.000
REMARK  4 active torsions:
REMARK  status: ('A' for Active; 'I' for Inactive)
REMARK    1  A    between atoms: C_6  and  C_7 
REMARK    2  A    between atoms: C_7  and  N_8 
REMARK    3  A    between atoms: C_12  and  C_13 
REMARK    4  A    between atoms: C_15  and  C_16 
ROOT
HETATM    1  N   UNL     1      25.497  46.433  51.499  1.00  0.00    -0.067 N 
HETATM    2  H   UNL     1      24.506  46.699  51.499  1.00  0.00     0.280 HD
HETATM    3  C   UNL     1      25.585  44.989  51.936  1.00  0.00     0.236 C 
HETATM    4  C   UNL     1      25.097  44.841  53.374  1.00  0.00     0.040 C 
HETATM    5  C   UNL     1      25.826  45.764  54.355  1.00  0.00     0.058 C 
HETATM    6  C   UNL     1      25.763  47.210  53.854  1.00  0.00     0.040 C 
HETATM    7  C   UNL     1      26.246  47.368  52.417  1.00  0.00     0.236 C 
ENDROOT
BRANCH   5   8
HETATM    8  C   UNL     1      27.244  45.319  54.551  1.00  0.00     0.108 A 
HETATM    9  N   UNL     1      27.748  44.172  54.148  1.00  0.00    -0.229 NA
HETATM   10  C   UNL     1      29.077  44.158  54.562  1.00  0.00     0.157 A 
HETATM   11  C   UNL     1      29.353  45.344  55.219  1.00  0.00     0.126 A 
HETATM   12  N   UNL     1      28.192  46.067  55.203  1.00  0.00    -0.352 N 
HETATM   13  H   UNL     1      28.059  46.985  55.611  1.00  0.00     0.166 HD
BRANCH  10  14
HETATM   14  C   UNL     1      29.997  42.994  54.300  1.00  0.00     0.436 C 
HETATM   15  F   UNL     1      29.339  41.804  54.348  1.00  0.00    -0.165 F 
HETATM   16  F   UNL     1      30.579  43.076  53.077  1.00  0.00    -0.165 F 
HETATM   17  F   UNL     1      30.997  42.928  55.217  1.00  0.00    -0.165 F 
ENDBRANCH  10  14
ENDBRANCH   5   8
BRANCH   1  18
HETATM   18  C   UNL     1      25.980  46.619  50.069  1.00  0.00     0.275 C 
BRANCH  18  19
HETATM   19  C   UNL     1      25.571  47.915  49.475  1.00  0.00    -0.001 A 
HETATM   20  C   UNL     1      26.403  48.948  49.075  1.00  0.00     0.057 A 
HETATM   21  O   UNL     1      25.673  49.967  48.553  1.00  0.00    -0.320 OA
HETATM   22  C   UNL     1      27.870  49.150  49.100  1.00  0.00     0.077 C 
HETATM   23  C   UNL     1      24.363  49.617  48.634  1.00  0.00     0.050 A 
HETATM   24  C   UNL     1      23.384  50.604  48.130  1.00  0.00     0.076 C 
HETATM   25  C   UNL     1      24.246  48.365  49.198  1.00  0.00     0.043 A 
ENDBRANCH  18  19
ENDBRANCH   1  18
TORSDOF 4
ENDMDL
MODEL 2
REMARK VINA RESULT:      -7.9      1.850      2.837
REMARK  4 active torsions:
REMARK  status: ('A' for Active; 'I' for Inactive)
REMARK    1  A    between atoms: C_6  and  C_7 
REMARK    2  A    between atoms: C_7  and  N_8 
REMARK    3  A    between atoms: C_12  and  C_13 
REMARK    4  A    between atoms: C_15  and  C_16 
ROOT
HETATM    1  N   UNL     1      25.467  45.435  50.499  1.00  0.00    -0.067 N 
HETATM    2  H   UNL     1      24.818  45.487  49.706  1.00  0.00     0.280 HD
HETATM    3  C   UNL     1      26.774  44.876  49.985  1.00  0.00     0.236 C 
HETATM    4  C   UNL     1      26.581  43.446  49.490  1.00  0.00     0.040 C 
HETATM    5  C   UNL     1      25.957  42.524  50.543  1.00  0.00     0.058 C 
HETATM    6  C   UNL     1      24.664  43.146  51.079  1.00  0.00     0.040 C 
HETATM    7  C   UNL     1      24.847  44.576  51.574  1.00  0.00     0.236 C 
ENDROOT
BRANCH   5   8
HETATM    8  C   UNL     1      26.928  42.250  51.652  1.00  0.00     0.108 A 
HETATM    9  N   UNL     1      27.796  43.111  52.139  1.00  0.00    -0.229 NA
HETATM   10  C   UNL     1      28.512  42.436  53.123  1.00  0.00     0.157 A 
HETATM   11  C   UNL     1      28.033  41.140  53.215  1.00  0.00     0.126 A 
HETATM   12  N   UNL     1      27.035  41.037  52.285  1.00  0.00    -0.352 N 
HETATM   13  H   UNL     1      26.485  40.208  52.096  1.00  0.00     0.166 HD
BRANCH  10  14
HETATM   14  C   UNL     1      29.619  43.084  53.912  1.00  0.00     0.436 C 
HETATM   15  F   UNL     1      29.772  42.515  55.138  1.00  0.00    -0.165 F 
HETATM   16  F   UNL     1      30.816  42.983  53.278  1.00  0.00    -0.165 F 
HETATM   17  F   UNL     1      29.384  44.405  54.117  1.00  0.00    -0.165 F 
ENDBRANCH  10  14
ENDBRANCH   5   8
BRANCH   1  18
HETATM   18  C   UNL     1      25.624  46.860  51.004  1.00  0.00     0.275 C 
BRANCH  18  19
HETATM   19  C   UNL     1      25.281  47.885  49.989  1.00  0.00    -0.001 A 
HETATM   20  C   UNL     1      26.166  48.635  49.231  1.00  0.00     0.057 A 
HETATM   21  O   UNL     1      25.487  49.454  48.387  1.00  0.00    -0.320 OA
HETATM   22  C   UNL     1      27.643  48.715  49.161  1.00  0.00     0.077 C 
HETATM   23  C   UNL     1      24.161  49.263  48.607  1.00  0.00     0.050 A 
HETATM   24  C   UNL     1      23.233  50.078  47.796  1.00  0.00     0.076 C 
HETATM   25  C   UNL     1      23.980  48.310  49.586  1.00  0.00     0.043 A 
ENDBRANCH  18  19
ENDBRANCH   1  18
TORSDOF 4
ENDMDL
MODEL 3
REMARK VINA RESULT:      -7.8      2.608      4.205
REMARK  4 active torsions:
REMARK  status: ('A' for Active; 'I' for Inactive)
REMARK    1  A    between atoms: C_6  and  C_7 
REMARK    2  A    between atoms: C_7  and  N_8 
REMARK    3  A    between atoms: C_12  and  C_13 
REMARK    4  A    between atoms: C_15  and  C_16 
ROOT
HETATM    1  N   UNL     1      27.134  43.143  52.449  1.00  0.00    -0.067 N 
HETATM    2  H   UNL     1      27.215  42.359  51.792  1.00  0.00     0.280 HD
HETATM    3  C   UNL     1      28.290  44.082  52.187  1.00  0.00     0.236 C 
HETATM    4  C   UNL     1      29.614  43.391  52.498  1.00  0.00     0.040 C 
HETATM    5  C   UNL     1      29.675  42.819  53.917  1.00  0.00     0.058 C 
HETATM    6  C   UNL     1      28.463  41.916  54.166  1.00  0.00     0.040 C 
HETATM    7  C   UNL     1      27.135  42.596  53.856  1.00  0.00     0.236 C 
ENDROOT
BRANCH   5   8
HETATM    8  C   UNL     1      29.750  43.918  54.932  1.00  0.00     0.108 A 
HETATM    9  N   UNL     1      30.362  43.845  56.095  1.00  0.00    -0.229 NA
HETATM   10  C   UNL     1      30.157  45.068  56.726  1.00  0.00     0.157 A 
HETATM   11  C   UNL     1      29.409  45.882  55.894  1.00  0.00     0.126 A 
HETATM   12  N   UNL     1      29.161  45.147  54.766  1.00  0.00    -0.352 N 
HETATM   13  H   UNL     1      28.629  45.457  53.963  1.00  0.00     0.166 HD
BRANCH  10  14
HETATM   14  C   UNL     1      30.695  45.374  58.100  1.00  0.00     0.436 C 
HETATM   15  F   UNL     1      29.788  45.093  59.076  1.00  0.00    -0.165 F 
HETATM   16  F   UNL     1      31.810  44.652  58.378  1.00  0.00    -0.165 F 
HETATM   17  F   UNL     1      31.021  46.685  58.232  1.00  0.00    -0.165 F 
ENDBRANCH  10  14
ENDBRANCH   5   8
BRANCH   1  18
HETATM   18  C   UNL     1      25.797  43.801  52.153  1.00  0.00     0.275 C 
BRANCH  18  19
HETATM   19  C   UNL     1      25.917  45.227  51.762  1.00  0.00    -0.001 A 
HETATM   20  C   UNL     1      25.963  46.322  52.609  1.00  0.00     0.057 A 
HETATM   21  O   UNL     1      26.102  47.468  51.892  1.00  0.00    -0.320 OA
HETATM   22  C   UNL     1      25.896  46.483  54.080  1.00  0.00     0.077 C 
HETATM   23  C   UNL     1      26.121  47.129  50.577  1.00  0.00     0.050 A 
HETATM   24  C   UNL     1      26.249  48.241  49.612  1.00  0.00     0.076 C 
HETATM   25  C   UNL     1      26.006  45.763  50.442  1.00  0.00     0.043 A 
ENDBRANCH  18  19
ENDBRANCH   1  18
TORSDOF 4
ENDMDL
MODEL 4
REMARK VINA RESULT:      -7.6      2.615      4.288
REMARK  4 active torsions:
REMARK  status: ('A' for Active; 'I' for Inactive)
REMARK    1  A    between atoms: C_6  and  C_7 
REMARK    2  A    between atoms: C_7  and  N_8 
REMARK    3  A    between atoms: C_12  and  C_13 
REMARK    4  A    between atoms: C_15  and  C_16 
ROOT
HETATM    1  N   UNL     1      24.833  43.799  49.830  1.00  0.00    -0.067 N 
HETATM    2  H   UNL     1      24.468  43.617  48.889  1.00  0.00     0.280 HD
HETATM    3  C   UNL     1      26.324  44.016  49.709  1.00  0.00     0.236 C 
HETATM    4  C   UNL     1      27.006  42.743  49.218  1.00  0.00     0.040 C 
HETATM    5  C   UNL     1      26.691  41.519  50.084  1.00  0.00     0.058 C 
HETATM    6  C   UNL     1      25.175  41.361  50.229  1.00  0.00     0.040 C 
HETATM    7  C   UNL     1      24.484  42.628  50.716  1.00  0.00     0.236 C 
ENDROOT
BRANCH   5   8
HETATM    8  C   UNL     1      27.356  41.629  51.422  1.00  0.00     0.108 A 
HETATM    9  N   UNL     1      28.236  42.545  51.766  1.00  0.00    -0.229 NA
HETATM   10  C   UNL     1      28.615  42.258  53.074  1.00  0.00     0.157 A 
HETATM   11  C   UNL     1      27.921  41.141  53.505  1.00  0.00     0.126 A 
HETATM   12  N   UNL     1      27.130  40.756  52.457  1.00  0.00    -0.352 N 
HETATM   13  H   UNL     1      26.501  39.962  52.449  1.00  0.00     0.166 HD
BRANCH  10  14
HETATM   14  C   UNL     1      29.630  43.079  53.826  1.00  0.00     0.436 C 
HETATM   15  F   UNL     1      30.840  43.087  53.204  1.00  0.00    -0.165 F 
HETATM   16  F   UNL     1      29.240  44.374  53.948  1.00  0.00    -0.165 F 
HETATM   17  F   UNL     1      29.834  42.601  55.080  1.00  0.00    -0.165 F 
ENDBRANCH  10  14
ENDBRANCH   5   8
BRANCH   1  18
HETATM   18  C   UNL     1      24.121  45.048  50.322  1.00  0.00     0.275 C 
BRANCH  18  19
HETATM   19  C   UNL     1      24.953  45.884  51.221  1.00  0.00    -0.001 A 
HETATM   20  C   UNL     1      25.543  47.101  50.919  1.00  0.00     0.057 A 
HETATM   21  O   UNL     1      26.209  47.583  52.000  1.00  0.00    -0.320 OA
HETATM   22  C   UNL     1      25.586  47.944  49.702  1.00  0.00     0.077 C 
HETATM   23  C   UNL     1      26.080  46.675  53.001  1.00  0.00     0.050 A 
HETATM   24  C   UNL     1      26.752  46.999  54.277  1.00  0.00     0.076 C 
HETATM   25  C   UNL     1      25.320  45.608  52.572  1.00  0.00     0.043 A 
ENDBRANCH  18  19
ENDBRANCH   1  18
TORSDOF 4
ENDMDL
MODEL 5
REMARK VINA RESULT:      -7.4     11.838     13.405
REMARK  4 active torsions:
REMARK  status: ('A' for Active; 'I' for Inactive)
REMARK    1  A    between atoms: C_6  and  C_7 
REMARK    2  A    between atoms: C_7  and  N_8 
REMARK    3  A    between atoms: C_12  and  C_13 
REMARK    4  A    between atoms: C_15  and  C_16 
ROOT
HETATM    1  N   UNL     1      27.410  51.189  39.345  1.00  0.00    -0.067 N 
HETATM    2  H   UNL     1      26.574  51.727  39.089  1.00  0.00     0.280 HD
HETATM    3  C   UNL     1      27.572  51.283  40.845  1.00  0.00     0.236 C 
HETATM    4  C   UNL     1      27.842  52.726  41.259  1.00  0.00     0.040 C 
HETATM    5  C   UNL     1      29.037  53.348  40.531  1.00  0.00     0.058 C 
HETATM    6  C   UNL     1      28.865  53.188  39.017  1.00  0.00     0.040 C 
HETATM    7  C   UNL     1      28.592  51.750  38.593  1.00  0.00     0.236 C 
ENDROOT
BRANCH   5   8
HETATM    8  C   UNL     1      30.323  52.735  40.998  1.00  0.00     0.108 A 
HETATM    9  N   UNL     1      30.537  52.223  42.191  1.00  0.00    -0.229 NA
HETATM   10  C   UNL     1      31.862  51.800  42.207  1.00  0.00     0.157 A 
HETATM   11  C   UNL     1      32.432  52.068  40.975  1.00  0.00     0.126 A 
HETATM   12  N   UNL     1      31.452  52.655  40.222  1.00  0.00    -0.352 N 
HETATM   13  H   UNL     1      31.552  52.978  39.268  1.00  0.00     0.166 HD
BRANCH  10  14
HETATM   14  C   UNL     1      32.499  51.166  43.417  1.00  0.00     0.436 C 
HETATM   15  F   UNL     1      32.277  51.890  44.547  1.00  0.00    -0.165 F 
HETATM   16  F   UNL     1      32.015  49.918  43.646  1.00  0.00    -0.165 F 
HETATM   17  F   UNL     1      33.844  51.055  43.277  1.00  0.00    -0.165 F 
ENDBRANCH  10  14
ENDBRANCH   5   8
BRANCH   1  18
HETATM   18  C   UNL     1      27.143  49.762  38.895  1.00  0.00     0.275 C 
BRANCH  18  19
HETATM   19  C   UNL     1      28.119  48.785  39.435  1.00  0.00    -0.001 A 
HETATM   20  C   UNL     1      27.840  47.663  40.199  1.00  0.00     0.057 A 
HETATM   21  O   UNL     1      28.985  46.992  40.489  1.00  0.00    -0.320 OA
HETATM   22  C   UNL     1      26.591  47.074  40.736  1.00  0.00     0.077 C 
HETATM   23  C   UNL     1      30.016  47.685  39.941  1.00  0.00     0.050 A 
HETATM   24  C   UNL     1      31.370  47.131  40.156  1.00  0.00     0.076 C 
HETATM   25  C   UNL     1      29.538  48.799  39.285  1.00  0.00     0.043 A 
ENDBRANCH  18  19
ENDBRANCH   1  18
TORSDOF 4
ENDMDL
MODEL 6
REMARK VINA RESULT:      -7.2     12.182     13.906
REMARK  4 active torsions:
REMARK  status: ('A' for Active; 'I' for Inactive)
REMARK    1  A    between atoms: C_6  and  C_7 
REMARK    2  A    between atoms: C_7  and  N_8 
REMARK    3  A    between atoms: C_12  and  C_13 
REMARK    4  A    between atoms: C_15  and  C_16 
ROOT
HETATM    1  N   UNL     1      29.984  52.835  40.734  1.00  0.00    -0.067 N 
HETATM    2  H   UNL     1      29.667  53.811  40.743  1.00  0.00     0.280 HD
HETATM    3  C   UNL     1      29.954  52.358  39.300  1.00  0.00     0.236 C 
HETATM    4  C   UNL     1      28.522  52.353  38.773  1.00  0.00     0.040 C 
HETATM    5  C   UNL     1      27.562  51.543  39.649  1.00  0.00     0.058 C 
HETATM    6  C   UNL     1      27.657  52.016  41.103  1.00  0.00     0.040 C 
HETATM    7  C   UNL     1      29.084  52.027  41.637  1.00  0.00     0.236 C 
ENDROOT
BRANCH   5   8
HETATM    8  C   UNL     1      27.849  50.076  39.537  1.00  0.00     0.108 A 
HETATM    9  N   UNL     1      29.007  49.546  39.210  1.00  0.00    -0.229 NA
HETATM   10  C   UNL     1      28.821  48.167  39.194  1.00  0.00     0.157 A 
HETATM   11  C   UNL     1      27.509  47.889  39.534  1.00  0.00     0.126 A 
HETATM   12  N   UNL     1      26.907  49.099  39.750  1.00  0.00    -0.352 N 
HETATM   13  H   UNL     1      25.939  49.242  40.010  1.00  0.00     0.166 HD
BRANCH  10  14
HETATM   14  C   UNL     1      29.923  47.201  38.844  1.00  0.00     0.436 C 
HETATM   15  F   UNL     1      31.088  47.842  38.552  1.00  0.00    -0.165 F 
HETATM   16  F   UNL     1      30.188  46.347  39.866  1.00  0.00    -0.165 F 
HETATM   17  F   UNL     1      29.606  46.447  37.761  1.00  0.00    -0.165 F 
ENDBRANCH  10  14
ENDBRANCH   5   8
BRANCH   1  18
HETATM   18  C   UNL     1      31.398  52.849  41.293  1.00  0.00     0.275 C 
BRANCH  18  19
HETATM   19  C   UNL     1      31.887  51.505  41.686  1.00  0.00    -0.001 A 
HETATM   20  C   UNL     1      32.278  51.098  42.952  1.00  0.00     0.057 A 
HETATM   21  O   UNL     1      32.641  49.790  42.935  1.00  0.00    -0.320 OA
HETATM   22  C   UNL     1      32.371  51.779  44.263  1.00  0.00     0.077 C 
HETATM   23  C   UNL     1      32.515  49.345  41.658  1.00  0.00     0.050 A 
HETATM   24  C   UNL     1      32.880  47.934  41.412  1.00  0.00     0.076 C 
HETATM   25  C   UNL     1      32.058  50.362  40.849  1.00  0.00     0.043 A 
ENDBRANCH  18  19
ENDBRANCH   1  18
TORSDOF 4
ENDMDL
MODEL 7
REMARK VINA RESULT:      -7.2      4.006      6.723
REMARK  4 active torsions:
REMARK  status: ('A' for Active; 'I' for Inactive)
REMARK    1  A    between atoms: C_6  and  C_7 
REMARK    2  A    between atoms: C_7  and  N_8 
REMARK    3  A    between atoms: C_12  and  C_13 
REMARK    4  A    between atoms: C_15  and  C_16 
ROOT
HETATM    1  N   UNL     1      29.431  43.066  54.460  1.00  0.00    -0.067 N 
HETATM    2  H   UNL     1      29.691  42.152  54.846  1.00  0.00     0.280 HD
HETATM    3  C   UNL     1      27.931  43.206  54.587  1.00  0.00     0.236 C 
HETATM    4  C   UNL     1      27.227  42.158  53.730  1.00  0.00     0.040 C 
HETATM    5  C   UNL     1      27.666  42.186  52.263  1.00  0.00     0.058 C 
HETATM    6  C   UNL     1      29.193  42.097  52.175  1.00  0.00     0.040 C 
HETATM    7  C   UNL     1      29.905  43.138  53.029  1.00  0.00     0.236 C 
ENDROOT
BRANCH   5   8
HETATM    8  C   UNL     1      27.155  43.418  51.578  1.00  0.00     0.108 A 
HETATM    9  N   UNL     1      26.601  44.451  52.176  1.00  0.00    -0.229 NA
HETATM   10  C   UNL     1      26.247  45.345  51.170  1.00  0.00     0.157 A 
HETATM   11  C   UNL     1      26.618  44.814  49.948  1.00  0.00     0.126 A 
HETATM   12  N   UNL     1      27.191  43.601  50.219  1.00  0.00    -0.352 N 
HETATM   13  H   UNL     1      27.563  42.955  49.533  1.00  0.00     0.166 HD
BRANCH  10  14
HETATM   14  C   UNL     1      25.565  46.659  51.454  1.00  0.00     0.436 C 
HETATM   15  F   UNL     1      26.351  47.721  51.131  1.00  0.00    -0.165 F 
HETATM   16  F   UNL     1      24.413  46.791  50.748  1.00  0.00    -0.165 F 
HETATM   17  F   UNL     1      25.248  46.787  52.767  1.00  0.00    -0.165 F 
ENDBRANCH  10  14
ENDBRANCH   5   8
BRANCH   1  18
HETATM   18  C   UNL     1      30.165  44.099  55.299  1.00  0.00     0.275 C 
BRANCH  18  19
HETATM   19  C   UNL     1      29.319  45.257  55.678  1.00  0.00    -0.001 A 
HETATM   20  C   UNL     1      29.228  45.850  56.927  1.00  0.00     0.057 A 
HETATM   21  O   UNL     1      28.370  46.902  56.889  1.00  0.00    -0.320 OA
HETATM   22  C   UNL     1      29.858  45.575  58.239  1.00  0.00     0.077 C 
HETATM   23  C   UNL     1      27.878  46.985  55.626  1.00  0.00     0.050 A 
HETATM   24  C   UNL     1      26.902  48.064  55.368  1.00  0.00     0.076 C 
HETATM   25  C   UNL     1      28.427  45.993  54.842  1.00  0.00     0.043 A 
ENDBRANCH  18  19
ENDBRANCH   1  18
TORSDOF 4
ENDMDL
MODEL 8
REMARK VINA RESULT:      -7.2     12.706     14.884
REMARK  4 active torsions:
REMARK  status: ('A' for Active; 'I' for Inactive)
REMARK    1  A    between atoms: C_6  and  C_7 
REMARK    2  A    between atoms: C_7  and  N_8 
REMARK    3  A    between atoms: C_12  and  C_13 
REMARK    4  A    between atoms: C_15  and  C_16 
ROOT
HETATM    1  N   UNL     1      30.777  51.464  40.945  1.00  0.00    -0.067 N 
HETATM    2  H   UNL     1      31.335  52.325  40.956  1.00  0.00     0.280 HD
HETATM    3  C   UNL     1      30.716  50.976  39.516  1.00  0.00     0.236 C 
HETATM    4  C   UNL     1      29.974  51.984  38.644  1.00  0.00     0.040 C 
HETATM    5  C   UNL     1      28.579  52.326  39.174  1.00  0.00     0.058 C 
HETATM    6  C   UNL     1      28.672  52.765  40.639  1.00  0.00     0.040 C 
HETATM    7  C   UNL     1      29.414  51.766  41.518  1.00  0.00     0.236 C 
ENDROOT
BRANCH   5   8
HETATM    8  C   UNL     1      27.648  51.162  39.015  1.00  0.00     0.108 A 
HETATM    9  N   UNL     1      27.633  50.329  37.996  1.00  0.00    -0.229 NA
HETATM   10  C   UNL     1      26.600  49.429  38.238  1.00  0.00     0.157 A 
HETATM   11  C   UNL     1      26.003  49.747  39.445  1.00  0.00     0.126 A 
HETATM   12  N   UNL     1      26.673  50.838  39.925  1.00  0.00    -0.352 N 
HETATM   13  H   UNL     1      26.474  51.322  40.793  1.00  0.00     0.166 HD
BRANCH  10  14
HETATM   14  C   UNL     1      26.250  48.318  37.283  1.00  0.00     0.436 C 
HETATM   15  F   UNL     1      27.244  47.393  37.190  1.00  0.00    -0.165 F 
HETATM   16  F   UNL     1      25.129  47.656  37.668  1.00  0.00    -0.165 F 
HETATM   17  F   UNL     1      26.029  48.785  36.027  1.00  0.00    -0.165 F 
ENDBRANCH  10  14
ENDBRANCH   5   8
BRANCH   1  18
HETATM   18  C   UNL     1      31.507  50.480  41.845  1.00  0.00     0.275 C 
BRANCH  18  19
HETATM   19  C   UNL     1      32.839  50.963  42.284  1.00  0.00    -0.001 A 
HETATM   20  C   UNL     1      33.147  51.578  43.487  1.00  0.00     0.057 A 
HETATM   21  O   UNL     1      34.475  51.858  43.547  1.00  0.00    -0.320 OA
HETATM   22  C   UNL     1      32.349  51.971  44.671  1.00  0.00     0.077 C 
HETATM   23  C   UNL     1      35.033  51.453  42.378  1.00  0.00     0.050 A 
HETATM   24  C   UNL     1      36.486  51.682  42.226  1.00  0.00     0.076 C 
HETATM   25  C   UNL     1      34.069  50.899  41.564  1.00  0.00     0.043 A 
ENDBRANCH  18  19
ENDBRANCH   1  18
TORSDOF 4
ENDMDL
MODEL 9
REMARK VINA RESULT:      -7.1      4.128      6.913
REMARK  4 active torsions:
REMARK  status: ('A' for Active; 'I' for Inactive)
REMARK    1  A    between atoms: C_6  and  C_7 
REMARK    2  A    between atoms: C_7  and  N_8 
REMARK    3  A    between atoms: C_12  and  C_13 
REMARK    4  A    between atoms: C_15  and  C_16 
ROOT
HETATM    1  N   UNL     1      26.065  44.825  52.399  1.00  0.00    -0.067 N 
HETATM    2  H   UNL     1      25.977  45.846  52.450  1.00  0.00     0.280 HD
HETATM    3  C   UNL     1      27.305  44.512  51.593  1.00  0.00     0.236 C 
HETATM    4  C   UNL     1      27.143  45.004  50.159  1.00  0.00     0.040 C 
HETATM    5  C   UNL     1      25.885  44.462  49.475  1.00  0.00     0.058 C 
HETATM    6  C   UNL     1      24.655  44.750  50.343  1.00  0.00     0.040 C 
HETATM    7  C   UNL     1      24.809  44.264  51.778  1.00  0.00     0.236 C 
ENDROOT
BRANCH   5   8
HETATM    8  C   UNL     1      26.021  42.996  49.196  1.00  0.00     0.108 A 
HETATM    9  N   UNL     1      27.154  42.356  48.999  1.00  0.00    -0.229 NA
HETATM   10  C   UNL     1      26.820  41.029  48.745  1.00  0.00     0.157 A 
HETATM   11  C   UNL     1      25.444  40.895  48.807  1.00  0.00     0.126 A 
HETATM   12  N   UNL     1      24.953  42.139  49.094  1.00  0.00    -0.352 N 
HETATM   13  H   UNL     1      23.975  42.380  49.200  1.00  0.00     0.166 HD
BRANCH  10  14
HETATM   14  C   UNL     1      27.853  39.973  48.452  1.00  0.00     0.436 C 
HETATM   15  F   UNL     1      29.078  40.513  48.205  1.00  0.00    -0.165 F 
HETATM   16  F   UNL     1      28.003  39.112  49.491  1.00  0.00    -0.165 F 
HETATM   17  F   UNL     1      27.522  39.234  47.362  1.00  0.00    -0.165 F 
ENDBRANCH  10  14
ENDBRANCH   5   8
BRANCH   1  18
HETATM   18  C   UNL     1      26.190  44.343  53.835  1.00  0.00     0.275 C 
BRANCH  18  19
HETATM   19  C   UNL     1      27.554  44.509  54.394  1.00  0.00    -0.001 A 
HETATM   20  C   UNL     1      28.140  45.689  54.824  1.00  0.00     0.057 A 
HETATM   21  O   UNL     1      29.391  45.448  55.297  1.00  0.00    -0.320 OA
HETATM   22  C   UNL     1      27.691  47.099  54.870  1.00  0.00     0.077 C 
HETATM   23  C   UNL     1      29.636  44.121  55.154  1.00  0.00     0.050 A 
HETATM   24  C   UNL     1      30.963  43.643  55.596  1.00  0.00     0.076 C 
HETATM   25  C   UNL     1      28.539  43.498  54.599  1.00  0.00     0.043 A 
ENDBRANCH  18  19
ENDBRANCH   1  18
TORSDOF 4
ENDMDL
MODEL 10
REMARK VINA RESULT:      -7.1     11.969     13.324
REMARK  4 active torsions:
REMARK  status: ('A' for Active; 'I' for Inactive)
REMARK    1  A    between atoms: C_6  and  C_7 
REMARK    2  A    between atoms: C_7  and  N_8 
REMARK    3  A    between atoms: C_12  and  C_13 
REMARK    4  A    between atoms: C_15  and  C_16 
ROOT
HETATM    1  N   UNL     1      27.362  51.176  39.180  1.00  0.00    -0.067 N 
HETATM    2  H   UNL     1      26.518  51.745  39.055  1.00  0.00     0.280 HD
HETATM    3  C   UNL     1      27.652  51.104  40.662  1.00  0.00     0.236 C 
HETATM    4  C   UNL     1      27.981  52.491  41.205  1.00  0.00     0.040 C 
HETATM    5  C   UNL     1      29.122  53.178  40.448  1.00  0.00     0.058 C 
HETATM    6  C   UNL     1      28.820  53.186  38.946  1.00  0.00     0.040 C 
HETATM    7  C   UNL     1      28.488  51.805  38.395  1.00  0.00     0.236 C 
ENDROOT
BRANCH   5   8
HETATM    8  C   UNL     1      30.431  52.507  40.736  1.00  0.00     0.108 A 
HETATM    9  N   UNL     1      30.682  51.731  41.768  1.00  0.00    -0.229 NA
HETATM   10  C   UNL     1      32.017  51.352  41.662  1.00  0.00     0.157 A 
HETATM   11  C   UNL     1      32.554  51.921  40.521  1.00  0.00     0.126 A 
HETATM   12  N   UNL     1      31.545  52.644  39.945  1.00  0.00    -0.352 N 
HETATM   13  H   UNL     1      31.616  53.189  39.094  1.00  0.00     0.166 HD
BRANCH  10  14
HETATM   14  C   UNL     1      32.694  50.465  42.675  1.00  0.00     0.436 C 
HETATM   15  F   UNL     1      33.186  49.329  42.109  1.00  0.00    -0.165 F 
HETATM   16  F   UNL     1      33.737  51.091  43.276  1.00  0.00    -0.165 F 
HETATM   17  F   UNL     1      31.838  50.078  43.655  1.00  0.00    -0.165 F 
ENDBRANCH  10  14
ENDBRANCH   5   8
BRANCH   1  18
HETATM   18  C   UNL     1      27.033  49.808  38.603  1.00  0.00     0.275 C 
BRANCH  18  19
HETATM   19  C   UNL     1      25.800  49.213  39.172  1.00  0.00    -0.001 A 
HETATM   20  C   UNL     1      25.719  48.148  40.055  1.00  0.00     0.057 A 
HETATM   21  O   UNL     1      24.423  47.898  40.375  1.00  0.00    -0.320 OA
HETATM   22  C   UNL     1      26.725  47.268  40.693  1.00  0.00     0.077 C 
HETATM   23  C   UNL     1      23.653  48.778  39.685  1.00  0.00     0.050 A 
HETATM   24  C   UNL     1      22.191  48.667  39.878  1.00  0.00     0.076 C 
HETATM   25  C   UNL     1      24.450  49.606  38.926  1.00  0.00     0.043 A 
ENDBRANCH  18  19
ENDBRANCH   1  18
TORSDOF 4
ENDMDL
