MODEL 1
REMARK VINA RESULT:      -9.8      0.000      0.000
REMARK  7 active torsions:
REMARK  status: ('A' for Active; 'I' for Inactive)
REMARK    1  A    between atoms: C_2  and  N_3 
REMARK    2  A    between atoms: C_2  and  C_10 
REMARK    3  A    between atoms: N_11  and  C_12 
REMARK    4  A    between atoms: C_19  and  S_20 
REMARK    5  A    between atoms: S_20  and  C_21 
REMARK    6  A    between atoms: C_21  and  C_22 
REMARK    7  A    between atoms: C_21  and  C_28 
REMARK       I    between atoms: C_22  and  N_23 
REMARK       I    between atoms: N_23  and  C_24 
REMARK       I    between atoms: C_24  and  N_25 
ROOT
HETATM    1  C   UNL     1      23.817  44.958  50.139  1.00  0.00     0.166 A 
HETATM    2  N   UNL     1      24.838  45.746  50.659  1.00  0.00    -0.274 N 
HETATM    3  C   UNL     1      25.119  45.157  51.879  1.00  0.00     0.197 A 
HETATM    4  N   UNL     1      24.299  44.154  52.096  1.00  0.00    -0.122 NA
HETATM    5  N   UNL     1      23.478  44.031  51.011  1.00  0.00    -0.131 NA
ENDROOT
BRANCH   3   6
HETATM    6  S   UNL     1      26.266  45.713  53.052  1.00  0.00    -0.070 SA
BRANCH   6   7
HETATM    7  C   UNL     1      27.174  44.181  53.475  1.00  0.00     0.180 C 
BRANCH   7   8
HETATM    8  C   UNL     1      27.522  43.410  52.191  1.00  0.00     0.244 C 
HETATM    9  N   UNL     1      26.893  42.182  52.051  1.00  0.00    -0.278 N 
HETATM   10  C   UNL     1      26.815  41.385  50.947  1.00  0.00     0.320 C 
HETATM   11  H   UNL     1      26.279  41.858  52.788  1.00  0.00     0.173 HD
HETATM   12  N   UNL     1      27.484  41.789  49.849  1.00  0.00    -0.352 N 
HETATM   13  O   UNL     1      26.129  40.370  50.942  1.00  0.00    -0.247 OA
HETATM   14  H   UNL     1      28.224  42.475  49.940  1.00  0.00     0.160 HD
HETATM   15  H   UNL     1      27.498  41.156  49.060  1.00  0.00     0.160 HD
HETATM   16  O   UNL     1      28.376  43.844  51.410  1.00  0.00    -0.271 OA
ENDBRANCH   7   8
BRANCH   7  17
HETATM   17  C   UNL     1      28.375  44.364  54.398  1.00  0.00    -0.035 A 
HETATM   18  C   UNL     1      28.648  45.544  55.110  1.00  0.00     0.009 A 
HETATM   19  C   UNL     1      29.786  45.648  55.916  1.00  0.00     0.001 A 
HETATM   20  C   UNL     1      30.677  44.584  56.013  1.00  0.00     0.000 A 
HETATM   21  C   UNL     1      30.432  43.411  55.310  1.00  0.00     0.001 A 
HETATM   22  C   UNL     1      29.292  43.300  54.511  1.00  0.00     0.009 A 
ENDBRANCH   7  17
ENDBRANCH   6   7
ENDBRANCH   3   6
BRANCH   2  23
HETATM   23  C   UNL     1      25.438  46.873  50.051  1.00  0.00     0.043 A 
HETATM   24  C   UNL     1      24.663  48.015  49.795  1.00  0.00     0.033 A 
HETATM   25  C   UNL     1      25.252  49.131  49.197  1.00  0.00     0.044 A 
HETATM   26  C   UNL     1      26.601  49.102  48.865  1.00  0.00     0.116 A 
HETATM   27  F   UNL     1      27.159  50.174  48.290  1.00  0.00    -0.206 F 
HETATM   28  C   UNL     1      27.379  47.981  49.128  1.00  0.00     0.044 A 
HETATM   29  C   UNL     1      26.802  46.859  49.727  1.00  0.00     0.033 A 
ENDBRANCH   2  23
BRANCH   1  30
HETATM   30  C   UNL     1      23.285  44.999  48.737  1.00  0.00     0.255 C 
HETATM   31  C   UNL     1      22.998  43.557  48.295  1.00  0.00     0.049 C 
BRANCH  30  32
HETATM   32  N   UNL     1      21.994  45.850  48.662  1.00  0.00    -0.060 N 
HETATM   33  H   UNL     1      21.942  46.324  49.579  1.00  0.00     0.280 HD
HETATM   34  C   UNL     1      22.125  46.953  47.622  1.00  0.00     0.236 C 
HETATM   35  C   UNL     1      20.900  47.854  47.650  1.00  0.00     0.028 C 
HETATM   36  C   UNL     1      19.621  47.060  47.433  1.00  0.00     0.003 C 
HETATM   37  C   UNL     1      19.507  45.945  48.461  1.00  0.00     0.028 C 
HETATM   38  C   UNL     1      20.732  45.042  48.461  1.00  0.00     0.236 C 
ENDBRANCH  30  32
ENDBRANCH   1  30
TORSDOF 7
ENDMDL
MODEL 2
REMARK VINA RESULT:      -8.8      2.948      8.260
REMARK  7 active torsions:
REMARK  status: ('A' for Active; 'I' for Inactive)
REMARK    1  A    between atoms: C_2  and  N_3 
REMARK    2  A    between atoms: C_2  and  C_10 
REMARK    3  A    between atoms: N_11  and  C_12 
REMARK    4  A    between atoms: C_19  and  S_20 
REMARK    5  A    between atoms: S_20  and  C_21 
REMARK    6  A    between atoms: C_21  and  C_22 
REMARK    7  A    between atoms: C_21  and  C_28 
REMARK       I    between atoms: C_22  and  N_23 
REMARK       I    between atoms: N_23  and  C_24 
REMARK       I    between atoms: C_24  and  N_25 
ROOT
HETATM    1  C   UNL     1      24.904  44.364  51.422  1.00  0.00     0.166 A 
HETATM    2  N   UNL     1      24.788  45.214  50.328  1.00  0.00    -0.274 N 
HETATM    3  C   UNL     1      23.608  44.817  49.725  1.00  0.00     0.197 A 
HETATM    4  N   UNL     1      23.101  43.786  50.362  1.00  0.00    -0.122 NA
HETATM    5  N   UNL     1      23.914  43.496  51.420  1.00  0.00    -0.131 NA
ENDROOT
BRANCH   3   6
HETATM    6  S   UNL     1      22.933  45.451  48.262  1.00  0.00    -0.070 SA
BRANCH   6   7
HETATM    7  C   UNL     1      21.694  46.647  48.882  1.00  0.00     0.180 C 
BRANCH   7   8
HETATM    8  C   UNL     1      22.106  48.075  48.489  1.00  0.00     0.244 C 
HETATM    9  N   UNL     1      22.023  49.014  49.505  1.00  0.00    -0.278 N 
HETATM   10  C   UNL     1      22.525  50.282  49.537  1.00  0.00     0.320 C 
HETATM   11  H   UNL     1      21.684  48.725  50.414  1.00  0.00     0.173 HD
HETATM   12  N   UNL     1      23.130  50.733  48.419  1.00  0.00    -0.352 N 
HETATM   13  O   UNL     1      22.466  50.965  50.552  1.00  0.00    -0.247 OA
HETATM   14  H   UNL     1      22.956  50.267  47.537  1.00  0.00     0.160 HD
HETATM   15  H   UNL     1      23.423  51.700  48.413  1.00  0.00     0.160 HD
HETATM   16  O   UNL     1      22.394  48.345  47.317  1.00  0.00    -0.271 OA
ENDBRANCH   7   8
BRANCH   7  17
HETATM   17  C   UNL     1      20.243  46.332  48.529  1.00  0.00    -0.035 A 
HETATM   18  C   UNL     1      19.841  45.214  47.778  1.00  0.00     0.009 A 
HETATM   19  C   UNL     1      18.494  45.006  47.469  1.00  0.00     0.001 A 
HETATM   20  C   UNL     1      17.528  45.915  47.890  1.00  0.00     0.000 A 
HETATM   21  C   UNL     1      17.905  47.033  48.625  1.00  0.00     0.001 A 
HETATM   22  C   UNL     1      19.248  47.240  48.943  1.00  0.00     0.009 A 
ENDBRANCH   7  17
ENDBRANCH   6   7
ENDBRANCH   3   6
BRANCH   2  23
HETATM   23  C   UNL     1      25.681  46.246  49.952  1.00  0.00     0.043 A 
HETATM   24  C   UNL     1      25.245  47.580  49.982  1.00  0.00     0.033 A 
HETATM   25  C   UNL     1      26.124  48.602  49.613  1.00  0.00     0.044 A 
HETATM   26  C   UNL     1      27.421  48.288  49.226  1.00  0.00     0.116 A 
HETATM   27  F   UNL     1      28.256  49.272  48.872  1.00  0.00    -0.206 F 
HETATM   28  C   UNL     1      27.864  46.971  49.208  1.00  0.00     0.044 A 
HETATM   29  C   UNL     1      26.995  45.941  49.575  1.00  0.00     0.033 A 
ENDBRANCH   2  23
BRANCH   1  30
HETATM   30  C   UNL     1      25.876  44.498  52.556  1.00  0.00     0.255 C 
HETATM   31  C   UNL     1      25.079  44.806  53.832  1.00  0.00     0.049 C 
BRANCH  30  32
HETATM   32  N   UNL     1      26.696  43.198  52.736  1.00  0.00    -0.060 N 
HETATM   33  H   UNL     1      25.995  42.483  52.989  1.00  0.00     0.280 HD
HETATM   34  C   UNL     1      27.305  42.748  51.417  1.00  0.00     0.236 C 
HETATM   35  C   UNL     1      28.001  41.406  51.587  1.00  0.00     0.028 C 
HETATM   36  C   UNL     1      29.061  41.462  52.676  1.00  0.00     0.003 C 
HETATM   37  C   UNL     1      28.450  41.935  53.986  1.00  0.00     0.028 C 
HETATM   38  C   UNL     1      27.734  43.269  53.834  1.00  0.00     0.236 C 
ENDBRANCH  30  32
ENDBRANCH   1  30
TORSDOF 7
ENDMDL
MODEL 3
REMARK VINA RESULT:      -8.8     11.630     14.567
REMARK  7 active torsions:
REMARK  status: ('A' for Active; 'I' for Inactive)
REMARK    1  A    between atoms: C_2  and  N_3 
REMARK    2  A    between atoms: C_2  and  C_10 
REMARK    3  A    between atoms: N_11  and  C_12 
REMARK    4  A    between atoms: C_19  and  S_20 
REMARK    5  A    between atoms: S_20  and  C_21 
REMARK    6  A    between atoms: C_21  and  C_22 
REMARK    7  A    between atoms: C_21  and  C_28 
REMARK       I    between atoms: C_22  and  N_23 
REMARK       I    between atoms: N_23  and  C_24 
REMARK       I    between atoms: C_24  and  N_25 
ROOT
HETATM    1  C   UNL     1      32.648  50.125  41.176  1.00  0.00     0.166 A 
HETATM    2  N   UNL     1      31.608  49.873  40.289  1.00  0.00    -0.274 N 
HETATM    3  C   UNL     1      31.578  48.492  40.200  1.00  0.00     0.197 A 
HETATM    4  N   UNL     1      32.550  47.973  40.914  1.00  0.00    -0.122 NA
HETATM    5  N   UNL     1      33.226  48.993  41.522  1.00  0.00    -0.131 NA
ENDROOT
BRANCH   3   6
HETATM    6  S   UNL     1      30.534  47.546  39.192  1.00  0.00    -0.070 SA
BRANCH   6   7
HETATM    7  C   UNL     1      29.116  47.207  40.298  1.00  0.00     0.180 C 
BRANCH   7   8
HETATM    8  C   UNL     1      28.138  48.393  40.268  1.00  0.00     0.244 C 
HETATM    9  N   UNL     1      27.862  48.899  39.007  1.00  0.00    -0.278 N 
HETATM   10  C   UNL     1      26.884  49.773  38.634  1.00  0.00     0.320 C 
HETATM   11  H   UNL     1      28.323  48.491  38.203  1.00  0.00     0.173 HD
HETATM   12  N   UNL     1      26.107  50.280  39.613  1.00  0.00    -0.352 N 
HETATM   13  O   UNL     1      26.693  50.049  37.457  1.00  0.00    -0.247 OA
HETATM   14  H   UNL     1      26.425  50.238  40.573  1.00  0.00     0.160 HD
HETATM   15  H   UNL     1      25.440  50.992  39.348  1.00  0.00     0.160 HD
HETATM   16  O   UNL     1      27.722  48.890  41.321  1.00  0.00    -0.271 OA
ENDBRANCH   7   8
BRANCH   7  17
HETATM   17  C   UNL     1      28.424  45.864  40.083  1.00  0.00    -0.035 A 
HETATM   18  C   UNL     1      27.266  45.456  40.767  1.00  0.00     0.009 A 
HETATM   19  C   UNL     1      26.705  44.196  40.539  1.00  0.00     0.001 A 
HETATM   20  C   UNL     1      27.297  43.317  39.637  1.00  0.00     0.000 A 
HETATM   21  C   UNL     1      28.449  43.696  38.957  1.00  0.00     0.001 A 
HETATM   22  C   UNL     1      29.007  44.956  39.176  1.00  0.00     0.009 A 
ENDBRANCH   7  17
ENDBRANCH   6   7
ENDBRANCH   3   6
BRANCH   2  23
HETATM   23  C   UNL     1      30.780  50.827  39.652  1.00  0.00     0.043 A 
HETATM   24  C   UNL     1      30.856  50.987  38.259  1.00  0.00     0.033 A 
HETATM   25  C   UNL     1      30.040  51.927  37.626  1.00  0.00     0.044 A 
HETATM   26  C   UNL     1      29.157  52.691  38.380  1.00  0.00     0.116 A 
HETATM   27  F   UNL     1      28.379  53.591  37.766  1.00  0.00    -0.206 F 
HETATM   28  C   UNL     1      29.065  52.528  39.757  1.00  0.00     0.044 A 
HETATM   29  C   UNL     1      29.875  51.591  40.401  1.00  0.00     0.033 A 
ENDBRANCH   2  23
BRANCH   1  30
HETATM   30  C   UNL     1      32.974  51.442  41.816  1.00  0.00     0.255 C 
HETATM   31  C   UNL     1      33.080  51.221  43.332  1.00  0.00     0.049 C 
BRANCH  30  32
HETATM   32  N   UNL     1      34.303  52.009  41.263  1.00  0.00    -0.060 N 
HETATM   33  H   UNL     1      34.219  53.032  41.386  1.00  0.00     0.280 HD
HETATM   34  C   UNL     1      35.483  51.575  42.120  1.00  0.00     0.236 C 
HETATM   35  C   UNL     1      36.761  52.243  41.637  1.00  0.00     0.028 C 
HETATM   36  C   UNL     1      37.025  51.942  40.170  1.00  0.00     0.003 C 
HETATM   37  C   UNL     1      35.834  52.357  39.321  1.00  0.00     0.028 C 
HETATM   38  C   UNL     1      34.540  51.713  39.800  1.00  0.00     0.236 C 
ENDBRANCH  30  32
ENDBRANCH   1  30
TORSDOF 7
ENDMDL
MODEL 4
REMARK VINA RESULT:      -8.7     18.357     20.297
REMARK  7 active torsions:
REMARK  status: ('A' for Active; 'I' for Inactive)
REMARK    1  A    between atoms: C_2  and  N_3 
REMARK    2  A    between atoms: C_2  and  C_10 
REMARK    3  A    between atoms: N_11  and  C_12 
REMARK    4  A    between atoms: C_19  and  S_20 
REMARK    5  A    between atoms: S_20  and  C_21 
REMARK    6  A    between atoms: C_21  and  C_22 
REMARK    7  A    between atoms: C_21  and  C_28 
REMARK       I    between atoms: C_22  and  N_23 
REMARK       I    between atoms: N_23  and  C_24 
REMARK       I    between atoms: C_24  and  N_25 
ROOT
HETATM    1  C   UNL     1      38.281  47.273  65.030  1.00  0.00     0.166 A 
HETATM    2  N   UNL     1      38.768  46.044  64.598  1.00  0.00    -0.274 N 
HETATM    3  C   UNL     1      37.713  45.503  63.884  1.00  0.00     0.197 A 
HETATM    4  N   UNL     1      36.673  46.304  63.941  1.00  0.00    -0.122 NA
HETATM    5  N   UNL     1      37.023  47.409  64.663  1.00  0.00    -0.131 NA
ENDROOT
BRANCH   3   6
HETATM    6  S   UNL     1      37.666  43.941  63.137  1.00  0.00    -0.070 SA
BRANCH   6   7
HETATM    7  C   UNL     1      37.919  42.816  64.558  1.00  0.00     0.180 C 
BRANCH   7   8
HETATM    8  C   UNL     1      36.628  42.725  65.387  1.00  0.00     0.244 C 
HETATM    9  N   UNL     1      36.420  43.772  66.272  1.00  0.00    -0.278 N 
HETATM   10  C   UNL     1      35.288  44.094  66.961  1.00  0.00     0.320 C 
HETATM   11  H   UNL     1      37.117  44.503  66.341  1.00  0.00     0.173 HD
HETATM   12  N   UNL     1      34.234  43.262  66.836  1.00  0.00    -0.352 N 
HETATM   13  O   UNL     1      35.219  45.118  67.630  1.00  0.00    -0.247 OA
HETATM   14  H   UNL     1      34.381  42.320  66.493  1.00  0.00     0.160 HD
HETATM   15  H   UNL     1      33.427  43.451  67.414  1.00  0.00     0.160 HD
HETATM   16  O   UNL     1      35.901  41.728  65.310  1.00  0.00    -0.271 OA
ENDBRANCH   7   8
BRANCH   7  17
HETATM   17  C   UNL     1      38.499  41.447  64.215  1.00  0.00    -0.035 A 
HETATM   18  C   UNL     1      38.766  40.444  65.162  1.00  0.00     0.009 A 
HETATM   19  C   UNL     1      39.326  39.223  64.775  1.00  0.00     0.001 A 
HETATM   20  C   UNL     1      39.643  38.987  63.441  1.00  0.00     0.000 A 
HETATM   21  C   UNL     1      39.397  39.969  62.489  1.00  0.00     0.001 A 
HETATM   22  C   UNL     1      38.830  41.186  62.870  1.00  0.00     0.009 A 
ENDBRANCH   7  17
ENDBRANCH   6   7
ENDBRANCH   3   6
BRANCH   2  23
HETATM   23  C   UNL     1      40.054  45.506  64.837  1.00  0.00     0.043 A 
HETATM   24  C   UNL     1      41.009  45.515  63.807  1.00  0.00     0.033 A 
HETATM   25  C   UNL     1      42.281  44.987  64.040  1.00  0.00     0.044 A 
HETATM   26  C   UNL     1      42.590  44.461  65.288  1.00  0.00     0.116 A 
HETATM   27  F   UNL     1      43.810  43.954  65.503  1.00  0.00    -0.206 F 
HETATM   28  C   UNL     1      41.656  44.462  66.317  1.00  0.00     0.044 A 
HETATM   29  C   UNL     1      40.381  44.989  66.097  1.00  0.00     0.033 A 
ENDBRANCH   2  23
BRANCH   1  30
HETATM   30  C   UNL     1      39.079  48.379  65.652  1.00  0.00     0.255 C 
HETATM   31  C   UNL     1      39.946  49.014  64.555  1.00  0.00     0.049 C 
BRANCH  30  32
HETATM   32  N   UNL     1      38.149  49.443  66.283  1.00  0.00    -0.060 N 
HETATM   33  H   UNL     1      37.243  49.311  65.804  1.00  0.00     0.280 HD
HETATM   34  C   UNL     1      37.897  49.147  67.754  1.00  0.00     0.236 C 
HETATM   35  C   UNL     1      36.884  50.127  68.325  1.00  0.00     0.028 C 
HETATM   36  C   UNL     1      37.337  51.567  68.137  1.00  0.00     0.003 C 
HETATM   37  C   UNL     1      37.608  51.850  66.668  1.00  0.00     0.028 C 
HETATM   38  C   UNL     1      38.607  50.868  66.072  1.00  0.00     0.236 C 
ENDBRANCH  30  32
ENDBRANCH   1  30
TORSDOF 7
ENDMDL
MODEL 5
REMARK VINA RESULT:      -8.7      3.202      7.758
REMARK  7 active torsions:
REMARK  status: ('A' for Active; 'I' for Inactive)
REMARK    1  A    between atoms: C_2  and  N_3 
REMARK    2  A    between atoms: C_2  and  C_10 
REMARK    3  A    between atoms: N_11  and  C_12 
REMARK    4  A    between atoms: C_19  and  S_20 
REMARK    5  A    between atoms: S_20  and  C_21 
REMARK    6  A    between atoms: C_21  and  C_22 
REMARK    7  A    between atoms: C_21  and  C_28 
REMARK       I    between atoms: C_22  and  N_23 
REMARK       I    between atoms: N_23  and  C_24 
REMARK       I    between atoms: C_24  and  N_25 
ROOT
HETATM    1  C   UNL     1      27.290  43.109  52.738  1.00  0.00     0.166 A 
HETATM    2  N   UNL     1      26.609  43.180  51.527  1.00  0.00    -0.274 N 
HETATM    3  C   UNL     1      26.608  41.873  51.072  1.00  0.00     0.197 A 
HETATM    4  N   UNL     1      27.282  41.107  51.900  1.00  0.00    -0.122 NA
HETATM    5  N   UNL     1      27.716  41.879  52.940  1.00  0.00    -0.131 NA
ENDROOT
BRANCH   3   6
HETATM    6  S   UNL     1      25.964  41.305  49.568  1.00  0.00    -0.070 SA
BRANCH   6   7
HETATM    7  C   UNL     1      27.452  40.669  48.715  1.00  0.00     0.180 C 
BRANCH   7   8
HETATM    8  C   UNL     1      27.797  39.268  49.244  1.00  0.00     0.244 C 
HETATM    9  N   UNL     1      29.149  39.024  49.430  1.00  0.00    -0.278 N 
HETATM   10  C   UNL     1      29.746  37.989  50.089  1.00  0.00     0.320 C 
HETATM   11  H   UNL     1      29.816  39.748  49.192  1.00  0.00     0.173 HD
HETATM   12  N   UNL     1      28.941  37.025  50.577  1.00  0.00    -0.352 N 
HETATM   13  O   UNL     1      30.958  37.962  50.265  1.00  0.00    -0.247 OA
HETATM   14  H   UNL     1      27.997  36.935  50.219  1.00  0.00     0.160 HD
HETATM   15  H   UNL     1      29.388  36.216  50.988  1.00  0.00     0.160 HD
HETATM   16  O   UNL     1      26.913  38.416  49.391  1.00  0.00    -0.271 OA
ENDBRANCH   7   8
BRANCH   7  17
HETATM   17  C   UNL     1      27.411  40.732  47.190  1.00  0.00    -0.035 A 
HETATM   18  C   UNL     1      28.542  40.920  46.378  1.00  0.00     0.009 A 
HETATM   19  C   UNL     1      28.422  40.996  44.988  1.00  0.00     0.001 A 
HETATM   20  C   UNL     1      27.171  40.902  44.385  1.00  0.00     0.000 A 
HETATM   21  C   UNL     1      26.037  40.726  45.169  1.00  0.00     0.001 A 
HETATM   22  C   UNL     1      26.154  40.640  46.557  1.00  0.00     0.009 A 
ENDBRANCH   7  17
ENDBRANCH   6   7
ENDBRANCH   3   6
BRANCH   2  23
HETATM   23  C   UNL     1      26.046  44.333  50.933  1.00  0.00     0.043 A 
HETATM   24  C   UNL     1      26.875  45.223  50.232  1.00  0.00     0.033 A 
HETATM   25  C   UNL     1      26.324  46.362  49.641  1.00  0.00     0.044 A 
HETATM   26  C   UNL     1      24.959  46.602  49.749  1.00  0.00     0.116 A 
HETATM   27  F   UNL     1      24.438  47.696  49.183  1.00  0.00    -0.206 F 
HETATM   28  C   UNL     1      24.129  45.718  50.428  1.00  0.00     0.044 A 
HETATM   29  C   UNL     1      24.669  44.574  51.022  1.00  0.00     0.033 A 
ENDBRANCH   2  23
BRANCH   1  30
HETATM   30  C   UNL     1      27.385  44.190  53.772  1.00  0.00     0.255 C 
HETATM   31  C   UNL     1      26.399  43.856  54.901  1.00  0.00     0.049 C 
BRANCH  30  32
HETATM   32  N   UNL     1      28.824  44.295  54.331  1.00  0.00    -0.060 N 
HETATM   33  H   UNL     1      29.379  44.674  53.546  1.00  0.00     0.280 HD
HETATM   34  C   UNL     1      28.905  45.328  55.444  1.00  0.00     0.236 C 
HETATM   35  C   UNL     1      30.347  45.508  55.894  1.00  0.00     0.028 C 
HETATM   36  C   UNL     1      30.959  44.189  56.340  1.00  0.00     0.003 C 
HETATM   37  C   UNL     1      30.854  43.154  55.230  1.00  0.00     0.028 C 
HETATM   38  C   UNL     1      29.420  42.972  54.754  1.00  0.00     0.236 C 
ENDBRANCH  30  32
ENDBRANCH   1  30
TORSDOF 7
ENDMDL
MODEL 6
REMARK VINA RESULT:      -8.5      4.151      6.619
REMARK  7 active torsions:
REMARK  status: ('A' for Active; 'I' for Inactive)
REMARK    1  A    between atoms: C_2  and  N_3 
REMARK    2  A    between atoms: C_2  and  C_10 
REMARK    3  A    between atoms: N_11  and  C_12 
REMARK    4  A    between atoms: C_19  and  S_20 
REMARK    5  A    between atoms: S_20  and  C_21 
REMARK    6  A    between atoms: C_21  and  C_22 
REMARK    7  A    between atoms: C_21  and  C_28 
REMARK       I    between atoms: C_22  and  N_23 
REMARK       I    between atoms: N_23  and  C_24 
REMARK       I    between atoms: C_24  and  N_25 
ROOT
HETATM    1  C   UNL     1      25.045  41.691  47.597  1.00  0.00     0.166 A 
HETATM    2  N   UNL     1      25.759  41.442  48.764  1.00  0.00    -0.274 N 
HETATM    3  C   UNL     1      25.242  42.352  49.669  1.00  0.00     0.197 A 
HETATM    4  N   UNL     1      24.351  43.116  49.079  1.00  0.00    -0.122 NA
HETATM    5  N   UNL     1      24.230  42.710  47.781  1.00  0.00    -0.131 NA
ENDROOT
BRANCH   3   6
HETATM    6  S   UNL     1      25.764  42.593  51.302  1.00  0.00    -0.070 SA
BRANCH   6   7
HETATM    7  C   UNL     1      27.329  43.516  51.085  1.00  0.00     0.180 C 
BRANCH   7   8
HETATM    8  C   UNL     1      27.032  44.930  50.562  1.00  0.00     0.244 C 
HETATM    9  N   UNL     1      26.098  45.646  51.295  1.00  0.00    -0.278 N 
HETATM   10  C   UNL     1      25.798  46.975  51.227  1.00  0.00     0.320 C 
HETATM   11  H   UNL     1      25.659  45.206  52.094  1.00  0.00     0.173 HD
HETATM   12  N   UNL     1      26.431  47.701  50.284  1.00  0.00    -0.352 N 
HETATM   13  O   UNL     1      25.020  47.493  52.019  1.00  0.00    -0.247 OA
HETATM   14  H   UNL     1      26.868  47.229  49.502  1.00  0.00     0.160 HD
HETATM   15  H   UNL     1      26.145  48.665  50.176  1.00  0.00     0.160 HD
HETATM   16  O   UNL     1      27.538  45.329  49.506  1.00  0.00    -0.271 OA
ENDBRANCH   7   8
BRANCH   7  17
HETATM   17  C   UNL     1      28.263  43.516  52.293  1.00  0.00    -0.035 A 
HETATM   18  C   UNL     1      29.457  42.780  52.366  1.00  0.00     0.009 A 
HETATM   19  C   UNL     1      30.247  42.807  53.519  1.00  0.00     0.001 A 
HETATM   20  C   UNL     1      29.853  43.557  54.622  1.00  0.00     0.000 A 
HETATM   21  C   UNL     1      28.670  44.285  54.576  1.00  0.00     0.001 A 
HETATM   22  C   UNL     1      27.883  44.267  53.424  1.00  0.00     0.009 A 
ENDBRANCH   7  17
ENDBRANCH   6   7
ENDBRANCH   3   6
BRANCH   2  23
HETATM   23  C   UNL     1      26.765  40.466  48.954  1.00  0.00     0.043 A 
HETATM   24  C   UNL     1      28.102  40.787  48.667  1.00  0.00     0.033 A 
HETATM   25  C   UNL     1      29.099  39.827  48.856  1.00  0.00     0.044 A 
HETATM   26  C   UNL     1      28.760  38.566  49.330  1.00  0.00     0.116 A 
HETATM   27  F   UNL     1      29.720  37.651  49.506  1.00  0.00    -0.206 F 
HETATM   28  C   UNL     1      27.441  38.245  49.631  1.00  0.00     0.044 A 
HETATM   29  C   UNL     1      26.435  39.197  49.448  1.00  0.00     0.033 A 
ENDBRANCH   2  23
BRANCH   1  30
HETATM   30  C   UNL     1      25.031  40.842  46.361  1.00  0.00     0.255 C 
HETATM   31  C   UNL     1      23.647  40.972  45.711  1.00  0.00     0.049 C 
BRANCH  30  32
HETATM   32  N   UNL     1      26.132  41.292  45.371  1.00  0.00    -0.060 N 
HETATM   33  H   UNL     1      26.571  42.110  45.826  1.00  0.00     0.280 HD
HETATM   34  C   UNL     1      27.223  40.239  45.250  1.00  0.00     0.236 C 
HETATM   35  C   UNL     1      28.356  40.750  44.372  1.00  0.00     0.028 C 
HETATM   36  C   UNL     1      27.852  41.162  42.998  1.00  0.00     0.003 C 
HETATM   37  C   UNL     1      26.747  42.198  43.127  1.00  0.00     0.028 C 
HETATM   38  C   UNL     1      25.610  41.713  44.016  1.00  0.00     0.236 C 
ENDBRANCH  30  32
ENDBRANCH   1  30
TORSDOF 7
ENDMDL
MODEL 7
REMARK VINA RESULT:      -8.2      5.972     10.724
REMARK  7 active torsions:
REMARK  status: ('A' for Active; 'I' for Inactive)
REMARK    1  A    between atoms: C_2  and  N_3 
REMARK    2  A    between atoms: C_2  and  C_10 
REMARK    3  A    between atoms: N_11  and  C_12 
REMARK    4  A    between atoms: C_19  and  S_20 
REMARK    5  A    between atoms: S_20  and  C_21 
REMARK    6  A    between atoms: C_21  and  C_22 
REMARK    7  A    between atoms: C_21  and  C_28 
REMARK       I    between atoms: C_22  and  N_23 
REMARK       I    between atoms: N_23  and  C_24 
REMARK       I    between atoms: C_24  and  N_25 
ROOT
HETATM    1  C   UNL     1      21.803  48.758  47.854  1.00  0.00     0.166 A 
HETATM    2  N   UNL     1      20.429  48.854  48.045  1.00  0.00    -0.274 N 
HETATM    3  C   UNL     1      19.957  47.607  47.674  1.00  0.00     0.197 A 
HETATM    4  N   UNL     1      20.947  46.861  47.239  1.00  0.00    -0.122 NA
HETATM    5  N   UNL     1      22.103  47.581  47.344  1.00  0.00    -0.131 NA
ENDROOT
BRANCH   3   6
HETATM    6  S   UNL     1      18.300  47.105  47.624  1.00  0.00    -0.070 SA
BRANCH   6   7
HETATM    7  C   UNL     1      17.706  47.853  46.062  1.00  0.00     0.180 C 
BRANCH   7   8
HETATM    8  C   UNL     1      16.818  46.850  45.309  1.00  0.00     0.244 C 
HETATM    9  N   UNL     1      17.387  45.605  45.091  1.00  0.00    -0.278 N 
HETATM   10  C   UNL     1      16.787  44.455  44.670  1.00  0.00     0.320 C 
HETATM   11  H   UNL     1      18.334  45.436  45.408  1.00  0.00     0.173 HD
HETATM   12  N   UNL     1      15.479  44.525  44.351  1.00  0.00    -0.352 N 
HETATM   13  O   UNL     1      17.401  43.396  44.626  1.00  0.00    -0.247 OA
HETATM   14  H   UNL     1      15.061  45.428  44.159  1.00  0.00     0.160 HD
HETATM   15  H   UNL     1      15.057  43.696  43.956  1.00  0.00     0.160 HD
HETATM   16  O   UNL     1      15.718  47.197  44.863  1.00  0.00    -0.271 OA
ENDBRANCH   7   8
BRANCH   7  17
HETATM   17  C   UNL     1      17.061  49.230  46.199  1.00  0.00    -0.035 A 
HETATM   18  C   UNL     1      17.299  50.301  45.322  1.00  0.00     0.009 A 
HETATM   19  C   UNL     1      16.693  51.544  45.528  1.00  0.00     0.001 A 
HETATM   20  C   UNL     1      15.852  51.743  46.619  1.00  0.00     0.000 A 
HETATM   21  C   UNL     1      15.610  50.699  47.505  1.00  0.00     0.001 A 
HETATM   22  C   UNL     1      16.207  49.455  47.297  1.00  0.00     0.009 A 
ENDBRANCH   7  17
ENDBRANCH   6   7
ENDBRANCH   3   6
BRANCH   2  23
HETATM   23  C   UNL     1      19.712  49.975  48.524  1.00  0.00     0.043 A 
HETATM   24  C   UNL     1      19.770  51.186  47.816  1.00  0.00     0.033 A 
HETATM   25  C   UNL     1      19.062  52.295  48.284  1.00  0.00     0.044 A 
HETATM   26  C   UNL     1      18.302  52.188  49.442  1.00  0.00     0.116 A 
HETATM   27  F   UNL     1      17.628  53.255  49.886  1.00  0.00    -0.206 F 
HETATM   28  C   UNL     1      18.227  50.988  50.141  1.00  0.00     0.044 A 
HETATM   29  C   UNL     1      18.930  49.872  49.682  1.00  0.00     0.033 A 
ENDBRANCH   2  23
BRANCH   1  30
HETATM   30  C   UNL     1      22.838  49.739  48.316  1.00  0.00     0.255 C 
HETATM   31  C   UNL     1      22.385  50.305  49.670  1.00  0.00     0.049 C 
BRANCH  30  32
HETATM   32  N   UNL     1      24.221  49.059  48.455  1.00  0.00    -0.060 N 
HETATM   33  H   UNL     1      24.304  48.467  47.612  1.00  0.00     0.280 HD
HETATM   34  C   UNL     1      25.345  50.080  48.369  1.00  0.00     0.236 C 
HETATM   35  C   UNL     1      26.696  49.380  48.381  1.00  0.00     0.028 C 
HETATM   36  C   UNL     1      26.859  48.506  49.615  1.00  0.00     0.003 C 
HETATM   37  C   UNL     1      25.719  47.503  49.707  1.00  0.00     0.028 C 
HETATM   38  C   UNL     1      24.357  48.181  49.679  1.00  0.00     0.236 C 
ENDBRANCH  30  32
ENDBRANCH   1  30
TORSDOF 7
ENDMDL
MODEL 8
REMARK VINA RESULT:      -8.0     18.100     21.477
REMARK  7 active torsions:
REMARK  status: ('A' for Active; 'I' for Inactive)
REMARK    1  A    between atoms: C_2  and  N_3 
REMARK    2  A    between atoms: C_2  and  C_10 
REMARK    3  A    between atoms: N_11  and  C_12 
REMARK    4  A    between atoms: C_19  and  S_20 
REMARK    5  A    between atoms: S_20  and  C_21 
REMARK    6  A    between atoms: C_21  and  C_22 
REMARK    7  A    between atoms: C_21  and  C_28 
REMARK       I    between atoms: C_22  and  N_23 
REMARK       I    between atoms: N_23  and  C_24 
REMARK       I    between atoms: C_24  and  N_25 
ROOT
HETATM    1  C   UNL     1      42.192  45.972  64.658  1.00  0.00     0.166 A 
HETATM    2  N   UNL     1      40.817  46.122  64.513  1.00  0.00    -0.274 N 
HETATM    3  C   UNL     1      40.436  45.000  63.799  1.00  0.00     0.197 A 
HETATM    4  N   UNL     1      41.493  44.282  63.489  1.00  0.00    -0.122 NA
HETATM    5  N   UNL     1      42.594  44.892  64.020  1.00  0.00    -0.131 NA
ENDROOT
BRANCH   3   6
HETATM    6  S   UNL     1      38.841  44.627  63.237  1.00  0.00    -0.070 SA
BRANCH   6   7
HETATM    7  C   UNL     1      38.266  43.399  64.467  1.00  0.00     0.180 C 
BRANCH   7   8
HETATM    8  C   UNL     1      36.756  43.564  64.701  1.00  0.00     0.244 C 
HETATM    9  N   UNL     1      36.095  42.420  65.121  1.00  0.00    -0.278 N 
HETATM   10  C   UNL     1      34.833  42.301  65.624  1.00  0.00     0.320 C 
HETATM   11  H   UNL     1      36.619  41.560  65.223  1.00  0.00     0.173 HD
HETATM   12  N   UNL     1      34.081  43.418  65.669  1.00  0.00    -0.352 N 
HETATM   13  O   UNL     1      34.419  41.232  66.056  1.00  0.00    -0.247 OA
HETATM   14  H   UNL     1      34.336  44.215  65.097  1.00  0.00     0.160 HD
HETATM   15  H   UNL     1      33.118  43.313  65.959  1.00  0.00     0.160 HD
HETATM   16  O   UNL     1      36.192  44.632  64.433  1.00  0.00    -0.271 OA
ENDBRANCH   7   8
BRANCH   7  17
HETATM   17  C   UNL     1      38.666  41.953  64.185  1.00  0.00    -0.035 A 
HETATM   18  C   UNL     1      38.878  40.986  65.182  1.00  0.00     0.009 A 
HETATM   19  C   UNL     1      39.272  39.687  64.848  1.00  0.00     0.001 A 
HETATM   20  C   UNL     1      39.474  39.334  63.518  1.00  0.00     0.000 A 
HETATM   21  C   UNL     1      39.280  40.278  62.516  1.00  0.00     0.001 A 
HETATM   22  C   UNL     1      38.878  41.574  62.844  1.00  0.00     0.009 A 
ENDBRANCH   7  17
ENDBRANCH   6   7
ENDBRANCH   3   6
BRANCH   2  23
HETATM   23  C   UNL     1      40.019  47.181  65.006  1.00  0.00     0.043 A 
HETATM   24  C   UNL     1      39.125  46.938  66.060  1.00  0.00     0.033 A 
HETATM   25  C   UNL     1      38.336  47.981  66.551  1.00  0.00     0.044 A 
HETATM   26  C   UNL     1      38.448  49.249  65.995  1.00  0.00     0.116 A 
HETATM   27  F   UNL     1      37.688  50.243  66.470  1.00  0.00    -0.206 F 
HETATM   28  C   UNL     1      39.342  49.501  64.961  1.00  0.00     0.044 A 
HETATM   29  C   UNL     1      40.137  48.467  64.463  1.00  0.00     0.033 A 
ENDBRANCH   2  23
BRANCH   1  30
HETATM   30  C   UNL     1      43.088  46.780  65.548  1.00  0.00     0.255 C 
HETATM   31  C   UNL     1      42.809  46.371  67.001  1.00  0.00     0.049 C 
BRANCH  30  32
HETATM   32  N   UNL     1      44.576  46.538  65.199  1.00  0.00    -0.060 N 
HETATM   33  H   UNL     1      44.575  46.330  64.187  1.00  0.00     0.280 HD
HETATM   34  C   UNL     1      45.393  47.810  65.370  1.00  0.00     0.236 C 
HETATM   35  C   UNL     1      46.824  47.586  64.903  1.00  0.00     0.028 C 
HETATM   36  C   UNL     1      47.475  46.427  65.643  1.00  0.00     0.003 C 
HETATM   37  C   UNL     1      46.641  45.164  65.488  1.00  0.00     0.028 C 
HETATM   38  C   UNL     1      45.201  45.372  65.933  1.00  0.00     0.236 C 
ENDBRANCH  30  32
ENDBRANCH   1  30
TORSDOF 7
ENDMDL
MODEL 9
REMARK VINA RESULT:      -8.0      3.224      6.116
REMARK  7 active torsions:
REMARK  status: ('A' for Active; 'I' for Inactive)
REMARK    1  A    between atoms: C_2  and  N_3 
REMARK    2  A    between atoms: C_2  and  C_10 
REMARK    3  A    between atoms: N_11  and  C_12 
REMARK    4  A    between atoms: C_19  and  S_20 
REMARK    5  A    between atoms: S_20  and  C_21 
REMARK    6  A    between atoms: C_21  and  C_22 
REMARK    7  A    between atoms: C_21  and  C_28 
REMARK       I    between atoms: C_22  and  N_23 
REMARK       I    between atoms: N_23  and  C_24 
REMARK       I    between atoms: C_24  and  N_25 
ROOT
HETATM    1  C   UNL     1      25.773  45.482  49.892  1.00  0.00     0.166 A 
HETATM    2  N   UNL     1      25.107  44.459  49.226  1.00  0.00    -0.274 N 
HETATM    3  C   UNL     1      26.039  43.438  49.174  1.00  0.00     0.197 A 
HETATM    4  N   UNL     1      27.175  43.837  49.700  1.00  0.00    -0.122 NA
HETATM    5  N   UNL     1      27.013  45.118  50.144  1.00  0.00    -0.131 NA
ENDROOT
BRANCH   3   6
HETATM    6  S   UNL     1      25.841  41.899  48.405  1.00  0.00    -0.070 SA
BRANCH   6   7
HETATM    7  C   UNL     1      27.362  41.010  48.901  1.00  0.00     0.180 C 
BRANCH   7   8
HETATM    8  C   UNL     1      27.325  40.717  50.410  1.00  0.00     0.244 C 
HETATM    9  N   UNL     1      28.425  41.167  51.124  1.00  0.00    -0.278 N 
HETATM   10  C   UNL     1      28.582  41.266  52.475  1.00  0.00     0.320 C 
HETATM   11  H   UNL     1      29.179  41.626  50.628  1.00  0.00     0.173 HD
HETATM   12  N   UNL     1      27.573  40.811  53.246  1.00  0.00    -0.352 N 
HETATM   13  O   UNL     1      29.577  41.786  52.964  1.00  0.00    -0.247 OA
HETATM   14  H   UNL     1      26.890  40.177  52.849  1.00  0.00     0.160 HD
HETATM   15  H   UNL     1      27.726  40.803  54.245  1.00  0.00     0.160 HD
HETATM   16  O   UNL     1      26.410  40.044  50.897  1.00  0.00    -0.271 OA
ENDBRANCH   7   8
BRANCH   7  17
HETATM   17  C   UNL     1      27.701  39.777  48.067  1.00  0.00    -0.035 A 
HETATM   18  C   UNL     1      27.025  39.410  46.892  1.00  0.00     0.009 A 
HETATM   19  C   UNL     1      27.374  38.249  46.196  1.00  0.00     0.001 A 
HETATM   20  C   UNL     1      28.392  37.427  46.669  1.00  0.00     0.000 A 
HETATM   21  C   UNL     1      29.068  37.765  47.836  1.00  0.00     0.001 A 
HETATM   22  C   UNL     1      28.728  38.928  48.528  1.00  0.00     0.009 A 
ENDBRANCH   7  17
ENDBRANCH   6   7
ENDBRANCH   3   6
BRANCH   2  23
HETATM   23  C   UNL     1      23.779  44.483  48.739  1.00  0.00     0.043 A 
HETATM   24  C   UNL     1      23.552  44.542  47.355  1.00  0.00     0.033 A 
HETATM   25  C   UNL     1      22.243  44.564  46.870  1.00  0.00     0.044 A 
HETATM   26  C   UNL     1      21.177  44.520  47.761  1.00  0.00     0.116 A 
HETATM   27  F   UNL     1      19.925  44.543  47.289  1.00  0.00    -0.206 F 
HETATM   28  C   UNL     1      21.394  44.446  49.132  1.00  0.00     0.044 A 
HETATM   29  C   UNL     1      22.699  44.423  49.629  1.00  0.00     0.033 A 
ENDBRANCH   2  23
BRANCH   1  30
HETATM   30  C   UNL     1      25.162  46.742  50.429  1.00  0.00     0.255 C 
HETATM   31  C   UNL     1      26.109  47.313  51.494  1.00  0.00     0.049 C 
BRANCH  30  32
HETATM   32  N   UNL     1      24.943  47.775  49.298  1.00  0.00    -0.060 N 
HETATM   33  H   UNL     1      24.975  47.217  48.428  1.00  0.00     0.280 HD
HETATM   34  C   UNL     1      23.546  48.373  49.365  1.00  0.00     0.236 C 
HETATM   35  C   UNL     1      23.305  49.289  48.175  1.00  0.00     0.028 C 
HETATM   36  C   UNL     1      24.356  50.386  48.096  1.00  0.00     0.003 C 
HETATM   37  C   UNL     1      25.751  49.782  48.052  1.00  0.00     0.028 C 
HETATM   38  C   UNL     1      26.006  48.847  49.226  1.00  0.00     0.236 C 
ENDBRANCH  30  32
ENDBRANCH   1  30
TORSDOF 7
ENDMDL
MODEL 10
REMARK VINA RESULT:      -7.9      3.655      6.945
REMARK  7 active torsions:
REMARK  status: ('A' for Active; 'I' for Inactive)
REMARK    1  A    between atoms: C_2  and  N_3 
REMARK    2  A    between atoms: C_2  and  C_10 
REMARK    3  A    between atoms: N_11  and  C_12 
REMARK    4  A    between atoms: C_19  and  S_20 
REMARK    5  A    between atoms: S_20  and  C_21 
REMARK    6  A    between atoms: C_21  and  C_22 
REMARK    7  A    between atoms: C_21  and  C_28 
REMARK       I    between atoms: C_22  and  N_23 
REMARK       I    between atoms: N_23  and  C_24 
REMARK       I    between atoms: C_24  and  N_25 
ROOT
HETATM    1  C   UNL     1      24.268  42.523  48.144  1.00  0.00     0.166 A 
HETATM    2  N   UNL     1      25.400  42.759  48.917  1.00  0.00    -0.274 N 
HETATM    3  C   UNL     1      25.336  44.114  49.190  1.00  0.00     0.197 A 
HETATM    4  N   UNL     1      24.301  44.648  48.582  1.00  0.00    -0.122 NA
HETATM    5  N   UNL     1      23.635  43.656  47.922  1.00  0.00    -0.131 NA
ENDROOT
BRANCH   3   6
HETATM    6  S   UNL     1      26.504  45.046  50.067  1.00  0.00    -0.070 SA
BRANCH   6   7
HETATM    7  C   UNL     1      25.523  46.487  50.623  1.00  0.00     0.180 C 
BRANCH   7   8
HETATM    8  C   UNL     1      25.728  46.707  52.131  1.00  0.00     0.244 C 
HETATM    9  N   UNL     1      26.369  45.673  52.795  1.00  0.00    -0.278 N 
HETATM   10  C   UNL     1      26.893  45.664  54.055  1.00  0.00     0.320 C 
HETATM   11  H   UNL     1      26.637  44.847  52.275  1.00  0.00     0.173 HD
HETATM   12  N   UNL     1      26.719  46.773  54.800  1.00  0.00    -0.352 N 
HETATM   13  O   UNL     1      27.530  44.705  54.472  1.00  0.00    -0.247 OA
HETATM   14  H   UNL     1      26.000  47.439  54.544  1.00  0.00     0.160 HD
HETATM   15  H   UNL     1      27.029  46.735  55.762  1.00  0.00     0.160 HD
HETATM   16  O   UNL     1      25.256  47.703  52.690  1.00  0.00    -0.271 OA
ENDBRANCH   7   8
BRANCH   7  17
HETATM   17  C   UNL     1      25.713  47.764  49.808  1.00  0.00    -0.035 A 
HETATM   18  C   UNL     1      24.662  48.493  49.228  1.00  0.00     0.009 A 
HETATM   19  C   UNL     1      24.917  49.639  48.469  1.00  0.00     0.001 A 
HETATM   20  C   UNL     1      26.224  50.068  48.264  1.00  0.00     0.000 A 
HETATM   21  C   UNL     1      27.281  49.356  48.819  1.00  0.00     0.001 A 
HETATM   22  C   UNL     1      27.029  48.217  49.585  1.00  0.00     0.009 A 
ENDBRANCH   7  17
ENDBRANCH   6   7
ENDBRANCH   3   6
BRANCH   2  23
HETATM   23  C   UNL     1      26.366  41.810  49.325  1.00  0.00     0.043 A 
HETATM   24  C   UNL     1      27.394  41.446  48.440  1.00  0.00     0.033 A 
HETATM   25  C   UNL     1      28.351  40.511  48.840  1.00  0.00     0.044 A 
HETATM   26  C   UNL     1      28.281  39.954  50.111  1.00  0.00     0.116 A 
HETATM   27  F   UNL     1      29.200  39.057  50.486  1.00  0.00    -0.206 F 
HETATM   28  C   UNL     1      27.276  40.320  50.998  1.00  0.00     0.044 A 
HETATM   29  C   UNL     1      26.313  41.255  50.611  1.00  0.00     0.033 A 
ENDBRANCH   2  23
BRANCH   1  30
HETATM   30  C   UNL     1      23.713  41.183  47.763  1.00  0.00     0.255 C 
HETATM   31  C   UNL     1      22.245  41.375  47.359  1.00  0.00     0.049 C 
BRANCH  30  32
HETATM   32  N   UNL     1      24.515  40.567  46.591  1.00  0.00    -0.060 N 
HETATM   33  H   UNL     1      25.360  41.158  46.517  1.00  0.00     0.280 HD
HETATM   34  C   UNL     1      25.005  39.170  46.938  1.00  0.00     0.236 C 
HETATM   35  C   UNL     1      25.895  38.631  45.828  1.00  0.00     0.028 C 
HETATM   36  C   UNL     1      25.174  38.630  44.488  1.00  0.00     0.003 C 
HETATM   37  C   UNL     1      24.667  40.026  44.159  1.00  0.00     0.028 C 
HETATM   38  C   UNL     1      23.788  40.590  45.266  1.00  0.00     0.236 C 
ENDBRANCH  30  32
ENDBRANCH   1  30
TORSDOF 7
ENDMDL
