MODEL 1
REMARK VINA RESULT:      -8.5      0.000      0.000
REMARK  7 active torsions:
REMARK  status: ('A' for Active; 'I' for Inactive)
REMARK    1  A    between atoms: C_5  and  N_6 
REMARK    2  A    between atoms: N_6  and  C_9 
REMARK    3  A    between atoms: C_9  and  C_10 
REMARK    4  A    between atoms: C_10  and  C_11 
REMARK    5  A    between atoms: C_10  and  C_13 
REMARK    6  A    between atoms: C_11  and  O_12 
REMARK    7  A    between atoms: C_13  and  C_14 
ROOT
HETATM    1  N   UNL     1      26.934  44.229  52.204  1.00  0.00    -0.066 N 
HETATM    2  H   UNL     1      27.599  45.011  52.070  1.00  0.00     0.278 HD
HETATM    3  H   UNL     1      27.310  43.442  51.640  1.00  0.00     0.278 HD
ENDROOT
BRANCH   1   4
HETATM    4  C   UNL     1      26.889  43.810  53.623  1.00  0.00     0.220 C 
HETATM    5  C   UNL     1      28.256  43.736  54.230  1.00  0.00    -0.021 A 
HETATM    6  C   UNL     1      28.497  44.807  55.102  1.00  0.00    -0.040 A 
HETATM    7  C   UNL     1      29.222  42.769  53.989  1.00  0.00     0.010 A 
HETATM    8  C   UNL     1      29.712  44.920  55.774  1.00  0.00    -0.055 A 
HETATM    9  C   UNL     1      27.306  45.726  55.165  1.00  0.00     0.018 C 
HETATM   10  C   UNL     1      30.020  46.055  56.706  1.00  0.00     0.049 C 
HETATM   11  C   UNL     1      30.691  43.947  55.519  1.00  0.00     0.007 A 
HETATM   12  C   UNL     1      30.449  42.883  54.641  1.00  0.00     0.001 A 
HETATM   13  C   UNL     1      26.201  44.867  54.503  1.00  0.00     0.047 C 
HETATM   14  C   UNL     1      27.549  47.043  54.439  1.00  0.00     0.015 C 
ENDBRANCH   1   4
BRANCH   1  15
HETATM   15  C   UNL     1      25.638  44.622  51.583  1.00  0.00     0.240 C 
BRANCH  15  16
HETATM   16  C   UNL     1      25.860  45.647  50.451  1.00  0.00     0.040 C 
BRANCH  16  17
HETATM   17  C   UNL     1      27.038  45.206  49.569  1.00  0.00     0.170 C 
BRANCH  17  18
HETATM   18  O   UNL     1      26.868  43.833  49.210  1.00  0.00    -0.400 OA
HETATM   19  H   UNL     1      26.339  43.829  48.385  1.00  0.00     0.209 HD
ENDBRANCH  17  18
ENDBRANCH  16  17
BRANCH  16  20
HETATM   20  C   UNL     1      26.106  47.093  50.935  1.00  0.00     0.067 C 
BRANCH  20  21
HETATM   21  C   UNL     1      25.778  48.135  49.900  1.00  0.00     0.034 A 
HETATM   22  N   UNL     1      24.456  48.396  49.708  1.00  0.00    -0.266 NA
HETATM   23  C   UNL     1      24.158  49.347  48.786  1.00  0.00     0.117 A 
HETATM   24  C   UNL     1      25.103  50.035  48.044  1.00  0.00     0.019 A 
HETATM   25  C   UNL     1      26.442  49.742  48.255  1.00  0.00     0.003 A 
HETATM   26  C   UNL     1      26.791  48.779  49.196  1.00  0.00     0.027 A 
ENDBRANCH  20  21
ENDBRANCH  16  20
ENDBRANCH  15  16
ENDBRANCH   1  15
TORSDOF 7
ENDMDL
MODEL 2
REMARK VINA RESULT:      -8.3      0.692      1.044
REMARK  7 active torsions:
REMARK  status: ('A' for Active; 'I' for Inactive)
REMARK    1  A    between atoms: C_5  and  N_6 
REMARK    2  A    between atoms: N_6  and  C_9 
REMARK    3  A    between atoms: C_9  and  C_10 
REMARK    4  A    between atoms: C_10  and  C_11 
REMARK    5  A    between atoms: C_10  and  C_13 
REMARK    6  A    between atoms: C_11  and  O_12 
REMARK    7  A    between atoms: C_13  and  C_14 
ROOT
HETATM    1  N   UNL     1      26.889  43.982  52.130  1.00  0.00    -0.066 N 
HETATM    2  H   UNL     1      27.587  44.731  51.977  1.00  0.00     0.278 HD
HETATM    3  H   UNL     1      27.195  43.188  51.534  1.00  0.00     0.278 HD
ENDROOT
BRANCH   1   4
HETATM    4  C   UNL     1      26.892  43.536  53.542  1.00  0.00     0.220 C 
HETATM    5  C   UNL     1      28.268  43.547  54.131  1.00  0.00    -0.021 A 
HETATM    6  C   UNL     1      28.445  44.617  55.020  1.00  0.00    -0.040 A 
HETATM    7  C   UNL     1      29.296  42.654  53.862  1.00  0.00     0.010 A 
HETATM    8  C   UNL     1      29.658  44.802  55.680  1.00  0.00    -0.055 A 
HETATM    9  C   UNL     1      27.195  45.450  55.113  1.00  0.00     0.018 C 
HETATM   10  C   UNL     1      29.899  45.940  56.627  1.00  0.00     0.049 C 
HETATM   11  C   UNL     1      30.699  43.905  55.395  1.00  0.00     0.007 A 
HETATM   12  C   UNL     1      30.520  42.842  54.501  1.00  0.00     0.001 A 
HETATM   13  C   UNL     1      26.144  44.528  54.448  1.00  0.00     0.047 C 
HETATM   14  C   UNL     1      27.336  46.793  54.408  1.00  0.00     0.015 C 
ENDBRANCH   1   4
BRANCH   1  15
HETATM   15  C   UNL     1      25.587  44.454  51.581  1.00  0.00     0.240 C 
BRANCH  15  16
HETATM   16  C   UNL     1      25.805  45.536  50.504  1.00  0.00     0.040 C 
BRANCH  16  17
HETATM   17  C   UNL     1      27.018  45.172  49.634  1.00  0.00     0.170 C 
BRANCH  17  18
HETATM   18  O   UNL     1      26.881  43.826  49.174  1.00  0.00    -0.400 OA
HETATM   19  H   UNL     1      26.685  43.285  49.968  1.00  0.00     0.209 HD
ENDBRANCH  17  18
ENDBRANCH  16  17
BRANCH  16  20
HETATM   20  C   UNL     1      25.993  46.965  51.059  1.00  0.00     0.067 C 
BRANCH  20  21
HETATM   21  C   UNL     1      25.955  48.031  49.998  1.00  0.00     0.034 A 
HETATM   22  N   UNL     1      27.150  48.588  49.660  1.00  0.00    -0.266 NA
HETATM   23  C   UNL     1      27.119  49.539  48.693  1.00  0.00     0.117 A 
HETATM   24  C   UNL     1      25.965  49.967  48.059  1.00  0.00     0.019 A 
HETATM   25  C   UNL     1      24.760  49.389  48.429  1.00  0.00     0.003 A 
HETATM   26  C   UNL     1      24.749  48.406  49.413  1.00  0.00     0.027 A 
ENDBRANCH  20  21
ENDBRANCH  16  20
ENDBRANCH  15  16
ENDBRANCH   1  15
TORSDOF 7
ENDMDL
MODEL 3
REMARK VINA RESULT:      -7.8     11.793     13.977
REMARK  7 active torsions:
REMARK  status: ('A' for Active; 'I' for Inactive)
REMARK    1  A    between atoms: C_5  and  N_6 
REMARK    2  A    between atoms: N_6  and  C_9 
REMARK    3  A    between atoms: C_9  and  C_10 
REMARK    4  A    between atoms: C_10  and  C_11 
REMARK    5  A    between atoms: C_10  and  C_13 
REMARK    6  A    between atoms: C_11  and  O_12 
REMARK    7  A    between atoms: C_13  and  C_14 
ROOT
HETATM    1  N   UNL     1      29.390  48.538  39.690  1.00  0.00    -0.066 N 
HETATM    2  H   UNL     1      28.985  47.735  40.203  1.00  0.00     0.278 HD
HETATM    3  H   UNL     1      29.323  49.347  40.338  1.00  0.00     0.278 HD
ENDROOT
BRANCH   1   4
HETATM    4  C   UNL     1      30.819  48.301  39.381  1.00  0.00     0.220 C 
HETATM    5  C   UNL     1      31.611  49.571  39.383  1.00  0.00    -0.021 A 
HETATM    6  C   UNL     1      32.420  49.678  40.523  1.00  0.00    -0.040 A 
HETATM    7  C   UNL     1      31.583  50.572  38.421  1.00  0.00     0.010 A 
HETATM    8  C   UNL     1      33.242  50.787  40.713  1.00  0.00    -0.055 A 
HETATM    9  C   UNL     1      32.245  48.481  41.418  1.00  0.00     0.018 C 
HETATM   10  C   UNL     1      34.113  50.951  41.923  1.00  0.00     0.049 C 
HETATM   11  C   UNL     1      33.201  51.803  39.745  1.00  0.00     0.007 A 
HETATM   12  C   UNL     1      32.385  51.695  38.611  1.00  0.00     0.001 A 
HETATM   13  C   UNL     1      31.508  47.487  40.488  1.00  0.00     0.047 C 
HETATM   14  C   UNL     1      31.457  48.808  42.680  1.00  0.00     0.015 C 
ENDBRANCH   1   4
BRANCH   1  15
HETATM   15  C   UNL     1      28.498  48.837  38.535  1.00  0.00     0.240 C 
BRANCH  15  16
HETATM   16  C   UNL     1      27.394  49.837  38.939  1.00  0.00     0.040 C 
BRANCH  16  17
HETATM   17  C   UNL     1      26.073  49.466  38.247  1.00  0.00     0.170 C 
BRANCH  17  18
HETATM   18  O   UNL     1      25.380  50.663  37.885  1.00  0.00    -0.400 OA
HETATM   19  H   UNL     1      25.960  51.406  38.153  1.00  0.00     0.209 HD
ENDBRANCH  17  18
ENDBRANCH  16  17
BRANCH  16  20
HETATM   20  C   UNL     1      27.725  51.315  38.636  1.00  0.00     0.067 C 
BRANCH  20  21
HETATM   21  C   UNL     1      28.603  51.958  39.674  1.00  0.00     0.034 A 
HETATM   22  N   UNL     1      28.773  51.265  40.833  1.00  0.00    -0.266 NA
HETATM   23  C   UNL     1      29.576  51.837  41.765  1.00  0.00     0.117 A 
HETATM   24  C   UNL     1      30.205  53.060  41.606  1.00  0.00     0.019 A 
HETATM   25  C   UNL     1      30.007  53.749  40.418  1.00  0.00     0.003 A 
HETATM   26  C   UNL     1      29.195  53.195  39.434  1.00  0.00     0.027 A 
ENDBRANCH  20  21
ENDBRANCH  16  20
ENDBRANCH  15  16
ENDBRANCH   1  15
TORSDOF 7
ENDMDL
MODEL 4
REMARK VINA RESULT:      -7.6     11.855     13.752
REMARK  7 active torsions:
REMARK  status: ('A' for Active; 'I' for Inactive)
REMARK    1  A    between atoms: C_5  and  N_6 
REMARK    2  A    between atoms: N_6  and  C_9 
REMARK    3  A    between atoms: C_9  and  C_10 
REMARK    4  A    between atoms: C_10  and  C_11 
REMARK    5  A    between atoms: C_10  and  C_13 
REMARK    6  A    between atoms: C_11  and  O_12 
REMARK    7  A    between atoms: C_13  and  C_14 
ROOT
HETATM    1  N   UNL     1      29.433  48.716  38.596  1.00  0.00    -0.066 N 
HETATM    2  H   UNL     1      29.118  49.680  38.803  1.00  0.00     0.278 HD
HETATM    3  H   UNL     1      29.334  48.605  37.568  1.00  0.00     0.278 HD
ENDROOT
BRANCH   1   4
HETATM    4  C   UNL     1      30.860  48.539  38.951  1.00  0.00     0.220 C 
HETATM    5  C   UNL     1      31.527  49.843  39.260  1.00  0.00    -0.021 A 
HETATM    6  C   UNL     1      31.751  50.000  40.635  1.00  0.00    -0.040 A 
HETATM    7  C   UNL     1      31.890  50.829  38.352  1.00  0.00     0.010 A 
HETATM    8  C   UNL     1      32.368  51.147  41.131  1.00  0.00    -0.055 A 
HETATM    9  C   UNL     1      31.242  48.808  41.400  1.00  0.00     0.018 C 
HETATM   10  C   UNL     1      32.614  51.365  42.595  1.00  0.00     0.049 C 
HETATM   11  C   UNL     1      32.722  52.146  40.212  1.00  0.00     0.007 A 
HETATM   12  C   UNL     1      32.490  51.988  38.839  1.00  0.00     0.001 A 
HETATM   13  C   UNL     1      31.022  47.771  40.272  1.00  0.00     0.047 C 
HETATM   14  C   UNL     1      29.969  49.116  42.179  1.00  0.00     0.015 C 
ENDBRANCH   1   4
BRANCH   1  15
HETATM   15  C   UNL     1      28.467  47.774  39.225  1.00  0.00     0.240 C 
BRANCH  15  16
HETATM   16  C   UNL     1      27.271  48.538  39.831  1.00  0.00     0.040 C 
BRANCH  16  17
HETATM   17  C   UNL     1      26.087  47.580  40.036  1.00  0.00     0.170 C 
BRANCH  17  18
HETATM   18  O   UNL     1      25.434  47.896  41.267  1.00  0.00    -0.400 OA
HETATM   19  H   UNL     1      25.765  48.780  41.534  1.00  0.00     0.209 HD
ENDBRANCH  17  18
ENDBRANCH  16  17
BRANCH  16  20
HETATM   20  C   UNL     1      26.799  49.752  39.002  1.00  0.00     0.067 C 
BRANCH  20  21
HETATM   21  C   UNL     1      27.631  50.988  39.220  1.00  0.00     0.034 A 
HETATM   22  N   UNL     1      28.084  51.613  38.100  1.00  0.00    -0.266 NA
HETATM   23  C   UNL     1      28.822  52.735  38.294  1.00  0.00     0.117 A 
HETATM   24  C   UNL     1      29.138  53.254  39.538  1.00  0.00     0.019 A 
HETATM   25  C   UNL     1      28.669  52.591  40.663  1.00  0.00     0.003 A 
HETATM   26  C   UNL     1      27.904  51.440  40.507  1.00  0.00     0.027 A 
ENDBRANCH  20  21
ENDBRANCH  16  20
ENDBRANCH  15  16
ENDBRANCH   1  15
TORSDOF 7
ENDMDL
MODEL 5
REMARK VINA RESULT:      -7.6      1.683      2.275
REMARK  7 active torsions:
REMARK  status: ('A' for Active; 'I' for Inactive)
REMARK    1  A    between atoms: C_5  and  N_6 
REMARK    2  A    between atoms: N_6  and  C_9 
REMARK    3  A    between atoms: C_9  and  C_10 
REMARK    4  A    between atoms: C_10  and  C_11 
REMARK    5  A    between atoms: C_10  and  C_13 
REMARK    6  A    between atoms: C_11  and  O_12 
REMARK    7  A    between atoms: C_13  and  C_14 
ROOT
HETATM    1  N   UNL     1      28.306  43.179  52.128  1.00  0.00    -0.066 N 
HETATM    2  H   UNL     1      28.199  44.191  51.936  1.00  0.00     0.278 HD
HETATM    3  H   UNL     1      29.306  42.964  51.949  1.00  0.00     0.278 HD
ENDROOT
BRANCH   1   4
HETATM    4  C   UNL     1      28.008  42.875  53.546  1.00  0.00     0.220 C 
HETATM    5  C   UNL     1      28.981  43.529  54.477  1.00  0.00    -0.021 A 
HETATM    6  C   UNL     1      28.410  44.625  55.141  1.00  0.00    -0.040 A 
HETATM    7  C   UNL     1      30.302  43.163  54.691  1.00  0.00     0.010 A 
HETATM    8  C   UNL     1      29.152  45.368  56.057  1.00  0.00    -0.055 A 
HETATM    9  C   UNL     1      26.982  44.827  54.712  1.00  0.00     0.018 C 
HETATM   10  C   UNL     1      28.589  46.556  56.780  1.00  0.00     0.049 C 
HETATM   11  C   UNL     1      30.491  45.003  56.262  1.00  0.00     0.007 A 
HETATM   12  C   UNL     1      31.059  43.912  55.591  1.00  0.00     0.001 A 
HETATM   13  C   UNL     1      26.671  43.495  53.987  1.00  0.00     0.047 C 
HETATM   14  C   UNL     1      26.811  46.045  53.813  1.00  0.00     0.015 C 
ENDBRANCH   1   4
BRANCH   1  15
HETATM   15  C   UNL     1      27.518  42.436  51.106  1.00  0.00     0.240 C 
BRANCH  15  16
HETATM   16  C   UNL     1      26.230  43.202  50.741  1.00  0.00     0.040 C 
BRANCH  16  17
HETATM   17  C   UNL     1      25.052  42.222  50.626  1.00  0.00     0.170 C 
BRANCH  17  18
HETATM   18  O   UNL     1      23.964  42.699  51.420  1.00  0.00    -0.400 OA
HETATM   19  H   UNL     1      23.966  43.676  51.329  1.00  0.00     0.209 HD
ENDBRANCH  17  18
ENDBRANCH  16  17
BRANCH  16  20
HETATM   20  C   UNL     1      26.324  44.033  49.442  1.00  0.00     0.067 C 
BRANCH  20  21
HETATM   21  C   UNL     1      25.735  45.412  49.568  1.00  0.00     0.034 A 
HETATM   22  N   UNL     1      24.398  45.519  49.341  1.00  0.00    -0.266 NA
HETATM   23  C   UNL     1      23.862  46.759  49.469  1.00  0.00     0.117 A 
HETATM   24  C   UNL     1      24.590  47.891  49.797  1.00  0.00     0.019 A 
HETATM   25  C   UNL     1      25.953  47.754  50.015  1.00  0.00     0.003 A 
HETATM   26  C   UNL     1      26.540  46.498  49.900  1.00  0.00     0.027 A 
ENDBRANCH  20  21
ENDBRANCH  16  20
ENDBRANCH  15  16
ENDBRANCH   1  15
TORSDOF 7
ENDMDL
MODEL 6
REMARK VINA RESULT:      -7.6     11.619     13.446
REMARK  7 active torsions:
REMARK  status: ('A' for Active; 'I' for Inactive)
REMARK    1  A    between atoms: C_5  and  N_6 
REMARK    2  A    between atoms: N_6  and  C_9 
REMARK    3  A    between atoms: C_9  and  C_10 
REMARK    4  A    between atoms: C_10  and  C_11 
REMARK    5  A    between atoms: C_10  and  C_13 
REMARK    6  A    between atoms: C_11  and  O_12 
REMARK    7  A    between atoms: C_13  and  C_14 
ROOT
HETATM    1  N   UNL     1      28.926  51.736  41.763  1.00  0.00    -0.066 N 
HETATM    2  H   UNL     1      29.332  50.828  42.049  1.00  0.00     0.278 HD
HETATM    3  H   UNL     1      28.247  51.986  42.508  1.00  0.00     0.278 HD
ENDROOT
BRANCH   1   4
HETATM    4  C   UNL     1      29.968  52.786  41.708  1.00  0.00     0.220 C 
HETATM    5  C   UNL     1      31.266  52.320  42.287  1.00  0.00    -0.021 A 
HETATM    6  C   UNL     1      32.219  52.063  41.291  1.00  0.00    -0.040 A 
HETATM    7  C   UNL     1      31.556  52.124  43.631  1.00  0.00     0.010 A 
HETATM    8  C   UNL     1      33.499  51.624  41.624  1.00  0.00    -0.055 A 
HETATM    9  C   UNL     1      31.648  52.326  39.923  1.00  0.00     0.018 C 
HETATM   10  C   UNL     1      34.545  51.323  40.592  1.00  0.00     0.049 C 
HETATM   11  C   UNL     1      33.784  51.414  42.982  1.00  0.00     0.007 A 
HETATM   12  C   UNL     1      32.826  51.665  43.974  1.00  0.00     0.001 A 
HETATM   13  C   UNL     1      30.360  53.116  40.258  1.00  0.00     0.047 C 
HETATM   14  C   UNL     1      31.373  51.041  39.152  1.00  0.00     0.015 C 
ENDBRANCH   1   4
BRANCH   1  15
HETATM   15  C   UNL     1      28.136  51.512  40.520  1.00  0.00     0.240 C 
BRANCH  15  16
HETATM   16  C   UNL     1      28.106  50.015  40.151  1.00  0.00     0.040 C 
BRANCH  16  17
HETATM   17  C   UNL     1      26.734  49.647  39.565  1.00  0.00     0.170 C 
BRANCH  17  18
HETATM   18  O   UNL     1      25.768  50.611  39.991  1.00  0.00    -0.400 OA
HETATM   19  H   UNL     1      25.036  50.571  39.339  1.00  0.00     0.209 HD
ENDBRANCH  17  18
ENDBRANCH  16  17
BRANCH  16  20
HETATM   20  C   UNL     1      28.428  49.059  41.321  1.00  0.00     0.067 C 
BRANCH  20  21
HETATM   21  C   UNL     1      29.851  48.571  41.323  1.00  0.00     0.034 A 
HETATM   22  N   UNL     1      30.258  47.896  40.214  1.00  0.00    -0.266 NA
HETATM   23  C   UNL     1      31.546  47.468  40.208  1.00  0.00     0.117 A 
HETATM   24  C   UNL     1      32.437  47.667  41.248  1.00  0.00     0.019 A 
HETATM   25  C   UNL     1      31.993  48.351  42.370  1.00  0.00     0.003 A 
HETATM   26  C   UNL     1      30.681  48.811  42.414  1.00  0.00     0.027 A 
ENDBRANCH  20  21
ENDBRANCH  16  20
ENDBRANCH  15  16
ENDBRANCH   1  15
TORSDOF 7
ENDMDL
MODEL 7
REMARK VINA RESULT:      -7.6      3.750      6.936
REMARK  7 active torsions:
REMARK  status: ('A' for Active; 'I' for Inactive)
REMARK    1  A    between atoms: C_5  and  N_6 
REMARK    2  A    between atoms: N_6  and  C_9 
REMARK    3  A    between atoms: C_9  and  C_10 
REMARK    4  A    between atoms: C_10  and  C_11 
REMARK    5  A    between atoms: C_10  and  C_13 
REMARK    6  A    between atoms: C_11  and  O_12 
REMARK    7  A    between atoms: C_13  and  C_14 
ROOT
HETATM    1  N   UNL     1      27.053  45.180  53.316  1.00  0.00    -0.066 N 
HETATM    2  H   UNL     1      28.062  45.245  53.535  1.00  0.00     0.278 HD
HETATM    3  H   UNL     1      26.972  45.391  52.302  1.00  0.00     0.278 HD
ENDROOT
BRANCH   1   4
HETATM    4  C   UNL     1      26.548  43.808  53.551  1.00  0.00     0.220 C 
HETATM    5  C   UNL     1      26.335  43.061  52.272  1.00  0.00    -0.021 A 
HETATM    6  C   UNL     1      27.328  42.092  52.064  1.00  0.00    -0.040 A 
HETATM    7  C   UNL     1      25.318  43.262  51.349  1.00  0.00     0.010 A 
HETATM    8  C   UNL     1      27.308  41.284  50.929  1.00  0.00    -0.055 A 
HETATM    9  C   UNL     1      28.325  42.096  53.191  1.00  0.00     0.018 C 
HETATM   10  C   UNL     1      28.355  40.245  50.658  1.00  0.00     0.049 C 
HETATM   11  C   UNL     1      26.285  41.498  49.993  1.00  0.00     0.007 A 
HETATM   12  C   UNL     1      25.300  42.473  50.201  1.00  0.00     0.001 A 
HETATM   13  C   UNL     1      27.593  42.937  54.266  1.00  0.00     0.047 C 
HETATM   14  C   UNL     1      29.665  42.694  52.781  1.00  0.00     0.015 C 
ENDBRANCH   1   4
BRANCH   1  15
HETATM   15  C   UNL     1      26.357  46.281  54.040  1.00  0.00     0.240 C 
BRANCH  15  16
HETATM   16  C   UNL     1      27.210  46.785  55.222  1.00  0.00     0.040 C 
BRANCH  16  17
HETATM   17  C   UNL     1      26.792  48.216  55.597  1.00  0.00     0.170 C 
BRANCH  17  18
HETATM   18  O   UNL     1      25.616  48.568  54.866  1.00  0.00    -0.400 OA
HETATM   19  H   UNL     1      25.920  49.081  54.088  1.00  0.00     0.209 HD
ENDBRANCH  17  18
ENDBRANCH  16  17
BRANCH  16  20
HETATM   20  C   UNL     1      28.734  46.754  54.974  1.00  0.00     0.067 C 
BRANCH  20  21
HETATM   21  C   UNL     1      29.492  45.948  55.994  1.00  0.00     0.034 A 
HETATM   22  N   UNL     1      29.286  46.280  57.297  1.00  0.00    -0.266 NA
HETATM   23  C   UNL     1      29.958  45.544  58.219  1.00  0.00     0.117 A 
HETATM   24  C   UNL     1      30.825  44.511  57.909  1.00  0.00     0.019 A 
HETATM   25  C   UNL     1      31.022  44.200  56.572  1.00  0.00     0.003 A 
HETATM   26  C   UNL     1      30.348  44.926  55.595  1.00  0.00     0.027 A 
ENDBRANCH  20  21
ENDBRANCH  16  20
ENDBRANCH  15  16
ENDBRANCH   1  15
TORSDOF 7
ENDMDL
MODEL 8
REMARK VINA RESULT:      -7.5      2.124      4.152
REMARK  7 active torsions:
REMARK  status: ('A' for Active; 'I' for Inactive)
REMARK    1  A    between atoms: C_5  and  N_6 
REMARK    2  A    between atoms: N_6  and  C_9 
REMARK    3  A    between atoms: C_9  and  C_10 
REMARK    4  A    between atoms: C_10  and  C_11 
REMARK    5  A    between atoms: C_10  and  C_13 
REMARK    6  A    between atoms: C_11  and  O_12 
REMARK    7  A    between atoms: C_13  and  C_14 
ROOT
HETATM    1  N   UNL     1      26.759  45.396  52.200  1.00  0.00    -0.066 N 
HETATM    2  H   UNL     1      27.251  46.265  52.473  1.00  0.00     0.278 HD
HETATM    3  H   UNL     1      27.303  45.004  51.407  1.00  0.00     0.278 HD
ENDROOT
BRANCH   1   4
HETATM    4  C   UNL     1      26.769  44.413  53.307  1.00  0.00     0.220 C 
HETATM    5  C   UNL     1      28.128  43.826  53.524  1.00  0.00    -0.021 A 
HETATM    6  C   UNL     1      28.738  44.339  54.678  1.00  0.00    -0.040 A 
HETATM    7  C   UNL     1      28.775  42.900  52.716  1.00  0.00     0.010 A 
HETATM    8  C   UNL     1      30.009  43.915  55.061  1.00  0.00    -0.055 A 
HETATM    9  C   UNL     1      27.844  45.342  55.356  1.00  0.00     0.018 C 
HETATM   10  C   UNL     1      30.707  44.446  56.278  1.00  0.00     0.049 C 
HETATM   11  C   UNL     1      30.665  42.989  54.235  1.00  0.00     0.007 A 
HETATM   12  C   UNL     1      30.054  42.485  53.079  1.00  0.00     0.001 A 
HETATM   13  C   UNL     1      26.485  45.085  54.661  1.00  0.00     0.047 C 
HETATM   14  C   UNL     1      28.338  46.773  55.183  1.00  0.00     0.015 C 
ENDBRANCH   1   4
BRANCH   1  15
HETATM   15  C   UNL     1      25.425  45.778  51.657  1.00  0.00     0.240 C 
BRANCH  15  16
HETATM   16  C   UNL     1      25.467  45.878  50.119  1.00  0.00     0.040 C 
BRANCH  16  17
HETATM   17  C   UNL     1      24.761  47.164  49.659  1.00  0.00     0.170 C 
BRANCH  17  18
HETATM   18  O   UNL     1      24.384  47.929  50.805  1.00  0.00    -0.400 OA
HETATM   19  H   UNL     1      23.937  48.732  50.464  1.00  0.00     0.209 HD
ENDBRANCH  17  18
ENDBRANCH  16  17
BRANCH  16  20
HETATM   20  C   UNL     1      24.847  44.671  49.380  1.00  0.00     0.067 C 
BRANCH  20  21
HETATM   21  C   UNL     1      25.545  43.369  49.668  1.00  0.00     0.034 A 
HETATM   22  N   UNL     1      26.775  43.209  49.110  1.00  0.00    -0.266 NA
HETATM   23  C   UNL     1      27.412  42.042  49.381  1.00  0.00     0.117 A 
HETATM   24  C   UNL     1      26.883  41.030  50.164  1.00  0.00     0.019 A 
HETATM   25  C   UNL     1      25.623  41.217  50.713  1.00  0.00     0.003 A 
HETATM   26  C   UNL     1      24.939  42.402  50.465  1.00  0.00     0.027 A 
ENDBRANCH  20  21
ENDBRANCH  16  20
ENDBRANCH  15  16
ENDBRANCH   1  15
TORSDOF 7
ENDMDL
MODEL 9
REMARK VINA RESULT:      -7.4      2.024      2.945
REMARK  7 active torsions:
REMARK  status: ('A' for Active; 'I' for Inactive)
REMARK    1  A    between atoms: C_5  and  N_6 
REMARK    2  A    between atoms: N_6  and  C_9 
REMARK    3  A    between atoms: C_9  and  C_10 
REMARK    4  A    between atoms: C_10  and  C_11 
REMARK    5  A    between atoms: C_10  and  C_13 
REMARK    6  A    between atoms: C_11  and  O_12 
REMARK    7  A    between atoms: C_13  and  C_14 
ROOT
HETATM    1  N   UNL     1      26.124  47.209  51.694  1.00  0.00    -0.066 N 
HETATM    2  H   UNL     1      26.437  48.073  52.171  1.00  0.00     0.278 HD
HETATM    3  H   UNL     1      26.925  46.908  51.105  1.00  0.00     0.278 HD
ENDROOT
BRANCH   1   4
HETATM    4  C   UNL     1      25.836  46.138  52.675  1.00  0.00     0.220 C 
HETATM    5  C   UNL     1      26.956  45.151  52.773  1.00  0.00    -0.021 A 
HETATM    6  C   UNL     1      27.690  45.312  53.958  1.00  0.00    -0.040 A 
HETATM    7  C   UNL     1      27.297  44.183  51.839  1.00  0.00     0.010 A 
HETATM    8  C   UNL     1      28.775  44.485  54.242  1.00  0.00    -0.055 A 
HETATM    9  C   UNL     1      27.136  46.443  54.781  1.00  0.00     0.018 C 
HETATM   10  C   UNL     1      29.597  44.629  55.489  1.00  0.00     0.049 C 
HETATM   11  C   UNL     1      29.124  43.516  53.289  1.00  0.00     0.007 A 
HETATM   12  C   UNL     1      28.393  43.363  52.104  1.00  0.00     0.001 A 
HETATM   13  C   UNL     1      25.764  46.691  54.109  1.00  0.00     0.047 C 
HETATM   14  C   UNL     1      28.037  47.672  54.762  1.00  0.00     0.015 C 
ENDBRANCH   1   4
BRANCH   1  15
HETATM   15  C   UNL     1      25.020  47.576  50.763  1.00  0.00     0.240 C 
BRANCH  15  16
HETATM   16  C   UNL     1      25.572  47.918  49.364  1.00  0.00     0.040 C 
BRANCH  16  17
HETATM   17  C   UNL     1      27.090  47.677  49.327  1.00  0.00     0.170 C 
BRANCH  17  18
HETATM   18  O   UNL     1      27.767  48.933  49.412  1.00  0.00    -0.400 OA
HETATM   19  H   UNL     1      27.519  49.433  48.606  1.00  0.00     0.209 HD
ENDBRANCH  17  18
ENDBRANCH  16  17
BRANCH  16  20
HETATM   20  C   UNL     1      25.279  49.360  48.894  1.00  0.00     0.067 C 
BRANCH  20  21
HETATM   21  C   UNL     1      23.825  49.610  48.597  1.00  0.00     0.034 A 
HETATM   22  N   UNL     1      23.146  48.588  48.010  1.00  0.00    -0.266 NA
HETATM   23  C   UNL     1      21.831  48.806  47.755  1.00  0.00     0.117 A 
HETATM   24  C   UNL     1      21.168  49.987  48.043  1.00  0.00     0.019 A 
HETATM   25  C   UNL     1      21.887  51.015  48.633  1.00  0.00     0.003 A 
HETATM   26  C   UNL     1      23.236  50.830  48.917  1.00  0.00     0.027 A 
ENDBRANCH  20  21
ENDBRANCH  16  20
ENDBRANCH  15  16
ENDBRANCH   1  15
TORSDOF 7
ENDMDL
MODEL 10
REMARK VINA RESULT:      -7.4      2.770      4.600
REMARK  7 active torsions:
REMARK  status: ('A' for Active; 'I' for Inactive)
REMARK    1  A    between atoms: C_5  and  N_6 
REMARK    2  A    between atoms: N_6  and  C_9 
REMARK    3  A    between atoms: C_9  and  C_10 
REMARK    4  A    between atoms: C_10  and  C_11 
REMARK    5  A    between atoms: C_10  and  C_13 
REMARK    6  A    between atoms: C_11  and  O_12 
REMARK    7  A    between atoms: C_13  and  C_14 
ROOT
HETATM    1  N   UNL     1      27.044  44.819  52.122  1.00  0.00    -0.066 N 
HETATM    2  H   UNL     1      27.662  45.650  52.114  1.00  0.00     0.278 HD
HETATM    3  H   UNL     1      27.506  44.120  51.508  1.00  0.00     0.278 HD
ENDROOT
BRANCH   1   4
HETATM    4  C   UNL     1      26.940  44.251  53.485  1.00  0.00     0.220 C 
HETATM    5  C   UNL     1      28.285  43.982  54.084  1.00  0.00    -0.021 A 
HETATM    6  C   UNL     1      28.612  44.922  55.073  1.00  0.00    -0.040 A 
HETATM    7  C   UNL     1      29.161  42.961  53.741  1.00  0.00     0.010 A 
HETATM    8  C   UNL     1      29.823  44.844  55.757  1.00  0.00    -0.055 A 
HETATM    9  C   UNL     1      27.512  45.935  55.233  1.00  0.00     0.018 C 
HETATM   10  C   UNL     1      30.222  45.834  56.811  1.00  0.00     0.049 C 
HETATM   11  C   UNL     1      30.711  43.818  55.398  1.00  0.00     0.007 A 
HETATM   12  C   UNL     1      30.383  42.886  54.405  1.00  0.00     0.001 A 
HETATM   13  C   UNL     1      26.341  45.264  54.475  1.00  0.00     0.047 C 
HETATM   14  C   UNL     1      27.887  47.297  54.660  1.00  0.00     0.015 C 
ENDBRANCH   1   4
BRANCH   1  15
HETATM   15  C   UNL     1      25.765  45.196  51.457  1.00  0.00     0.240 C 
BRANCH  15  16
HETATM   16  C   UNL     1      25.376  44.154  50.387  1.00  0.00     0.040 C 
BRANCH  16  17
HETATM   17  C   UNL     1      23.982  44.477  49.825  1.00  0.00     0.170 C 
BRANCH  17  18
HETATM   18  O   UNL     1      23.019  44.385  50.876  1.00  0.00    -0.400 OA
HETATM   19  H   UNL     1      23.347  43.694  51.489  1.00  0.00     0.209 HD
ENDBRANCH  17  18
ENDBRANCH  16  17
BRANCH  16  20
HETATM   20  C   UNL     1      25.393  42.691  50.880  1.00  0.00     0.067 C 
BRANCH  20  21
HETATM   21  C   UNL     1      26.471  41.856  50.243  1.00  0.00     0.034 A 
HETATM   22  N   UNL     1      27.224  41.099  51.086  1.00  0.00    -0.266 NA
HETATM   23  C   UNL     1      28.187  40.334  50.512  1.00  0.00     0.117 A 
HETATM   24  C   UNL     1      28.443  40.296  49.152  1.00  0.00     0.019 A 
HETATM   25  C   UNL     1      27.666  41.085  48.316  1.00  0.00     0.003 A 
HETATM   26  C   UNL     1      26.664  41.879  48.865  1.00  0.00     0.027 A 
ENDBRANCH  20  21
ENDBRANCH  16  20
ENDBRANCH  15  16
ENDBRANCH   1  15
TORSDOF 7
ENDMDL
