MODEL 1
REMARK VINA RESULT:      -9.3      0.000      0.000
REMARK  8 active torsions:
REMARK  status: ('A' for Active; 'I' for Inactive)
REMARK    1  A    between atoms: C_3  and  C_4 
REMARK    2  A    between atoms: C_4  and  C_5 
REMARK    3  A    between atoms: C_5  and  N_6 
REMARK       I    between atoms: N_6  and  C_7 
REMARK    4  A    between atoms: C_7  and  C_8 
REMARK    5  A    between atoms: C_8  and  S_9 
REMARK    6  A    between atoms: S_9  and  C_10 
REMARK    7  A    between atoms: C_13  and  C_14 
REMARK    8  A    between atoms: C_15  and  O_16 
ROOT
HETATM    1  S   UNL     1      23.582  46.445  49.110  1.00  0.00    -0.081 SA
ENDROOT
BRANCH   1   2
HETATM    2  C   UNL     1      25.180  46.603  49.953  1.00  0.00     0.185 C 
BRANCH   2   3
HETATM    3  C   UNL     1      25.203  45.845  51.277  1.00  0.00     0.227 C 
HETATM    4  N   UNL     1      26.261  46.211  52.095  1.00  0.00    -0.360 N 
HETATM    5  H   UNL     1      27.025  46.738  51.690  1.00  0.00     0.162 HD
HETATM    6  O   UNL     1      24.370  45.009  51.619  1.00  0.00    -0.273 OA
BRANCH   4   7
HETATM    7  C   UNL     1      26.483  45.541  53.366  1.00  0.00     0.127 C 
BRANCH   7   8
HETATM    8  C   UNL     1      27.389  44.319  53.214  1.00  0.00     0.058 C 
BRANCH   8   9
HETATM    9  C   UNL     1      28.556  44.346  54.174  1.00  0.00    -0.051 A 
HETATM   10  C   UNL     1      29.613  43.414  54.129  1.00  0.00    -0.056 A 
HETATM   11  C   UNL     1      29.703  42.293  53.130  1.00  0.00     0.049 C 
HETATM   12  C   UNL     1      30.645  43.506  55.082  1.00  0.00     0.007 A 
HETATM   13  C   UNL     1      30.640  44.501  56.059  1.00  0.00     0.001 A 
HETATM   14  C   UNL     1      29.598  45.417  56.104  1.00  0.00     0.001 A 
HETATM   15  C   UNL     1      28.564  45.339  55.172  1.00  0.00     0.007 A 
ENDBRANCH   8   9
ENDBRANCH   7   8
ENDBRANCH   4   7
ENDBRANCH   2   3
ENDBRANCH   1   2
BRANCH   1  16
HETATM   16  C   UNL     1      23.004  48.061  49.309  1.00  0.00     0.191 A 
HETATM   17  N   UNL     1      21.740  48.474  48.998  1.00  0.00    -0.312 N 
HETATM   18  C   UNL     1      20.664  47.696  48.440  1.00  0.00     0.160 C 
HETATM   19  C   UNL     1      21.681  49.799  49.370  1.00  0.00     0.166 A 
HETATM   20  N   UNL     1      22.861  50.156  49.845  1.00  0.00    -0.128 NA
HETATM   21  N   UNL     1      23.690  49.057  49.816  1.00  0.00    -0.122 NA
BRANCH  19  22
HETATM   22  C   UNL     1      20.498  50.646  49.276  1.00  0.00     0.045 A 
HETATM   23  C   UNL     1      19.428  50.512  50.171  1.00  0.00     0.082 A 
HETATM   24  C   UNL     1      18.314  51.352  50.082  1.00  0.00     0.038 A 
HETATM   25  C   UNL     1      18.247  52.312  49.073  1.00  0.00     0.003 A 
HETATM   26  C   UNL     1      19.295  52.441  48.162  1.00  0.00     0.001 A 
HETATM   27  C   UNL     1      20.416  51.613  48.264  1.00  0.00     0.018 A 
BRANCH  23  28
HETATM   28  O   UNL     1      19.507  49.611  51.204  1.00  0.00    -0.355 OA
HETATM   29  C   UNL     1      18.483  48.622  51.080  1.00  0.00     0.210 C 
ENDBRANCH  23  28
ENDBRANCH  19  22
ENDBRANCH   1  16
TORSDOF 8
ENDMDL
MODEL 2
REMARK VINA RESULT:      -8.9      2.142      3.420
REMARK  8 active torsions:
REMARK  status: ('A' for Active; 'I' for Inactive)
REMARK    1  A    between atoms: C_3  and  C_4 
REMARK    2  A    between atoms: C_4  and  C_5 
REMARK    3  A    between atoms: C_5  and  N_6 
REMARK       I    between atoms: N_6  and  C_7 
REMARK    4  A    between atoms: C_7  and  C_8 
REMARK    5  A    between atoms: C_8  and  S_9 
REMARK    6  A    between atoms: S_9  and  C_10 
REMARK    7  A    between atoms: C_13  and  C_14 
REMARK    8  A    between atoms: C_15  and  O_16 
ROOT
HETATM    1  S   UNL     1      25.120  44.350  49.333  1.00  0.00    -0.081 SA
ENDROOT
BRANCH   1   2
HETATM    2  C   UNL     1      24.292  43.606  50.765  1.00  0.00     0.185 C 
BRANCH   2   3
HETATM    3  C   UNL     1      25.036  43.889  52.066  1.00  0.00     0.227 C 
HETATM    4  N   UNL     1      26.223  43.181  52.180  1.00  0.00    -0.360 N 
HETATM    5  H   UNL     1      26.382  42.402  51.553  1.00  0.00     0.162 HD
HETATM    6  O   UNL     1      24.658  44.676  52.931  1.00  0.00    -0.273 OA
BRANCH   4   7
HETATM    7  C   UNL     1      27.029  43.272  53.386  1.00  0.00     0.127 C 
BRANCH   7   8
HETATM    8  C   UNL     1      28.022  44.432  53.319  1.00  0.00     0.058 C 
BRANCH   8   9
HETATM    9  C   UNL     1      29.005  44.414  54.467  1.00  0.00    -0.051 A 
HETATM   10  C   UNL     1      29.142  45.479  55.382  1.00  0.00    -0.056 A 
HETATM   11  C   UNL     1      28.332  46.746  55.323  1.00  0.00     0.049 C 
HETATM   12  C   UNL     1      30.102  45.380  56.406  1.00  0.00     0.007 A 
HETATM   13  C   UNL     1      30.912  44.252  56.530  1.00  0.00     0.001 A 
HETATM   14  C   UNL     1      30.779  43.205  55.628  1.00  0.00     0.001 A 
HETATM   15  C   UNL     1      29.836  43.286  54.604  1.00  0.00     0.007 A 
ENDBRANCH   8   9
ENDBRANCH   7   8
ENDBRANCH   4   7
ENDBRANCH   2   3
ENDBRANCH   1   2
BRANCH   1  16
HETATM   16  C   UNL     1      23.859  45.407  48.804  1.00  0.00     0.191 A 
HETATM   17  N   UNL     1      23.656  46.668  49.284  1.00  0.00    -0.312 N 
HETATM   18  C   UNL     1      24.397  47.359  50.308  1.00  0.00     0.160 C 
HETATM   19  C   UNL     1      22.606  47.179  48.554  1.00  0.00     0.166 A 
HETATM   20  N   UNL     1      22.191  46.251  47.708  1.00  0.00    -0.128 NA
HETATM   21  N   UNL     1      22.990  45.140  47.860  1.00  0.00    -0.122 NA
BRANCH  19  22
HETATM   22  C   UNL     1      22.070  48.529  48.681  1.00  0.00     0.045 A 
HETATM   23  C   UNL     1      22.741  49.637  48.146  1.00  0.00     0.082 A 
HETATM   24  C   UNL     1      22.197  50.920  48.255  1.00  0.00     0.038 A 
HETATM   25  C   UNL     1      20.993  51.110  48.932  1.00  0.00     0.003 A 
HETATM   26  C   UNL     1      20.327  50.018  49.489  1.00  0.00     0.001 A 
HETATM   27  C   UNL     1      20.862  48.733  49.364  1.00  0.00     0.018 A 
BRANCH  23  28
HETATM   28  O   UNL     1      23.896  49.457  47.426  1.00  0.00    -0.355 OA
HETATM   29  C   UNL     1      24.983  50.139  48.053  1.00  0.00     0.210 C 
ENDBRANCH  23  28
ENDBRANCH  19  22
ENDBRANCH   1  16
TORSDOF 8
ENDMDL
MODEL 3
REMARK VINA RESULT:      -8.5      1.924     10.817
REMARK  8 active torsions:
REMARK  status: ('A' for Active; 'I' for Inactive)
REMARK    1  A    between atoms: C_3  and  C_4 
REMARK    2  A    between atoms: C_4  and  C_5 
REMARK    3  A    between atoms: C_5  and  N_6 
REMARK       I    between atoms: N_6  and  C_7 
REMARK    4  A    between atoms: C_7  and  C_8 
REMARK    5  A    between atoms: C_8  and  S_9 
REMARK    6  A    between atoms: S_9  and  C_10 
REMARK    7  A    between atoms: C_13  and  C_14 
REMARK    8  A    between atoms: C_15  and  O_16 
ROOT
HETATM    1  S   UNL     1      24.305  45.625  49.607  1.00  0.00    -0.081 SA
ENDROOT
BRANCH   1   2
HETATM    2  C   UNL     1      24.633  47.362  50.009  1.00  0.00     0.185 C 
BRANCH   2   3
HETATM    3  C   UNL     1      23.562  48.291  49.445  1.00  0.00     0.227 C 
HETATM    4  N   UNL     1      22.626  47.630  48.664  1.00  0.00    -0.360 N 
HETATM    5  H   UNL     1      22.837  46.692  48.347  1.00  0.00     0.162 HD
HETATM    6  O   UNL     1      23.499  49.498  49.661  1.00  0.00    -0.273 OA
BRANCH   4   7
HETATM    7  C   UNL     1      21.573  48.367  47.985  1.00  0.00     0.127 C 
BRANCH   7   8
HETATM    8  C   UNL     1      20.285  48.405  48.808  1.00  0.00     0.058 C 
BRANCH   8   9
HETATM    9  C   UNL     1      19.575  49.736  48.705  1.00  0.00    -0.051 A 
HETATM   10  C   UNL     1      18.171  49.860  48.658  1.00  0.00    -0.056 A 
HETATM   11  C   UNL     1      17.223  48.693  48.705  1.00  0.00     0.049 C 
HETATM   12  C   UNL     1      17.604  51.142  48.537  1.00  0.00     0.007 A 
HETATM   13  C   UNL     1      18.403  52.283  48.468  1.00  0.00     0.001 A 
HETATM   14  C   UNL     1      19.785  52.161  48.513  1.00  0.00     0.001 A 
HETATM   15  C   UNL     1      20.366  50.898  48.627  1.00  0.00     0.007 A 
ENDBRANCH   8   9
ENDBRANCH   7   8
ENDBRANCH   4   7
ENDBRANCH   2   3
ENDBRANCH   1   2
BRANCH   1  16
HETATM   16  C   UNL     1      24.902  44.889  51.052  1.00  0.00     0.191 A 
HETATM   17  N   UNL     1      26.211  44.572  51.273  1.00  0.00    -0.312 N 
HETATM   18  C   UNL     1      27.331  44.750  50.385  1.00  0.00     0.160 C 
HETATM   19  C   UNL     1      26.260  44.075  52.557  1.00  0.00     0.166 A 
HETATM   20  N   UNL     1      25.035  44.070  53.054  1.00  0.00    -0.128 NA
HETATM   21  N   UNL     1      24.183  44.593  52.107  1.00  0.00    -0.122 NA
BRANCH  19  22
HETATM   22  C   UNL     1      27.472  43.655  53.251  1.00  0.00     0.045 A 
HETATM   23  C   UNL     1      27.982  42.357  53.116  1.00  0.00     0.082 A 
HETATM   24  C   UNL     1      29.160  41.983  53.768  1.00  0.00     0.038 A 
HETATM   25  C   UNL     1      29.820  42.895  54.589  1.00  0.00     0.003 A 
HETATM   26  C   UNL     1      29.311  44.184  54.750  1.00  0.00     0.001 A 
HETATM   27  C   UNL     1      28.143  44.563  54.083  1.00  0.00     0.018 A 
BRANCH  23  28
HETATM   28  O   UNL     1      27.374  41.467  52.265  1.00  0.00    -0.355 OA
HETATM   29  C   UNL     1      28.242  41.150  51.176  1.00  0.00     0.210 C 
ENDBRANCH  23  28
ENDBRANCH  19  22
ENDBRANCH   1  16
TORSDOF 8
ENDMDL
MODEL 4
REMARK VINA RESULT:      -8.3      2.049     10.485
REMARK  8 active torsions:
REMARK  status: ('A' for Active; 'I' for Inactive)
REMARK    1  A    between atoms: C_3  and  C_4 
REMARK    2  A    between atoms: C_4  and  C_5 
REMARK    3  A    between atoms: C_5  and  N_6 
REMARK       I    between atoms: N_6  and  C_7 
REMARK    4  A    between atoms: C_7  and  C_8 
REMARK    5  A    between atoms: C_8  and  S_9 
REMARK    6  A    between atoms: S_9  and  C_10 
REMARK    7  A    between atoms: C_13  and  C_14 
REMARK    8  A    between atoms: C_15  and  O_16 
ROOT
HETATM    1  S   UNL     1      24.726  44.434  50.112  1.00  0.00    -0.081 SA
ENDROOT
BRANCH   1   2
HETATM    2  C   UNL     1      25.241  46.138  49.763  1.00  0.00     0.185 C 
BRANCH   2   3
HETATM    3  C   UNL     1      24.055  47.096  49.722  1.00  0.00     0.227 C 
HETATM    4  N   UNL     1      22.965  46.583  49.034  1.00  0.00    -0.360 N 
HETATM    5  H   UNL     1      23.104  45.772  48.445  1.00  0.00     0.162 HD
HETATM    6  O   UNL     1      24.032  48.204  50.253  1.00  0.00    -0.273 OA
BRANCH   4   7
HETATM    7  C   UNL     1      21.771  47.387  48.832  1.00  0.00     0.127 C 
BRANCH   7   8
HETATM    8  C   UNL     1      21.962  48.421  47.723  1.00  0.00     0.058 C 
BRANCH   8   9
HETATM    9  C   UNL     1      20.995  49.577  47.841  1.00  0.00    -0.051 A 
HETATM   10  C   UNL     1      21.348  50.824  48.396  1.00  0.00    -0.056 A 
HETATM   11  C   UNL     1      22.716  51.148  48.931  1.00  0.00     0.049 C 
HETATM   12  C   UNL     1      20.370  51.832  48.484  1.00  0.00     0.007 A 
HETATM   13  C   UNL     1      19.069  51.619  48.031  1.00  0.00     0.001 A 
HETATM   14  C   UNL     1      18.721  50.390  47.486  1.00  0.00     0.001 A 
HETATM   15  C   UNL     1      19.675  49.377  47.394  1.00  0.00     0.007 A 
ENDBRANCH   8   9
ENDBRANCH   7   8
ENDBRANCH   4   7
ENDBRANCH   2   3
ENDBRANCH   1   2
BRANCH   1  16
HETATM   16  C   UNL     1      25.369  44.273  51.708  1.00  0.00     0.191 A 
HETATM   17  N   UNL     1      26.701  44.242  52.004  1.00  0.00    -0.312 N 
HETATM   18  C   UNL     1      27.815  44.311  51.095  1.00  0.00     0.160 C 
HETATM   19  C   UNL     1      26.774  44.172  53.378  1.00  0.00     0.166 A 
HETATM   20  N   UNL     1      25.544  44.131  53.863  1.00  0.00    -0.128 NA
HETATM   21  N   UNL     1      24.661  44.206  52.809  1.00  0.00    -0.122 NA
BRANCH  19  22
HETATM   22  C   UNL     1      28.007  44.174  54.157  1.00  0.00     0.045 A 
HETATM   23  C   UNL     1      28.356  45.259  54.973  1.00  0.00     0.082 A 
HETATM   24  C   UNL     1      29.529  45.230  55.732  1.00  0.00     0.038 A 
HETATM   25  C   UNL     1      30.381  44.129  55.654  1.00  0.00     0.003 A 
HETATM   26  C   UNL     1      30.056  43.053  54.829  1.00  0.00     0.001 A 
HETATM   27  C   UNL     1      28.874  43.075  54.084  1.00  0.00     0.018 A 
BRANCH  23  28
HETATM   28  O   UNL     1      27.498  46.323  55.104  1.00  0.00    -0.355 OA
HETATM   29  C   UNL     1      28.184  47.549  54.848  1.00  0.00     0.210 C 
ENDBRANCH  23  28
ENDBRANCH  19  22
ENDBRANCH   1  16
TORSDOF 8
ENDMDL
MODEL 5
REMARK VINA RESULT:      -8.2      1.732      2.701
REMARK  8 active torsions:
REMARK  status: ('A' for Active; 'I' for Inactive)
REMARK    1  A    between atoms: C_3  and  C_4 
REMARK    2  A    between atoms: C_4  and  C_5 
REMARK    3  A    between atoms: C_5  and  N_6 
REMARK       I    between atoms: N_6  and  C_7 
REMARK    4  A    between atoms: C_7  and  C_8 
REMARK    5  A    between atoms: C_8  and  S_9 
REMARK    6  A    between atoms: S_9  and  C_10 
REMARK    7  A    between atoms: C_13  and  C_14 
REMARK    8  A    between atoms: C_15  and  O_16 
ROOT
HETATM    1  S   UNL     1      24.079  44.276  48.700  1.00  0.00    -0.081 SA
ENDROOT
BRANCH   1   2
HETATM    2  C   UNL     1      23.860  43.898  50.460  1.00  0.00     0.185 C 
BRANCH   2   3
HETATM    3  C   UNL     1      25.163  43.447  51.113  1.00  0.00     0.227 C 
HETATM    4  N   UNL     1      25.279  43.853  52.434  1.00  0.00    -0.360 N 
HETATM    5  H   UNL     1      24.652  44.570  52.775  1.00  0.00     0.162 HD
HETATM    6  O   UNL     1      26.028  42.774  50.557  1.00  0.00    -0.273 OA
BRANCH   4   7
HETATM    7  C   UNL     1      26.487  43.574  53.192  1.00  0.00     0.127 C 
BRANCH   7   8
HETATM    8  C   UNL     1      27.262  44.851  53.515  1.00  0.00     0.058 C 
BRANCH   8   9
HETATM    9  C   UNL     1      28.501  44.580  54.338  1.00  0.00    -0.051 A 
HETATM   10  C   UNL     1      28.949  45.437  55.364  1.00  0.00    -0.056 A 
HETATM   11  C   UNL     1      28.253  46.712  55.756  1.00  0.00     0.049 C 
HETATM   12  C   UNL     1      30.128  45.111  56.060  1.00  0.00     0.007 A 
HETATM   13  C   UNL     1      30.852  43.959  55.755  1.00  0.00     0.001 A 
HETATM   14  C   UNL     1      30.412  43.116  54.744  1.00  0.00     0.001 A 
HETATM   15  C   UNL     1      29.248  43.424  54.039  1.00  0.00     0.007 A 
ENDBRANCH   8   9
ENDBRANCH   7   8
ENDBRANCH   4   7
ENDBRANCH   2   3
ENDBRANCH   1   2
BRANCH   1  16
HETATM   16  C   UNL     1      22.797  45.418  48.501  1.00  0.00     0.191 A 
HETATM   17  N   UNL     1      22.848  46.716  48.917  1.00  0.00    -0.312 N 
HETATM   18  C   UNL     1      23.921  47.388  49.604  1.00  0.00     0.160 C 
HETATM   19  C   UNL     1      21.662  47.284  48.507  1.00  0.00     0.166 A 
HETATM   20  N   UNL     1      20.936  46.356  47.907  1.00  0.00    -0.128 NA
HETATM   21  N   UNL     1      21.658  45.184  47.895  1.00  0.00    -0.122 NA
BRANCH  19  22
HETATM   22  C   UNL     1      21.293  48.684  48.684  1.00  0.00     0.045 A 
HETATM   23  C   UNL     1      20.162  49.056  49.422  1.00  0.00     0.082 A 
HETATM   24  C   UNL     1      19.841  50.404  49.604  1.00  0.00     0.038 A 
HETATM   25  C   UNL     1      20.631  51.392  49.018  1.00  0.00     0.003 A 
HETATM   26  C   UNL     1      21.747  51.034  48.261  1.00  0.00     0.001 A 
HETATM   27  C   UNL     1      22.078  49.686  48.096  1.00  0.00     0.018 A 
BRANCH  23  28
HETATM   28  O   UNL     1      19.409  48.096  50.053  1.00  0.00    -0.355 OA
HETATM   29  C   UNL     1      18.628  48.683  51.096  1.00  0.00     0.210 C 
ENDBRANCH  23  28
ENDBRANCH  19  22
ENDBRANCH   1  16
TORSDOF 8
ENDMDL
MODEL 6
REMARK VINA RESULT:      -8.2      3.493      9.421
REMARK  8 active torsions:
REMARK  status: ('A' for Active; 'I' for Inactive)
REMARK    1  A    between atoms: C_3  and  C_4 
REMARK    2  A    between atoms: C_4  and  C_5 
REMARK    3  A    between atoms: C_5  and  N_6 
REMARK       I    between atoms: N_6  and  C_7 
REMARK    4  A    between atoms: C_7  and  C_8 
REMARK    5  A    between atoms: C_8  and  S_9 
REMARK    6  A    between atoms: S_9  and  C_10 
REMARK    7  A    between atoms: C_13  and  C_14 
REMARK    8  A    between atoms: C_15  and  O_16 
ROOT
HETATM    1  S   UNL     1      25.823  41.645  48.543  1.00  0.00    -0.081 SA
ENDROOT
BRANCH   1   2
HETATM    2  C   UNL     1      24.096  42.030  48.945  1.00  0.00     0.185 C 
BRANCH   2   3
HETATM    3  C   UNL     1      23.695  43.421  48.464  1.00  0.00     0.227 C 
HETATM    4  N   UNL     1      23.596  44.345  49.493  1.00  0.00    -0.360 N 
HETATM    5  H   UNL     1      23.562  44.005  50.445  1.00  0.00     0.162 HD
HETATM    6  O   UNL     1      23.496  43.724  47.290  1.00  0.00    -0.273 OA
BRANCH   4   7
HETATM    7  C   UNL     1      23.154  45.705  49.228  1.00  0.00     0.127 C 
BRANCH   7   8
HETATM    8  C   UNL     1      24.084  46.738  49.866  1.00  0.00     0.058 C 
BRANCH   8   9
HETATM    9  C   UNL     1      24.049  48.065  49.143  1.00  0.00    -0.051 A 
HETATM   10  C   UNL     1      25.195  48.860  48.935  1.00  0.00    -0.056 A 
HETATM   11  C   UNL     1      26.575  48.483  49.402  1.00  0.00     0.049 C 
HETATM   12  C   UNL     1      25.059  50.093  48.271  1.00  0.00     0.007 A 
HETATM   13  C   UNL     1      23.817  50.536  47.817  1.00  0.00     0.001 A 
HETATM   14  C   UNL     1      22.688  49.754  48.024  1.00  0.00     0.001 A 
HETATM   15  C   UNL     1      22.803  48.531  48.684  1.00  0.00     0.007 A 
ENDBRANCH   8   9
ENDBRANCH   7   8
ENDBRANCH   4   7
ENDBRANCH   2   3
ENDBRANCH   1   2
BRANCH   1  16
HETATM   16  C   UNL     1      26.609  42.733  49.630  1.00  0.00     0.191 A 
HETATM   17  N   UNL     1      27.133  42.375  50.838  1.00  0.00    -0.312 N 
HETATM   18  C   UNL     1      27.127  41.075  51.459  1.00  0.00     0.160 C 
HETATM   19  C   UNL     1      27.719  43.516  51.342  1.00  0.00     0.166 A 
HETATM   20  N   UNL     1      27.520  44.504  50.486  1.00  0.00    -0.128 NA
HETATM   21  N   UNL     1      26.830  44.006  49.404  1.00  0.00    -0.122 NA
BRANCH  19  22
HETATM   22  C   UNL     1      28.457  43.599  52.597  1.00  0.00     0.045 A 
HETATM   23  C   UNL     1      27.948  44.297  53.701  1.00  0.00     0.082 A 
HETATM   24  C   UNL     1      28.659  44.342  54.904  1.00  0.00     0.038 A 
HETATM   25  C   UNL     1      29.902  43.718  55.001  1.00  0.00     0.003 A 
HETATM   26  C   UNL     1      30.429  43.040  53.902  1.00  0.00     0.001 A 
HETATM   27  C   UNL     1      29.710  42.979  52.706  1.00  0.00     0.018 A 
BRANCH  23  28
HETATM   28  O   UNL     1      26.701  44.865  53.638  1.00  0.00    -0.355 OA
HETATM   29  C   UNL     1      26.769  46.252  53.973  1.00  0.00     0.210 C 
ENDBRANCH  23  28
ENDBRANCH  19  22
ENDBRANCH   1  16
TORSDOF 8
ENDMDL
MODEL 7
REMARK VINA RESULT:      -8.2      2.223     10.888
REMARK  8 active torsions:
REMARK  status: ('A' for Active; 'I' for Inactive)
REMARK    1  A    between atoms: C_3  and  C_4 
REMARK    2  A    between atoms: C_4  and  C_5 
REMARK    3  A    between atoms: C_5  and  N_6 
REMARK       I    between atoms: N_6  and  C_7 
REMARK    4  A    between atoms: C_7  and  C_8 
REMARK    5  A    between atoms: C_8  and  S_9 
REMARK    6  A    between atoms: S_9  and  C_10 
REMARK    7  A    between atoms: C_13  and  C_14 
REMARK    8  A    between atoms: C_15  and  O_16 
ROOT
HETATM    1  S   UNL     1      24.203  45.456  49.413  1.00  0.00    -0.081 SA
ENDROOT
BRANCH   1   2
HETATM    2  C   UNL     1      24.296  47.227  49.792  1.00  0.00     0.185 C 
BRANCH   2   3
HETATM    3  C   UNL     1      23.280  48.036  48.991  1.00  0.00     0.227 C 
HETATM    4  N   UNL     1      21.971  47.808  49.385  1.00  0.00    -0.360 N 
HETATM    5  H   UNL     1      21.775  47.003  49.967  1.00  0.00     0.162 HD
HETATM    6  O   UNL     1      23.566  48.831  48.098  1.00  0.00    -0.273 OA
BRANCH   4   7
HETATM    7  C   UNL     1      20.864  48.439  48.684  1.00  0.00     0.127 C 
BRANCH   7   8
HETATM    8  C   UNL     1      19.823  48.999  49.653  1.00  0.00     0.058 C 
BRANCH   8   9
HETATM    9  C   UNL     1      18.422  48.941  49.089  1.00  0.00    -0.051 A 
HETATM   10  C   UNL     1      17.737  50.075  48.606  1.00  0.00    -0.056 A 
HETATM   11  C   UNL     1      18.316  51.464  48.595  1.00  0.00     0.049 C 
HETATM   12  C   UNL     1      16.425  49.924  48.121  1.00  0.00     0.007 A 
HETATM   13  C   UNL     1      15.798  48.679  48.108  1.00  0.00     0.001 A 
HETATM   14  C   UNL     1      16.471  47.563  48.585  1.00  0.00     0.001 A 
HETATM   15  C   UNL     1      17.771  47.693  49.074  1.00  0.00     0.007 A 
ENDBRANCH   8   9
ENDBRANCH   7   8
ENDBRANCH   4   7
ENDBRANCH   2   3
ENDBRANCH   1   2
BRANCH   1  16
HETATM   16  C   UNL     1      24.794  44.823  50.908  1.00  0.00     0.191 A 
HETATM   17  N   UNL     1      26.109  44.568  51.174  1.00  0.00    -0.312 N 
HETATM   18  C   UNL     1      27.241  44.741  50.300  1.00  0.00     0.160 C 
HETATM   19  C   UNL     1      26.147  44.143  52.484  1.00  0.00     0.166 A 
HETATM   20  N   UNL     1      24.912  44.118  52.954  1.00  0.00    -0.128 NA
HETATM   21  N   UNL     1      24.063  44.557  51.963  1.00  0.00    -0.122 NA
BRANCH  19  22
HETATM   22  C   UNL     1      27.358  43.809  53.225  1.00  0.00     0.045 A 
HETATM   23  C   UNL     1      28.014  44.756  54.021  1.00  0.00     0.082 A 
HETATM   24  C   UNL     1      29.158  44.409  54.745  1.00  0.00     0.038 A 
HETATM   25  C   UNL     1      29.675  43.117  54.650  1.00  0.00     0.003 A 
HETATM   26  C   UNL     1      29.044  42.171  53.843  1.00  0.00     0.001 A 
HETATM   27  C   UNL     1      27.890  42.515  53.134  1.00  0.00     0.018 A 
BRANCH  23  28
HETATM   28  O   UNL     1      27.483  46.014  54.170  1.00  0.00    -0.355 OA
HETATM   29  C   UNL     1      28.249  46.769  55.110  1.00  0.00     0.210 C 
ENDBRANCH  23  28
ENDBRANCH  19  22
ENDBRANCH   1  16
TORSDOF 8
ENDMDL
MODEL 8
REMARK VINA RESULT:      -8.0      2.887      9.289
REMARK  8 active torsions:
REMARK  status: ('A' for Active; 'I' for Inactive)
REMARK    1  A    between atoms: C_3  and  C_4 
REMARK    2  A    between atoms: C_4  and  C_5 
REMARK    3  A    between atoms: C_5  and  N_6 
REMARK       I    between atoms: N_6  and  C_7 
REMARK    4  A    between atoms: C_7  and  C_8 
REMARK    5  A    between atoms: C_8  and  S_9 
REMARK    6  A    between atoms: S_9  and  C_10 
REMARK    7  A    between atoms: C_13  and  C_14 
REMARK    8  A    between atoms: C_15  and  O_16 
ROOT
HETATM    1  S   UNL     1      25.255  42.574  49.412  1.00  0.00    -0.081 SA
ENDROOT
BRANCH   1   2
HETATM    2  C   UNL     1      23.492  42.699  49.002  1.00  0.00     0.185 C 
BRANCH   2   3
HETATM    3  C   UNL     1      23.178  43.968  48.215  1.00  0.00     0.227 C 
HETATM    4  N   UNL     1      23.125  45.102  49.011  1.00  0.00    -0.360 N 
HETATM    5  H   UNL     1      23.062  44.986  50.014  1.00  0.00     0.162 HD
HETATM    6  O   UNL     1      23.008  44.013  46.999  1.00  0.00    -0.273 OA
BRANCH   4   7
HETATM    7  C   UNL     1      22.767  46.391  48.442  1.00  0.00     0.127 C 
BRANCH   7   8
HETATM    8  C   UNL     1      23.361  47.550  49.243  1.00  0.00     0.058 C 
BRANCH   8   9
HETATM    9  C   UNL     1      22.675  48.864  48.949  1.00  0.00    -0.051 A 
HETATM   10  C   UNL     1      23.345  49.982  48.410  1.00  0.00    -0.056 A 
HETATM   11  C   UNL     1      24.809  49.997  48.066  1.00  0.00     0.049 C 
HETATM   12  C   UNL     1      22.623  51.171  48.193  1.00  0.00     0.007 A 
HETATM   13  C   UNL     1      21.265  51.258  48.498  1.00  0.00     0.001 A 
HETATM   14  C   UNL     1      20.606  50.159  49.030  1.00  0.00     0.001 A 
HETATM   15  C   UNL     1      21.305  48.973  49.257  1.00  0.00     0.007 A 
ENDBRANCH   8   9
ENDBRANCH   7   8
ENDBRANCH   4   7
ENDBRANCH   2   3
ENDBRANCH   1   2
BRANCH   1  16
HETATM   16  C   UNL     1      25.237  43.363  50.950  1.00  0.00     0.191 A 
HETATM   17  N   UNL     1      26.326  43.943  51.532  1.00  0.00    -0.312 N 
HETATM   18  C   UNL     1      27.675  44.006  51.030  1.00  0.00     0.160 C 
HETATM   19  C   UNL     1      25.865  44.507  52.702  1.00  0.00     0.166 A 
HETATM   20  N   UNL     1      24.575  44.242  52.816  1.00  0.00    -0.128 NA
HETATM   21  N   UNL     1      24.180  43.530  51.706  1.00  0.00    -0.122 NA
BRANCH  19  22
HETATM   22  C   UNL     1      26.670  45.289  53.633  1.00  0.00     0.045 A 
HETATM   23  C   UNL     1      27.514  44.673  54.567  1.00  0.00     0.082 A 
HETATM   24  C   UNL     1      28.298  45.440  55.433  1.00  0.00     0.038 A 
HETATM   25  C   UNL     1      28.217  46.831  55.396  1.00  0.00     0.003 A 
HETATM   26  C   UNL     1      27.363  47.456  54.488  1.00  0.00     0.001 A 
HETATM   27  C   UNL     1      26.594  46.688  53.609  1.00  0.00     0.018 A 
BRANCH  23  28
HETATM   28  O   UNL     1      27.648  43.306  54.574  1.00  0.00    -0.355 OA
HETATM   29  C   UNL     1      29.009  42.939  54.348  1.00  0.00     0.210 C 
ENDBRANCH  23  28
ENDBRANCH  19  22
ENDBRANCH   1  16
TORSDOF 8
ENDMDL
MODEL 9
REMARK VINA RESULT:      -8.0      3.900      9.626
REMARK  8 active torsions:
REMARK  status: ('A' for Active; 'I' for Inactive)
REMARK    1  A    between atoms: C_3  and  C_4 
REMARK    2  A    between atoms: C_4  and  C_5 
REMARK    3  A    between atoms: C_5  and  N_6 
REMARK       I    between atoms: N_6  and  C_7 
REMARK    4  A    between atoms: C_7  and  C_8 
REMARK    5  A    between atoms: C_8  and  S_9 
REMARK    6  A    between atoms: S_9  and  C_10 
REMARK    7  A    between atoms: C_13  and  C_14 
REMARK    8  A    between atoms: C_15  and  O_16 
ROOT
HETATM    1  S   UNL     1      27.045  41.504  50.317  1.00  0.00    -0.081 SA
ENDROOT
BRANCH   1   2
HETATM    2  C   UNL     1      25.348  42.068  50.623  1.00  0.00     0.185 C 
BRANCH   2   3
HETATM    3  C   UNL     1      25.048  43.384  49.913  1.00  0.00     0.227 C 
HETATM    4  N   UNL     1      24.736  44.415  50.787  1.00  0.00    -0.360 N 
HETATM    5  H   UNL     1      24.509  44.183  51.745  1.00  0.00     0.162 HD
HETATM    6  O   UNL     1      25.092  43.548  48.696  1.00  0.00    -0.273 OA
BRANCH   4   7
HETATM    7  C   UNL     1      24.352  45.723  50.283  1.00  0.00     0.127 C 
BRANCH   7   8
HETATM    8  C   UNL     1      25.499  46.729  50.382  1.00  0.00     0.058 C 
BRANCH   8   9
HETATM    9  C   UNL     1      25.253  47.965  49.547  1.00  0.00    -0.051 A 
HETATM   10  C   UNL     1      26.293  48.744  48.996  1.00  0.00    -0.056 A 
HETATM   11  C   UNL     1      27.755  48.438  49.174  1.00  0.00     0.049 C 
HETATM   12  C   UNL     1      25.964  49.892  48.252  1.00  0.00     0.007 A 
HETATM   13  C   UNL     1      24.636  50.266  48.048  1.00  0.00     0.001 A 
HETATM   14  C   UNL     1      23.613  49.501  48.592  1.00  0.00     0.001 A 
HETATM   15  C   UNL     1      23.919  48.362  49.337  1.00  0.00     0.007 A 
ENDBRANCH   8   9
ENDBRANCH   7   8
ENDBRANCH   4   7
ENDBRANCH   2   3
ENDBRANCH   1   2
BRANCH   1  16
HETATM   16  C   UNL     1      27.705  41.744  51.896  1.00  0.00     0.191 A 
HETATM   17  N   UNL     1      28.157  42.941  52.370  1.00  0.00    -0.312 N 
HETATM   18  C   UNL     1      28.205  44.207  51.685  1.00  0.00     0.160 C 
HETATM   19  C   UNL     1      28.530  42.706  53.676  1.00  0.00     0.166 A 
HETATM   20  N   UNL     1      28.336  41.426  53.945  1.00  0.00    -0.128 NA
HETATM   21  N   UNL     1      27.806  40.825  52.826  1.00  0.00    -0.122 NA
BRANCH  19  22
HETATM   22  C   UNL     1      29.025  43.716  54.604  1.00  0.00     0.045 A 
HETATM   23  C   UNL     1      28.197  44.739  55.084  1.00  0.00     0.082 A 
HETATM   24  C   UNL     1      28.683  45.681  55.994  1.00  0.00     0.038 A 
HETATM   25  C   UNL     1      30.015  45.629  56.405  1.00  0.00     0.003 A 
HETATM   26  C   UNL     1      30.856  44.629  55.916  1.00  0.00     0.001 A 
HETATM   27  C   UNL     1      30.364  43.676  55.021  1.00  0.00     0.018 A 
BRANCH  23  28
HETATM   28  O   UNL     1      26.870  44.768  54.734  1.00  0.00    -0.355 OA
HETATM   29  C   UNL     1      26.504  46.071  54.278  1.00  0.00     0.210 C 
ENDBRANCH  23  28
ENDBRANCH  19  22
ENDBRANCH   1  16
TORSDOF 8
ENDMDL
MODEL 10
REMARK VINA RESULT:      -8.0      1.780      2.234
REMARK  8 active torsions:
REMARK  status: ('A' for Active; 'I' for Inactive)
REMARK    1  A    between atoms: C_3  and  C_4 
REMARK    2  A    between atoms: C_4  and  C_5 
REMARK    3  A    between atoms: C_5  and  N_6 
REMARK       I    between atoms: N_6  and  C_7 
REMARK    4  A    between atoms: C_7  and  C_8 
REMARK    5  A    between atoms: C_8  and  S_9 
REMARK    6  A    between atoms: S_9  and  C_10 
REMARK    7  A    between atoms: C_13  and  C_14 
REMARK    8  A    between atoms: C_15  and  O_16 
ROOT
HETATM    1  S   UNL     1      22.293  45.510  48.603  1.00  0.00    -0.081 SA
ENDROOT
BRANCH   1   2
HETATM    2  C   UNL     1      23.949  45.609  49.336  1.00  0.00     0.185 C 
BRANCH   2   3
HETATM    3  C   UNL     1      24.055  44.789  50.619  1.00  0.00     0.227 C 
HETATM    4  N   UNL     1      25.080  45.212  51.451  1.00  0.00    -0.360 N 
HETATM    5  H   UNL     1      25.786  45.830  51.072  1.00  0.00     0.162 HD
HETATM    6  O   UNL     1      23.309  43.860  50.918  1.00  0.00    -0.273 OA
BRANCH   4   7
HETATM    7  C   UNL     1      25.374  44.501  52.685  1.00  0.00     0.127 C 
BRANCH   7   8
HETATM    8  C   UNL     1      26.464  43.448  52.487  1.00  0.00     0.058 C 
BRANCH   8   9
HETATM    9  C   UNL     1      27.639  43.655  53.415  1.00  0.00    -0.051 A 
HETATM   10  C   UNL     1      28.573  42.642  53.717  1.00  0.00    -0.056 A 
HETATM   11  C   UNL     1      28.510  41.248  53.154  1.00  0.00     0.049 C 
HETATM   12  C   UNL     1      29.621  42.924  54.612  1.00  0.00     0.007 A 
HETATM   13  C   UNL     1      29.751  44.182  55.199  1.00  0.00     0.001 A 
HETATM   14  C   UNL     1      28.831  45.179  54.904  1.00  0.00     0.001 A 
HETATM   15  C   UNL     1      27.783  44.917  54.022  1.00  0.00     0.007 A 
ENDBRANCH   8   9
ENDBRANCH   7   8
ENDBRANCH   4   7
ENDBRANCH   2   3
ENDBRANCH   1   2
BRANCH   1  16
HETATM   16  C   UNL     1      22.040  47.185  48.264  1.00  0.00     0.191 A 
HETATM   17  N   UNL     1      20.869  47.850  48.488  1.00  0.00    -0.312 N 
HETATM   18  C   UNL     1      19.634  47.323  49.010  1.00  0.00     0.160 C 
HETATM   19  C   UNL     1      21.116  49.162  48.148  1.00  0.00     0.166 A 
HETATM   20  N   UNL     1      22.362  49.257  47.715  1.00  0.00    -0.128 NA
HETATM   21  N   UNL     1      22.945  48.012  47.799  1.00  0.00    -0.122 NA
BRANCH  19  22
HETATM   22  C   UNL     1      20.164  50.258  48.277  1.00  0.00     0.045 A 
HETATM   23  C   UNL     1      19.282  50.589  47.239  1.00  0.00     0.082 A 
HETATM   24  C   UNL     1      18.358  51.626  47.393  1.00  0.00     0.038 A 
HETATM   25  C   UNL     1      18.332  52.365  48.575  1.00  0.00     0.003 A 
HETATM   26  C   UNL     1      19.221  52.061  49.606  1.00  0.00     0.001 A 
HETATM   27  C   UNL     1      20.132  51.012  49.459  1.00  0.00     0.018 A 
BRANCH  23  28
HETATM   28  O   UNL     1      19.256  49.832  46.094  1.00  0.00    -0.355 OA
HETATM   29  C   UNL     1      18.542  50.515  45.063  1.00  0.00     0.210 C 
ENDBRANCH  23  28
ENDBRANCH  19  22
ENDBRANCH   1  16
TORSDOF 8
ENDMDL
