MODEL 1
REMARK VINA RESULT:     -10.3      0.000      0.000
REMARK  11 active torsions:
REMARK  status: ('A' for Active; 'I' for Inactive)
REMARK    1  A    between atoms: C_8  and  C_9 
REMARK    2  A    between atoms: C_9  and  C_10 
REMARK    3  A    between atoms: N_14  and  C_15 
REMARK    4  A    between atoms: C_15  and  C_16 
REMARK    5  A    between atoms: C_16  and  C_17 
REMARK    6  A    between atoms: C_20  and  O_21 
REMARK    7  A    between atoms: C_27  and  N_28 
REMARK    8  A    between atoms: N_28  and  C_29 
REMARK    9  A    between atoms: C_29  and  C_30 
REMARK   10  A    between atoms: C_30  and  O_31 
REMARK   11  A    between atoms: C_30  and  C_32 
ROOT
HETATM    1  C   UNL     1      30.008  37.924  50.761  1.00  0.00     0.052 C 
HETATM    2  C   UNL     1      29.149  38.425  49.644  1.00  0.00    -0.015 A 
HETATM    3  C   UNL     1      28.232  39.584  49.934  1.00  0.00     0.144 A 
HETATM    4  N   UNL     1      28.188  40.071  51.132  1.00  0.00    -0.217 NA
HETATM    5  N   UNL     1      27.481  40.073  48.880  1.00  0.00    -0.272 N 
HETATM    6  C   UNL     1      26.678  41.184  49.073  1.00  0.00     0.266 C 
HETATM    7  O   UNL     1      26.096  41.779  48.161  1.00  0.00    -0.267 OA
HETATM    8  C   UNL     1      26.548  41.672  50.481  1.00  0.00     0.074 C 
HETATM    9  C   UNL     1      27.332  41.099  51.421  1.00  0.00     0.121 C 
HETATM   10  C   UNL     1      27.544  39.492  47.619  1.00  0.00     0.102 A 
HETATM   11  C   UNL     1      28.328  38.438  47.367  1.00  0.00     0.018 A 
HETATM   12  C   UNL     1      29.158  37.898  48.409  1.00  0.00     0.012 A 
ENDROOT
BRANCH   8  13
HETATM   13  C   UNL     1      25.559  42.704  50.763  1.00  0.00     0.045 C 
BRANCH  13  14
HETATM   14  C   UNL     1      25.667  44.003  50.452  1.00  0.00     0.077 A 
HETATM   15  S   UNL     1      27.083  44.857  50.002  1.00  0.00    -0.055 SA
HETATM   16  C   UNL     1      26.232  46.389  49.900  1.00  0.00     0.148 A 
HETATM   17  S   UNL     1      27.035  47.813  49.550  1.00  0.00    -0.052 SA
HETATM   18  N   UNL     1      24.877  46.207  50.139  1.00  0.00    -0.298 N 
HETATM   19  C   UNL     1      24.493  44.918  50.472  1.00  0.00     0.266 A 
HETATM   20  O   UNL     1      23.369  44.530  50.753  1.00  0.00    -0.266 OA
BRANCH  18  21
HETATM   21  C   UNL     1      23.933  47.336  50.046  1.00  0.00     0.138 C 
BRANCH  21  22
HETATM   22  C   UNL     1      23.125  47.523  48.756  1.00  0.00     0.059 C 
BRANCH  22  23
HETATM   23  C   UNL     1      22.200  48.725  48.705  1.00  0.00    -0.057 A 
HETATM   24  C   UNL     1      20.814  48.658  48.889  1.00  0.00     0.010 A 
HETATM   25  C   UNL     1      20.037  49.821  48.878  1.00  0.00     0.037 A 
HETATM   26  C   UNL     1      20.622  51.073  48.687  1.00  0.00     0.068 A 
HETATM   27  C   UNL     1      21.997  51.152  48.486  1.00  0.00     0.037 A 
HETATM   28  C   UNL     1      22.777  49.990  48.497  1.00  0.00     0.010 A 
BRANCH  26  29
HETATM   29  O   UNL     1      19.749  52.125  48.717  1.00  0.00    -0.356 OA
HETATM   30  C   UNL     1      18.688  52.049  49.661  1.00  0.00     0.210 C 
ENDBRANCH  26  29
ENDBRANCH  22  23
ENDBRANCH  21  22
ENDBRANCH  18  21
ENDBRANCH  13  14
ENDBRANCH   8  13
BRANCH   9  31
HETATM   31  N   UNL     1      27.294  41.455  52.767  1.00  0.00    -0.274 NA
HETATM   32  H   UNL     1      26.797  40.680  53.224  1.00  0.00     0.129 HD
BRANCH  31  33
HETATM   33  C   UNL     1      28.524  41.667  53.551  1.00  0.00     0.130 C 
BRANCH  33  34
HETATM   34  C   UNL     1      29.138  43.061  53.271  1.00  0.00     0.164 C 
BRANCH  34  35
HETATM   35  O   UNL     1      30.235  42.936  52.353  1.00  0.00    -0.390 OA
HETATM   36  H   UNL     1      30.095  43.597  51.652  1.00  0.00     0.210 HD
ENDBRANCH  34  35
BRANCH  34  37
HETATM   37  C   UNL     1      29.575  43.817  54.511  1.00  0.00    -0.029 A 
HETATM   38  C   UNL     1      30.669  43.362  55.263  1.00  0.00     0.010 A 
HETATM   39  C   UNL     1      31.074  44.042  56.414  1.00  0.00     0.001 A 
HETATM   40  C   UNL     1      30.391  45.183  56.828  1.00  0.00     0.000 A 
HETATM   41  C   UNL     1      29.303  45.647  56.092  1.00  0.00     0.001 A 
HETATM   42  C   UNL     1      28.898  44.969  54.941  1.00  0.00     0.010 A 
ENDBRANCH  34  37
ENDBRANCH  33  34
ENDBRANCH  31  33
ENDBRANCH   9  31
TORSDOF 11
ENDMDL
MODEL 2
REMARK VINA RESULT:     -10.2      2.029      5.826
REMARK  11 active torsions:
REMARK  status: ('A' for Active; 'I' for Inactive)
REMARK    1  A    between atoms: C_8  and  C_9 
REMARK    2  A    between atoms: C_9  and  C_10 
REMARK    3  A    between atoms: N_14  and  C_15 
REMARK    4  A    between atoms: C_15  and  C_16 
REMARK    5  A    between atoms: C_16  and  C_17 
REMARK    6  A    between atoms: C_20  and  O_21 
REMARK    7  A    between atoms: C_27  and  N_28 
REMARK    8  A    between atoms: N_28  and  C_29 
REMARK    9  A    between atoms: C_29  and  C_30 
REMARK   10  A    between atoms: C_30  and  O_31 
REMARK   11  A    between atoms: C_30  and  C_32 
ROOT
HETATM    1  C   UNL     1      29.666  42.807  54.253  1.00  0.00     0.052 C 
HETATM    2  C   UNL     1      29.059  44.144  54.544  1.00  0.00    -0.015 A 
HETATM    3  C   UNL     1      27.926  44.603  53.664  1.00  0.00     0.144 A 
HETATM    4  N   UNL     1      27.552  43.857  52.675  1.00  0.00    -0.217 NA
HETATM    5  N   UNL     1      27.338  45.816  53.975  1.00  0.00    -0.272 N 
HETATM    6  C   UNL     1      26.245  46.250  53.246  1.00  0.00     0.266 C 
HETATM    7  O   UNL     1      25.565  47.236  53.545  1.00  0.00    -0.267 OA
HETATM    8  C   UNL     1      25.888  45.439  52.040  1.00  0.00     0.074 C 
HETATM    9  C   UNL     1      26.550  44.278  51.843  1.00  0.00     0.121 C 
HETATM   10  C   UNL     1      27.800  46.592  55.031  1.00  0.00     0.102 A 
HETATM   11  C   UNL     1      28.831  46.206  55.791  1.00  0.00     0.018 A 
HETATM   12  C   UNL     1      29.469  44.942  55.542  1.00  0.00     0.012 A 
ENDROOT
BRANCH   8  13
HETATM   13  C   UNL     1      24.881  45.968  51.129  1.00  0.00     0.045 C 
BRANCH  13  14
HETATM   14  C   UNL     1      25.035  47.019  50.311  1.00  0.00     0.077 A 
HETATM   15  S   UNL     1      26.482  47.864  49.954  1.00  0.00    -0.055 SA
HETATM   16  C   UNL     1      25.655  49.026  48.931  1.00  0.00     0.148 A 
HETATM   17  S   UNL     1      26.468  50.304  48.223  1.00  0.00    -0.052 SA
HETATM   18  N   UNL     1      24.309  48.704  48.823  1.00  0.00    -0.298 N 
HETATM   19  C   UNL     1      23.889  47.619  49.575  1.00  0.00     0.266 A 
HETATM   20  O   UNL     1      22.753  47.175  49.663  1.00  0.00    -0.266 OA
BRANCH  18  21
HETATM   21  C   UNL     1      23.408  49.492  47.962  1.00  0.00     0.138 C 
BRANCH  21  22
HETATM   22  C   UNL     1      22.889  50.843  48.471  1.00  0.00     0.059 C 
BRANCH  22  23
HETATM   23  C   UNL     1      21.444  50.883  48.932  1.00  0.00    -0.057 A 
HETATM   24  C   UNL     1      20.906  50.032  49.904  1.00  0.00     0.010 A 
HETATM   25  C   UNL     1      19.574  50.168  50.310  1.00  0.00     0.037 A 
HETATM   26  C   UNL     1      18.753  51.152  49.761  1.00  0.00     0.068 A 
HETATM   27  C   UNL     1      19.271  51.993  48.780  1.00  0.00     0.037 A 
HETATM   28  C   UNL     1      20.604  51.860  48.372  1.00  0.00     0.010 A 
BRANCH  26  29
HETATM   29  O   UNL     1      17.481  51.183  50.262  1.00  0.00    -0.356 OA
HETATM   30  C   UNL     1      16.510  51.887  49.498  1.00  0.00     0.210 C 
ENDBRANCH  26  29
ENDBRANCH  22  23
ENDBRANCH  21  22
ENDBRANCH  18  21
ENDBRANCH  13  14
ENDBRANCH   8  13
BRANCH   9  31
HETATM   31  N   UNL     1      26.319  43.443  50.752  1.00  0.00    -0.274 NA
HETATM   32  H   UNL     1      26.256  44.081  49.949  1.00  0.00     0.129 HD
BRANCH  31  33
HETATM   33  C   UNL     1      27.276  42.391  50.362  1.00  0.00     0.130 C 
BRANCH  33  34
HETATM   34  C   UNL     1      26.745  40.982  50.726  1.00  0.00     0.164 C 
BRANCH  34  35
HETATM   35  O   UNL     1      26.871  40.763  52.139  1.00  0.00    -0.390 OA
HETATM   36  H   UNL     1      26.428  39.920  52.336  1.00  0.00     0.210 HD
ENDBRANCH  34  35
BRANCH  34  37
HETATM   37  C   UNL     1      27.394  39.847  49.958  1.00  0.00    -0.029 A 
HETATM   38  C   UNL     1      28.671  39.394  50.319  1.00  0.00     0.010 A 
HETATM   39  C   UNL     1      29.285  38.357  49.613  1.00  0.00     0.001 A 
HETATM   40  C   UNL     1      28.631  37.762  48.537  1.00  0.00     0.000 A 
HETATM   41  C   UNL     1      27.363  38.200  48.166  1.00  0.00     0.001 A 
HETATM   42  C   UNL     1      26.747  39.236  48.872  1.00  0.00     0.010 A 
ENDBRANCH  34  37
ENDBRANCH  33  34
ENDBRANCH  31  33
ENDBRANCH   9  31
TORSDOF 11
ENDMDL
MODEL 3
REMARK VINA RESULT:      -9.8      2.012      3.016
REMARK  11 active torsions:
REMARK  status: ('A' for Active; 'I' for Inactive)
REMARK    1  A    between atoms: C_8  and  C_9 
REMARK    2  A    between atoms: C_9  and  C_10 
REMARK    3  A    between atoms: N_14  and  C_15 
REMARK    4  A    between atoms: C_15  and  C_16 
REMARK    5  A    between atoms: C_16  and  C_17 
REMARK    6  A    between atoms: C_20  and  O_21 
REMARK    7  A    between atoms: C_27  and  N_28 
REMARK    8  A    between atoms: N_28  and  C_29 
REMARK    9  A    between atoms: C_29  and  C_30 
REMARK   10  A    between atoms: C_30  and  O_31 
REMARK   11  A    between atoms: C_30  and  C_32 
ROOT
HETATM    1  C   UNL     1      27.826  40.151  49.919  1.00  0.00     0.052 C 
HETATM    2  C   UNL     1      26.601  40.610  49.191  1.00  0.00    -0.015 A 
HETATM    3  C   UNL     1      26.106  42.005  49.469  1.00  0.00     0.144 A 
HETATM    4  N   UNL     1      26.721  42.732  50.344  1.00  0.00    -0.217 NA
HETATM    5  N   UNL     1      25.004  42.436  48.751  1.00  0.00    -0.272 N 
HETATM    6  C   UNL     1      24.553  43.734  48.912  1.00  0.00     0.266 C 
HETATM    7  O   UNL     1      23.680  44.252  48.208  1.00  0.00    -0.267 OA
HETATM    8  C   UNL     1      25.198  44.532  50.001  1.00  0.00     0.074 C 
HETATM    9  C   UNL     1      26.260  43.987  50.635  1.00  0.00     0.121 C 
HETATM   10  C   UNL     1      24.362  41.602  47.845  1.00  0.00     0.102 A 
HETATM   11  C   UNL     1      24.775  40.349  47.624  1.00  0.00     0.018 A 
HETATM   12  C   UNL     1      25.932  39.846  48.313  1.00  0.00     0.012 A 
ENDROOT
BRANCH   8  13
HETATM   13  C   UNL     1      24.619  45.824  50.343  1.00  0.00     0.045 C 
BRANCH  13  14
HETATM   14  C   UNL     1      24.935  47.000  49.782  1.00  0.00     0.077 A 
HETATM   15  S   UNL     1      26.489  47.710  49.644  1.00  0.00    -0.055 SA
HETATM   16  C   UNL     1      25.853  49.164  48.892  1.00  0.00     0.148 A 
HETATM   17  S   UNL     1      26.846  50.450  48.499  1.00  0.00    -0.052 SA
HETATM   18  N   UNL     1      24.484  49.048  48.695  1.00  0.00    -0.298 N 
HETATM   19  C   UNL     1      23.903  47.888  49.181  1.00  0.00     0.266 A 
HETATM   20  O   UNL     1      22.719  47.585  49.151  1.00  0.00    -0.266 OA
BRANCH  18  21
HETATM   21  C   UNL     1      23.724  50.114  48.018  1.00  0.00     0.138 C 
BRANCH  21  22
HETATM   22  C   UNL     1      22.858  51.059  48.861  1.00  0.00     0.059 C 
BRANCH  22  23
HETATM   23  C   UNL     1      21.355  50.910  48.716  1.00  0.00    -0.057 A 
HETATM   24  C   UNL     1      20.720  50.457  47.555  1.00  0.00     0.010 A 
HETATM   25  C   UNL     1      19.330  50.299  47.519  1.00  0.00     0.037 A 
HETATM   26  C   UNL     1      18.546  50.586  48.636  1.00  0.00     0.068 A 
HETATM   27  C   UNL     1      19.164  51.054  49.792  1.00  0.00     0.037 A 
HETATM   28  C   UNL     1      20.554  51.212  49.831  1.00  0.00     0.010 A 
BRANCH  26  29
HETATM   29  O   UNL     1      17.206  50.370  48.468  1.00  0.00    -0.356 OA
HETATM   30  C   UNL     1      16.330  51.376  48.958  1.00  0.00     0.210 C 
ENDBRANCH  26  29
ENDBRANCH  22  23
ENDBRANCH  21  22
ENDBRANCH  18  21
ENDBRANCH  13  14
ENDBRANCH   8  13
BRANCH   9  31
HETATM   31  N   UNL     1      26.936  44.622  51.674  1.00  0.00    -0.274 NA
HETATM   32  H   UNL     1      26.733  45.621  51.541  1.00  0.00     0.129 HD
BRANCH  31  33
HETATM   33  C   UNL     1      26.638  44.332  53.088  1.00  0.00     0.130 C 
BRANCH  33  34
HETATM   34  C   UNL     1      27.619  43.283  53.669  1.00  0.00     0.164 C 
BRANCH  34  35
HETATM   35  O   UNL     1      26.887  42.257  54.356  1.00  0.00    -0.390 OA
HETATM   36  H   UNL     1      27.400  41.435  54.269  1.00  0.00     0.210 HD
ENDBRANCH  34  35
BRANCH  34  37
HETATM   37  C   UNL     1      28.693  43.858  54.573  1.00  0.00    -0.029 A 
HETATM   38  C   UNL     1      28.510  45.114  55.171  1.00  0.00     0.010 A 
HETATM   39  C   UNL     1      29.496  45.660  55.996  1.00  0.00     0.001 A 
HETATM   40  C   UNL     1      30.676  44.959  56.231  1.00  0.00     0.000 A 
HETATM   41  C   UNL     1      30.873  43.711  55.645  1.00  0.00     0.001 A 
HETATM   42  C   UNL     1      29.887  43.164  54.821  1.00  0.00     0.010 A 
ENDBRANCH  34  37
ENDBRANCH  33  34
ENDBRANCH  31  33
ENDBRANCH   9  31
TORSDOF 11
ENDMDL
MODEL 4
REMARK VINA RESULT:      -9.5      2.385      5.910
REMARK  11 active torsions:
REMARK  status: ('A' for Active; 'I' for Inactive)
REMARK    1  A    between atoms: C_8  and  C_9 
REMARK    2  A    between atoms: C_9  and  C_10 
REMARK    3  A    between atoms: N_14  and  C_15 
REMARK    4  A    between atoms: C_15  and  C_16 
REMARK    5  A    between atoms: C_16  and  C_17 
REMARK    6  A    between atoms: C_20  and  O_21 
REMARK    7  A    between atoms: C_27  and  N_28 
REMARK    8  A    between atoms: N_28  and  C_29 
REMARK    9  A    between atoms: C_29  and  C_30 
REMARK   10  A    between atoms: C_30  and  O_31 
REMARK   11  A    between atoms: C_30  and  C_32 
ROOT
HETATM    1  C   UNL     1      28.136  42.007  53.668  1.00  0.00     0.052 C 
HETATM    2  C   UNL     1      27.865  43.457  53.921  1.00  0.00    -0.015 A 
HETATM    3  C   UNL     1      27.321  44.275  52.780  1.00  0.00     0.144 A 
HETATM    4  N   UNL     1      27.150  43.716  51.626  1.00  0.00    -0.217 NA
HETATM    5  N   UNL     1      27.025  45.601  53.041  1.00  0.00    -0.272 N 
HETATM    6  C   UNL     1      26.452  46.379  52.050  1.00  0.00     0.266 C 
HETATM    7  O   UNL     1      26.015  47.519  52.235  1.00  0.00    -0.267 OA
HETATM    8  C   UNL     1      26.360  45.760  50.691  1.00  0.00     0.074 C 
HETATM    9  C   UNL     1      26.693  44.456  50.569  1.00  0.00     0.121 C 
HETATM   10  C   UNL     1      27.256  46.160  54.292  1.00  0.00     0.102 A 
HETATM   11  C   UNL     1      27.775  45.446  55.297  1.00  0.00     0.018 A 
HETATM   12  C   UNL     1      28.079  44.054  55.104  1.00  0.00     0.012 A 
ENDROOT
BRANCH   8  13
HETATM   13  C   UNL     1      25.958  46.606  49.575  1.00  0.00     0.045 C 
BRANCH  13  14
HETATM   14  C   UNL     1      24.716  47.048  49.331  1.00  0.00     0.077 A 
HETATM   15  S   UNL     1      23.285  46.118  49.178  1.00  0.00    -0.055 SA
HETATM   16  C   UNL     1      22.305  47.527  48.808  1.00  0.00     0.148 A 
HETATM   17  S   UNL     1      20.680  47.390  48.439  1.00  0.00    -0.052 SA
HETATM   18  N   UNL     1      23.071  48.683  48.881  1.00  0.00    -0.298 N 
HETATM   19  C   UNL     1      24.418  48.495  49.145  1.00  0.00     0.266 A 
HETATM   20  O   UNL     1      25.284  49.355  49.223  1.00  0.00    -0.266 OA
BRANCH  18  21
HETATM   21  C   UNL     1      22.462  50.009  48.676  1.00  0.00     0.138 C 
BRANCH  21  22
HETATM   22  C   UNL     1      21.668  50.646  49.824  1.00  0.00     0.059 C 
BRANCH  22  23
HETATM   23  C   UNL     1      20.276  51.150  49.486  1.00  0.00    -0.057 A 
HETATM   24  C   UNL     1      19.996  52.051  48.453  1.00  0.00     0.010 A 
HETATM   25  C   UNL     1      18.678  52.427  48.174  1.00  0.00     0.037 A 
HETATM   26  C   UNL     1      17.613  51.912  48.913  1.00  0.00     0.068 A 
HETATM   27  C   UNL     1      17.879  51.028  49.954  1.00  0.00     0.037 A 
HETATM   28  C   UNL     1      19.197  50.650  50.236  1.00  0.00     0.010 A 
BRANCH  26  29
HETATM   29  O   UNL     1      16.378  52.350  48.521  1.00  0.00    -0.356 OA
HETATM   30  C   UNL     1      15.305  52.130  49.428  1.00  0.00     0.210 C 
ENDBRANCH  26  29
ENDBRANCH  22  23
ENDBRANCH  21  22
ENDBRANCH  18  21
ENDBRANCH  13  14
ENDBRANCH   8  13
BRANCH   9  31
HETATM   31  N   UNL     1      26.663  43.770  49.357  1.00  0.00    -0.274 NA
HETATM   32  H   UNL     1      27.389  43.049  49.452  1.00  0.00     0.129 HD
BRANCH  31  33
HETATM   33  C   UNL     1      25.453  43.070  48.890  1.00  0.00     0.130 C 
BRANCH  33  34
HETATM   34  C   UNL     1      25.390  41.624  49.440  1.00  0.00     0.164 C 
BRANCH  34  35
HETATM   35  O   UNL     1      25.056  41.647  50.837  1.00  0.00    -0.390 OA
HETATM   36  H   UNL     1      24.317  41.027  50.962  1.00  0.00     0.210 HD
ENDBRANCH  34  35
BRANCH  34  37
HETATM   37  C   UNL     1      26.648  40.807  49.215  1.00  0.00    -0.029 A 
HETATM   38  C   UNL     1      27.425  40.396  50.308  1.00  0.00     0.010 A 
HETATM   39  C   UNL     1      28.592  39.655  50.114  1.00  0.00     0.001 A 
HETATM   40  C   UNL     1      28.999  39.318  48.825  1.00  0.00     0.000 A 
HETATM   41  C   UNL     1      28.239  39.718  47.729  1.00  0.00     0.001 A 
HETATM   42  C   UNL     1      27.071  40.458  47.923  1.00  0.00     0.010 A 
ENDBRANCH  34  37
ENDBRANCH  33  34
ENDBRANCH  31  33
ENDBRANCH   9  31
TORSDOF 11
ENDMDL
MODEL 5
REMARK VINA RESULT:      -9.4      1.895      2.685
REMARK  11 active torsions:
REMARK  status: ('A' for Active; 'I' for Inactive)
REMARK    1  A    between atoms: C_8  and  C_9 
REMARK    2  A    between atoms: C_9  and  C_10 
REMARK    3  A    between atoms: N_14  and  C_15 
REMARK    4  A    between atoms: C_15  and  C_16 
REMARK    5  A    between atoms: C_16  and  C_17 
REMARK    6  A    between atoms: C_20  and  O_21 
REMARK    7  A    between atoms: C_27  and  N_28 
REMARK    8  A    between atoms: N_28  and  C_29 
REMARK    9  A    between atoms: C_29  and  C_30 
REMARK   10  A    between atoms: C_30  and  O_31 
REMARK   11  A    between atoms: C_30  and  C_32 
ROOT
HETATM    1  C   UNL     1      28.900  40.583  52.275  1.00  0.00     0.052 C 
HETATM    2  C   UNL     1      27.921  40.664  51.146  1.00  0.00    -0.015 A 
HETATM    3  C   UNL     1      27.153  41.948  50.978  1.00  0.00     0.144 A 
HETATM    4  N   UNL     1      27.331  42.907  51.828  1.00  0.00    -0.217 NA
HETATM    5  N   UNL     1      26.290  42.029  49.899  1.00  0.00    -0.272 N 
HETATM    6  C   UNL     1      25.616  43.213  49.654  1.00  0.00     0.266 C 
HETATM    7  O   UNL     1      24.949  43.428  48.638  1.00  0.00    -0.267 OA
HETATM    8  C   UNL     1      25.741  44.277  50.699  1.00  0.00     0.074 C 
HETATM    9  C   UNL     1      26.612  44.066  51.711  1.00  0.00     0.121 C 
HETATM   10  C   UNL     1      26.113  40.957  49.034  1.00  0.00     0.102 A 
HETATM   11  C   UNL     1      26.765  39.801  49.202  1.00  0.00     0.018 A 
HETATM   12  C   UNL     1      27.700  39.658  50.285  1.00  0.00     0.012 A 
ENDROOT
BRANCH   8  13
HETATM   13  C   UNL     1      24.890  45.454  50.588  1.00  0.00     0.045 C 
BRANCH  13  14
HETATM   14  C   UNL     1      25.247  46.636  50.066  1.00  0.00     0.077 A 
HETATM   15  S   UNL     1      26.832  47.200  49.739  1.00  0.00    -0.055 SA
HETATM   16  C   UNL     1      26.256  48.767  49.195  1.00  0.00     0.148 A 
HETATM   17  S   UNL     1      27.315  49.978  48.742  1.00  0.00    -0.052 SA
HETATM   18  N   UNL     1      24.868  48.802  49.203  1.00  0.00    -0.298 N 
HETATM   19  C   UNL     1      24.241  47.668  49.692  1.00  0.00     0.266 A 
HETATM   20  O   UNL     1      23.039  47.485  49.824  1.00  0.00    -0.266 OA
BRANCH  18  21
HETATM   21  C   UNL     1      24.138  49.990  48.724  1.00  0.00     0.138 C 
BRANCH  21  22
HETATM   22  C   UNL     1      23.149  49.835  47.562  1.00  0.00     0.059 C 
BRANCH  22  23
HETATM   23  C   UNL     1      21.687  50.091  47.880  1.00  0.00    -0.057 A 
HETATM   24  C   UNL     1      20.666  49.153  47.689  1.00  0.00     0.010 A 
HETATM   25  C   UNL     1      19.349  49.450  48.056  1.00  0.00     0.037 A 
HETATM   26  C   UNL     1      19.022  50.683  48.620  1.00  0.00     0.068 A 
HETATM   27  C   UNL     1      20.025  51.631  48.799  1.00  0.00     0.037 A 
HETATM   28  C   UNL     1      21.344  51.336  48.434  1.00  0.00     0.010 A 
BRANCH  26  29
HETATM   29  O   UNL     1      17.702  50.832  48.946  1.00  0.00    -0.356 OA
HETATM   30  C   UNL     1      17.371  51.933  49.782  1.00  0.00     0.210 C 
ENDBRANCH  26  29
ENDBRANCH  22  23
ENDBRANCH  21  22
ENDBRANCH  18  21
ENDBRANCH  13  14
ENDBRANCH   8  13
BRANCH   9  31
HETATM   31  N   UNL     1      26.808  44.972  52.750  1.00  0.00    -0.274 NA
HETATM   32  H   UNL     1      26.083  44.734  53.439  1.00  0.00     0.129 HD
BRANCH  31  33
HETATM   33  C   UNL     1      28.076  45.033  53.500  1.00  0.00     0.130 C 
BRANCH  33  34
HETATM   34  C   UNL     1      27.884  45.710  54.880  1.00  0.00     0.164 C 
BRANCH  34  35
HETATM   35  O   UNL     1      27.752  47.130  54.713  1.00  0.00    -0.390 OA
HETATM   36  H   UNL     1      28.294  47.548  55.404  1.00  0.00     0.210 HD
ENDBRANCH  34  35
BRANCH  34  37
HETATM   37  C   UNL     1      28.970  45.399  55.892  1.00  0.00    -0.029 A 
HETATM   38  C   UNL     1      28.989  46.060  57.129  1.00  0.00     0.010 A 
HETATM   39  C   UNL     1      29.990  45.792  58.065  1.00  0.00     0.001 A 
HETATM   40  C   UNL     1      30.985  44.861  57.775  1.00  0.00     0.000 A 
HETATM   41  C   UNL     1      30.980  44.196  56.552  1.00  0.00     0.001 A 
HETATM   42  C   UNL     1      29.979  44.463  55.616  1.00  0.00     0.010 A 
ENDBRANCH  34  37
ENDBRANCH  33  34
ENDBRANCH  31  33
ENDBRANCH   9  31
TORSDOF 11
ENDMDL
MODEL 6
REMARK VINA RESULT:      -9.2      2.543      6.292
REMARK  11 active torsions:
REMARK  status: ('A' for Active; 'I' for Inactive)
REMARK    1  A    between atoms: C_8  and  C_9 
REMARK    2  A    between atoms: C_9  and  C_10 
REMARK    3  A    between atoms: N_14  and  C_15 
REMARK    4  A    between atoms: C_15  and  C_16 
REMARK    5  A    between atoms: C_16  and  C_17 
REMARK    6  A    between atoms: C_20  and  O_21 
REMARK    7  A    between atoms: C_27  and  N_28 
REMARK    8  A    between atoms: N_28  and  C_29 
REMARK    9  A    between atoms: C_29  and  C_30 
REMARK   10  A    between atoms: C_30  and  O_31 
REMARK   11  A    between atoms: C_30  and  C_32 
ROOT
HETATM    1  C   UNL     1      28.337  40.512  50.855  1.00  0.00     0.052 C 
HETATM    2  C   UNL     1      28.098  41.549  51.908  1.00  0.00    -0.015 A 
HETATM    3  C   UNL     1      27.118  42.648  51.594  1.00  0.00     0.144 A 
HETATM    4  N   UNL     1      26.559  42.683  50.428  1.00  0.00    -0.217 NA
HETATM    5  N   UNL     1      26.866  43.571  52.594  1.00  0.00    -0.272 N 
HETATM    6  C   UNL     1      25.919  44.559  52.386  1.00  0.00     0.266 C 
HETATM    7  O   UNL     1      25.518  45.326  53.267  1.00  0.00    -0.267 OA
HETATM    8  C   UNL     1      25.357  44.659  51.002  1.00  0.00     0.074 C 
HETATM    9  C   UNL     1      25.696  43.698  50.114  1.00  0.00     0.121 C 
HETATM   10  C   UNL     1      27.518  43.505  53.818  1.00  0.00     0.102 A 
HETATM   11  C   UNL     1      28.418  42.552  54.087  1.00  0.00     0.018 A 
HETATM   12  C   UNL     1      28.706  41.543  53.104  1.00  0.00     0.012 A 
ENDROOT
BRANCH   8  13
HETATM   13  C   UNL     1      24.517  45.806  50.682  1.00  0.00     0.045 C 
BRANCH  13  14
HETATM   14  C   UNL     1      24.917  46.924  50.060  1.00  0.00     0.077 A 
HETATM   15  S   UNL     1      26.515  47.525  49.911  1.00  0.00    -0.055 SA
HETATM   16  C   UNL     1      25.985  48.969  49.064  1.00  0.00     0.148 A 
HETATM   17  S   UNL     1      27.065  50.165  48.616  1.00  0.00    -0.052 SA
HETATM   18  N   UNL     1      24.615  48.928  48.847  1.00  0.00    -0.298 N 
HETATM   19  C   UNL     1      23.953  47.838  49.388  1.00  0.00     0.266 A 
HETATM   20  O   UNL     1      22.753  47.608  49.352  1.00  0.00    -0.266 OA
BRANCH  18  21
HETATM   21  C   UNL     1      23.936  49.998  48.094  1.00  0.00     0.138 C 
BRANCH  21  22
HETATM   22  C   UNL     1      23.011  50.963  48.846  1.00  0.00     0.059 C 
BRANCH  22  23
HETATM   23  C   UNL     1      21.526  50.846  48.551  1.00  0.00    -0.057 A 
HETATM   24  C   UNL     1      20.525  51.469  49.304  1.00  0.00     0.010 A 
HETATM   25  C   UNL     1      19.180  51.353  48.934  1.00  0.00     0.037 A 
HETATM   26  C   UNL     1      18.806  50.617  47.810  1.00  0.00     0.068 A 
HETATM   27  C   UNL     1      19.791  49.978  47.063  1.00  0.00     0.037 A 
HETATM   28  C   UNL     1      21.137  50.094  47.430  1.00  0.00     0.010 A 
BRANCH  26  29
HETATM   29  O   UNL     1      17.462  50.602  47.556  1.00  0.00    -0.356 OA
HETATM   30  C   UNL     1      17.065  50.236  46.241  1.00  0.00     0.210 C 
ENDBRANCH  26  29
ENDBRANCH  22  23
ENDBRANCH  21  22
ENDBRANCH  18  21
ENDBRANCH  13  14
ENDBRANCH   8  13
BRANCH   9  31
HETATM   31  N   UNL     1      25.251  43.688  48.794  1.00  0.00    -0.274 NA
HETATM   32  H   UNL     1      26.106  43.800  48.234  1.00  0.00     0.129 HD
BRANCH  31  33
HETATM   33  C   UNL     1      24.539  42.532  48.222  1.00  0.00     0.130 C 
BRANCH  33  34
HETATM   34  C   UNL     1      23.004  42.698  48.343  1.00  0.00     0.164 C 
BRANCH  34  35
HETATM   35  O   UNL     1      22.351  41.463  48.010  1.00  0.00    -0.390 OA
HETATM   36  H   UNL     1      22.927  40.744  48.323  1.00  0.00     0.210 HD
ENDBRANCH  34  35
BRANCH  34  37
HETATM   37  C   UNL     1      22.426  43.835  47.523  1.00  0.00    -0.029 A 
HETATM   38  C   UNL     1      21.483  44.704  48.092  1.00  0.00     0.010 A 
HETATM   39  C   UNL     1      20.934  45.748  47.344  1.00  0.00     0.001 A 
HETATM   40  C   UNL     1      21.318  45.934  46.018  1.00  0.00     0.000 A 
HETATM   41  C   UNL     1      22.253  45.080  45.439  1.00  0.00     0.001 A 
HETATM   42  C   UNL     1      22.803  44.037  46.186  1.00  0.00     0.010 A 
ENDBRANCH  34  37
ENDBRANCH  33  34
ENDBRANCH  31  33
ENDBRANCH   9  31
TORSDOF 11
ENDMDL
MODEL 7
REMARK VINA RESULT:      -9.1      3.465      8.865
REMARK  11 active torsions:
REMARK  status: ('A' for Active; 'I' for Inactive)
REMARK    1  A    between atoms: C_8  and  C_9 
REMARK    2  A    between atoms: C_9  and  C_10 
REMARK    3  A    between atoms: N_14  and  C_15 
REMARK    4  A    between atoms: C_15  and  C_16 
REMARK    5  A    between atoms: C_16  and  C_17 
REMARK    6  A    between atoms: C_20  and  O_21 
REMARK    7  A    between atoms: C_27  and  N_28 
REMARK    8  A    between atoms: N_28  and  C_29 
REMARK    9  A    between atoms: C_29  and  C_30 
REMARK   10  A    between atoms: C_30  and  O_31 
REMARK   11  A    between atoms: C_30  and  C_32 
ROOT
HETATM    1  C   UNL     1      28.389  47.023  54.896  1.00  0.00     0.052 C 
HETATM    2  C   UNL     1      28.933  45.631  54.988  1.00  0.00    -0.015 A 
HETATM    3  C   UNL     1      28.351  44.592  54.066  1.00  0.00     0.144 A 
HETATM    4  N   UNL     1      27.387  44.922  53.269  1.00  0.00    -0.217 NA
HETATM    5  N   UNL     1      28.898  43.323  54.124  1.00  0.00    -0.272 N 
HETATM    6  C   UNL     1      28.453  42.349  53.247  1.00  0.00     0.266 C 
HETATM    7  O   UNL     1      28.983  41.241  53.121  1.00  0.00    -0.267 OA
HETATM    8  C   UNL     1      27.267  42.705  52.406  1.00  0.00     0.074 C 
HETATM    9  C   UNL     1      26.823  43.980  52.453  1.00  0.00     0.121 C 
HETATM   10  C   UNL     1      29.912  43.014  55.021  1.00  0.00     0.102 A 
HETATM   11  C   UNL     1      30.405  43.924  55.869  1.00  0.00     0.018 A 
HETATM   12  C   UNL     1      29.903  45.271  55.842  1.00  0.00     0.012 A 
ENDROOT
BRANCH   8  13
HETATM   13  C   UNL     1      26.638  41.650  51.623  1.00  0.00     0.045 C 
BRANCH  13  14
HETATM   14  C   UNL     1      27.186  41.014  50.578  1.00  0.00     0.077 A 
HETATM   15  S   UNL     1      27.807  39.417  50.532  1.00  0.00    -0.055 SA
HETATM   16  C   UNL     1      28.327  39.574  48.862  1.00  0.00     0.148 A 
HETATM   17  S   UNL     1      29.146  38.343  48.082  1.00  0.00    -0.052 SA
HETATM   18  N   UNL     1      27.951  40.809  48.352  1.00  0.00    -0.298 N 
HETATM   19  C   UNL     1      27.335  41.667  49.248  1.00  0.00     0.266 A 
HETATM   20  O   UNL     1      26.950  42.808  49.035  1.00  0.00    -0.266 OA
BRANCH  18  21
HETATM   21  C   UNL     1      28.214  41.159  46.944  1.00  0.00     0.138 C 
BRANCH  21  22
HETATM   22  C   UNL     1      27.383  40.487  45.844  1.00  0.00     0.059 C 
BRANCH  22  23
HETATM   23  C   UNL     1      27.709  40.878  44.415  1.00  0.00    -0.057 A 
HETATM   24  C   UNL     1      26.973  41.803  43.666  1.00  0.00     0.010 A 
HETATM   25  C   UNL     1      27.371  42.148  42.370  1.00  0.00     0.037 A 
HETATM   26  C   UNL     1      28.508  41.582  41.794  1.00  0.00     0.068 A 
HETATM   27  C   UNL     1      29.239  40.648  42.521  1.00  0.00     0.037 A 
HETATM   28  C   UNL     1      28.844  40.302  43.819  1.00  0.00     0.010 A 
BRANCH  26  29
HETATM   29  O   UNL     1      28.790  42.021  40.530  1.00  0.00    -0.356 OA
HETATM   30  C   UNL     1      28.318  41.220  39.454  1.00  0.00     0.210 C 
ENDBRANCH  26  29
ENDBRANCH  22  23
ENDBRANCH  21  22
ENDBRANCH  18  21
ENDBRANCH  13  14
ENDBRANCH   8  13
BRANCH   9  31
HETATM   31  N   UNL     1      25.721  44.431  51.730  1.00  0.00    -0.274 NA
HETATM   32  H   UNL     1      24.911  44.021  52.213  1.00  0.00     0.129 HD
BRANCH  31  33
HETATM   33  C   UNL     1      25.422  45.866  51.582  1.00  0.00     0.130 C 
BRANCH  33  34
HETATM   34  C   UNL     1      24.998  46.208  50.132  1.00  0.00     0.164 C 
BRANCH  34  35
HETATM   35  O   UNL     1      25.300  45.106  49.262  1.00  0.00    -0.390 OA
HETATM   36  H   UNL     1      24.590  45.066  48.598  1.00  0.00     0.210 HD
ENDBRANCH  34  35
BRANCH  34  37
HETATM   37  C   UNL     1      25.598  47.489  49.585  1.00  0.00    -0.029 A 
HETATM   38  C   UNL     1      26.991  47.631  49.497  1.00  0.00     0.010 A 
HETATM   39  C   UNL     1      27.557  48.810  49.006  1.00  0.00     0.001 A 
HETATM   40  C   UNL     1      26.738  49.861  48.600  1.00  0.00     0.000 A 
HETATM   41  C   UNL     1      25.354  49.736  48.681  1.00  0.00     0.001 A 
HETATM   42  C   UNL     1      24.787  48.557  49.170  1.00  0.00     0.010 A 
ENDBRANCH  34  37
ENDBRANCH  33  34
ENDBRANCH  31  33
ENDBRANCH   9  31
TORSDOF 11
ENDMDL
MODEL 8
REMARK VINA RESULT:      -9.1      4.208     11.390
REMARK  11 active torsions:
REMARK  status: ('A' for Active; 'I' for Inactive)
REMARK    1  A    between atoms: C_8  and  C_9 
REMARK    2  A    between atoms: C_9  and  C_10 
REMARK    3  A    between atoms: N_14  and  C_15 
REMARK    4  A    between atoms: C_15  and  C_16 
REMARK    5  A    between atoms: C_16  and  C_17 
REMARK    6  A    between atoms: C_20  and  O_21 
REMARK    7  A    between atoms: C_27  and  N_28 
REMARK    8  A    between atoms: N_28  and  C_29 
REMARK    9  A    between atoms: C_29  and  C_30 
REMARK   10  A    between atoms: C_30  and  O_31 
REMARK   11  A    between atoms: C_30  and  C_32 
ROOT
HETATM    1  C   UNL     1      16.014  48.425  48.125  1.00  0.00     0.052 C 
HETATM    2  C   UNL     1      16.768  47.708  47.049  1.00  0.00    -0.015 A 
HETATM    3  C   UNL     1      18.246  47.501  47.252  1.00  0.00     0.144 A 
HETATM    4  N   UNL     1      18.812  47.980  48.312  1.00  0.00    -0.217 NA
HETATM    5  N   UNL     1      18.922  46.792  46.275  1.00  0.00    -0.272 N 
HETATM    6  C   UNL     1      20.266  46.508  46.447  1.00  0.00     0.266 C 
HETATM    7  O   UNL     1      20.911  45.755  45.710  1.00  0.00    -0.267 OA
HETATM    8  C   UNL     1      20.937  47.156  47.617  1.00  0.00     0.074 C 
HETATM    9  C   UNL     1      20.161  47.833  48.492  1.00  0.00     0.121 C 
HETATM   10  C   UNL     1      18.271  46.326  45.140  1.00  0.00     0.102 A 
HETATM   11  C   UNL     1      16.966  46.541  44.938  1.00  0.00     0.018 A 
HETATM   12  C   UNL     1      16.196  47.245  45.927  1.00  0.00     0.012 A 
ENDROOT
BRANCH   8  13
HETATM   13  C   UNL     1      22.387  47.055  47.721  1.00  0.00     0.045 C 
BRANCH  13  14
HETATM   14  C   UNL     1      23.060  46.252  48.557  1.00  0.00     0.077 A 
HETATM   15  S   UNL     1      22.854  44.565  48.782  1.00  0.00    -0.055 SA
HETATM   16  C   UNL     1      24.063  44.499  50.053  1.00  0.00     0.148 A 
HETATM   17  S   UNL     1      24.393  43.080  50.872  1.00  0.00    -0.052 SA
HETATM   18  N   UNL     1      24.651  45.744  50.228  1.00  0.00    -0.298 N 
HETATM   19  C   UNL     1      24.133  46.767  49.451  1.00  0.00     0.266 A 
HETATM   20  O   UNL     1      24.468  47.944  49.457  1.00  0.00    -0.266 OA
BRANCH  18  21
HETATM   21  C   UNL     1      25.747  45.935  51.195  1.00  0.00     0.138 C 
BRANCH  21  22
HETATM   22  C   UNL     1      25.424  45.921  52.695  1.00  0.00     0.059 C 
BRANCH  22  23
HETATM   23  C   UNL     1      26.609  45.977  53.643  1.00  0.00    -0.057 A 
HETATM   24  C   UNL     1      27.035  47.136  54.300  1.00  0.00     0.010 A 
HETATM   25  C   UNL     1      28.106  47.092  55.199  1.00  0.00     0.037 A 
HETATM   26  C   UNL     1      28.772  45.896  55.463  1.00  0.00     0.068 A 
HETATM   27  C   UNL     1      28.369  44.739  54.802  1.00  0.00     0.037 A 
HETATM   28  C   UNL     1      27.297  44.779  53.903  1.00  0.00     0.010 A 
BRANCH  26  29
HETATM   29  O   UNL     1      29.788  45.993  56.374  1.00  0.00    -0.356 OA
HETATM   30  C   UNL     1      30.644  44.866  56.500  1.00  0.00     0.210 C 
ENDBRANCH  26  29
ENDBRANCH  22  23
ENDBRANCH  21  22
ENDBRANCH  18  21
ENDBRANCH  13  14
ENDBRANCH   8  13
BRANCH   9  31
HETATM   31  N   UNL     1      20.667  48.492  49.610  1.00  0.00    -0.274 NA
HETATM   32  H   UNL     1      21.546  48.002  49.820  1.00  0.00     0.129 HD
BRANCH  31  33
HETATM   33  C   UNL     1      20.999  49.928  49.583  1.00  0.00     0.130 C 
BRANCH  33  34
HETATM   34  C   UNL     1      19.920  50.769  50.311  1.00  0.00     0.164 C 
BRANCH  34  35
HETATM   35  O   UNL     1      19.382  50.024  51.414  1.00  0.00    -0.390 OA
HETATM   36  H   UNL     1      20.079  49.413  51.711  1.00  0.00     0.210 HD
ENDBRANCH  34  35
BRANCH  34  37
HETATM   37  C   UNL     1      18.801  51.267  49.417  1.00  0.00    -0.029 A 
HETATM   38  C   UNL     1      19.043  51.516  48.058  1.00  0.00     0.010 A 
HETATM   39  C   UNL     1      18.024  51.986  47.227  1.00  0.00     0.001 A 
HETATM   40  C   UNL     1      16.752  52.217  47.745  1.00  0.00     0.000 A 
HETATM   41  C   UNL     1      16.495  51.975  49.092  1.00  0.00     0.001 A 
HETATM   42  C   UNL     1      17.513  51.504  49.923  1.00  0.00     0.010 A 
ENDBRANCH  34  37
ENDBRANCH  33  34
ENDBRANCH  31  33
ENDBRANCH   9  31
TORSDOF 11
ENDMDL
MODEL 9
REMARK VINA RESULT:      -9.0      3.048      5.741
REMARK  11 active torsions:
REMARK  status: ('A' for Active; 'I' for Inactive)
REMARK    1  A    between atoms: C_8  and  C_9 
REMARK    2  A    between atoms: C_9  and  C_10 
REMARK    3  A    between atoms: N_14  and  C_15 
REMARK    4  A    between atoms: C_15  and  C_16 
REMARK    5  A    between atoms: C_16  and  C_17 
REMARK    6  A    between atoms: C_20  and  O_21 
REMARK    7  A    between atoms: C_27  and  N_28 
REMARK    8  A    between atoms: N_28  and  C_29 
REMARK    9  A    between atoms: C_29  and  C_30 
REMARK   10  A    between atoms: C_30  and  O_31 
REMARK   11  A    between atoms: C_30  and  C_32 
ROOT
HETATM    1  C   UNL     1      26.347  43.411  54.848  1.00  0.00     0.052 C 
HETATM    2  C   UNL     1      26.300  44.833  54.385  1.00  0.00    -0.015 A 
HETATM    3  C   UNL     1      25.709  45.105  53.027  1.00  0.00     0.144 A 
HETATM    4  N   UNL     1      25.307  44.112  52.301  1.00  0.00    -0.217 NA
HETATM    5  N   UNL     1      25.623  46.428  52.631  1.00  0.00    -0.272 N 
HETATM    6  C   UNL     1      25.019  46.741  51.425  1.00  0.00     0.266 C 
HETATM    7  O   UNL     1      24.761  47.892  51.062  1.00  0.00    -0.267 OA
HETATM    8  C   UNL     1      24.658  45.586  50.545  1.00  0.00     0.074 C 
HETATM    9  C   UNL     1      24.803  44.341  51.049  1.00  0.00     0.121 C 
HETATM   10  C   UNL     1      26.097  47.455  53.437  1.00  0.00     0.102 A 
HETATM   11  C   UNL     1      26.659  47.214  54.628  1.00  0.00     0.018 A 
HETATM   12  C   UNL     1      26.753  45.865  55.114  1.00  0.00     0.012 A 
ENDROOT
BRANCH   8  13
HETATM   13  C   UNL     1      24.214  45.869  49.186  1.00  0.00     0.045 C 
BRANCH  13  14
HETATM   14  C   UNL     1      22.976  46.234  48.825  1.00  0.00     0.077 A 
HETATM   15  S   UNL     1      21.583  45.243  48.711  1.00  0.00    -0.055 SA
HETATM   16  C   UNL     1      20.586  46.561  48.119  1.00  0.00     0.148 A 
HETATM   17  S   UNL     1      18.989  46.322  47.686  1.00  0.00    -0.052 SA
HETATM   18  N   UNL     1      21.313  47.743  48.091  1.00  0.00    -0.298 N 
HETATM   19  C   UNL     1      22.647  47.636  48.446  1.00  0.00     0.266 A 
HETATM   20  O   UNL     1      23.482  48.529  48.464  1.00  0.00    -0.266 OA
BRANCH  18  21
HETATM   21  C   UNL     1      20.678  49.013  47.692  1.00  0.00     0.138 C 
BRANCH  21  22
HETATM   22  C   UNL     1      20.405  50.074  48.765  1.00  0.00     0.059 C 
BRANCH  22  23
HETATM   23  C   UNL     1      19.021  50.697  48.763  1.00  0.00    -0.057 A 
HETATM   24  C   UNL     1      17.845  49.996  48.475  1.00  0.00     0.010 A 
HETATM   25  C   UNL     1      16.601  50.634  48.545  1.00  0.00     0.037 A 
HETATM   26  C   UNL     1      16.502  51.978  48.904  1.00  0.00     0.068 A 
HETATM   27  C   UNL     1      17.667  52.691  49.176  1.00  0.00     0.037 A 
HETATM   28  C   UNL     1      18.912  52.055  49.108  1.00  0.00     0.010 A 
BRANCH  26  29
HETATM   29  O   UNL     1      15.226  52.468  48.949  1.00  0.00    -0.356 OA
HETATM   30  C   UNL     1      14.695  52.748  50.237  1.00  0.00     0.210 C 
ENDBRANCH  26  29
ENDBRANCH  22  23
ENDBRANCH  21  22
ENDBRANCH  18  21
ENDBRANCH  13  14
ENDBRANCH   8  13
BRANCH   9  31
HETATM   31  N   UNL     1      24.515  43.186  50.325  1.00  0.00    -0.274 NA
HETATM   32  H   UNL     1      24.753  43.425  49.354  1.00  0.00     0.129 HD
BRANCH  31  33
HETATM   33  C   UNL     1      25.189  41.905  50.605  1.00  0.00     0.130 C 
BRANCH  33  34
HETATM   34  C   UNL     1      26.664  41.927  50.131  1.00  0.00     0.164 C 
BRANCH  34  35
HETATM   35  O   UNL     1      26.937  40.766  49.332  1.00  0.00    -0.390 OA
HETATM   36  H   UNL     1      27.904  40.699  49.250  1.00  0.00     0.210 HD
ENDBRANCH  34  35
BRANCH  34  37
HETATM   37  C   UNL     1      27.683  42.048  51.248  1.00  0.00    -0.029 A 
HETATM   38  C   UNL     1      27.920  40.962  52.103  1.00  0.00     0.010 A 
HETATM   39  C   UNL     1      28.847  41.064  53.143  1.00  0.00     0.001 A 
HETATM   40  C   UNL     1      29.546  42.252  53.341  1.00  0.00     0.000 A 
HETATM   41  C   UNL     1      29.321  43.339  52.501  1.00  0.00     0.001 A 
HETATM   42  C   UNL     1      28.396  43.238  51.460  1.00  0.00     0.010 A 
ENDBRANCH  34  37
ENDBRANCH  33  34
ENDBRANCH  31  33
ENDBRANCH   9  31
TORSDOF 11
ENDMDL
MODEL 10
REMARK VINA RESULT:      -9.0      3.663     10.185
REMARK  11 active torsions:
REMARK  status: ('A' for Active; 'I' for Inactive)
REMARK    1  A    between atoms: C_8  and  C_9 
REMARK    2  A    between atoms: C_9  and  C_10 
REMARK    3  A    between atoms: N_14  and  C_15 
REMARK    4  A    between atoms: C_15  and  C_16 
REMARK    5  A    between atoms: C_16  and  C_17 
REMARK    6  A    between atoms: C_20  and  O_21 
REMARK    7  A    between atoms: C_27  and  N_28 
REMARK    8  A    between atoms: N_28  and  C_29 
REMARK    9  A    between atoms: C_29  and  C_30 
REMARK   10  A    between atoms: C_30  and  O_31 
REMARK   11  A    between atoms: C_30  and  C_32 
ROOT
HETATM    1  C   UNL     1      18.917  45.341  44.498  1.00  0.00     0.052 C 
HETATM    2  C   UNL     1      20.170  44.533  44.632  1.00  0.00    -0.015 A 
HETATM    3  C   UNL     1      20.790  44.427  46.000  1.00  0.00     0.144 A 
HETATM    4  N   UNL     1      20.250  45.063  46.990  1.00  0.00    -0.217 NA
HETATM    5  N   UNL     1      21.918  43.635  46.121  1.00  0.00    -0.272 N 
HETATM    6  C   UNL     1      22.484  43.441  47.369  1.00  0.00     0.266 C 
HETATM    7  O   UNL     1      23.391  42.636  47.597  1.00  0.00    -0.267 OA
HETATM    8  C   UNL     1      21.923  44.264  48.487  1.00  0.00     0.074 C 
HETATM    9  C   UNL     1      20.823  45.007  48.231  1.00  0.00     0.121 C 
HETATM   10  C   UNL     1      22.474  42.998  45.019  1.00  0.00     0.102 A 
HETATM   11  C   UNL     1      21.949  43.121  43.795  1.00  0.00     0.018 A 
HETATM   12  C   UNL     1      20.759  43.905  43.602  1.00  0.00     0.012 A 
ENDROOT
BRANCH   8  13
HETATM   13  C   UNL     1      22.618  44.249  49.767  1.00  0.00     0.045 C 
BRANCH  13  14
HETATM   14  C   UNL     1      23.667  45.013  50.102  1.00  0.00     0.077 A 
HETATM   15  S   UNL     1      24.254  46.400  49.285  1.00  0.00    -0.055 SA
HETATM   16  C   UNL     1      25.602  46.590  50.394  1.00  0.00     0.148 A 
HETATM   17  S   UNL     1      26.749  47.787  50.180  1.00  0.00    -0.052 SA
HETATM   18  N   UNL     1      25.536  45.639  51.404  1.00  0.00    -0.298 N 
HETATM   19  C   UNL     1      24.505  44.720  51.297  1.00  0.00     0.266 A 
HETATM   20  O   UNL     1      24.270  43.781  52.044  1.00  0.00    -0.266 OA
BRANCH  18  21
HETATM   21  C   UNL     1      26.521  45.630  52.500  1.00  0.00     0.138 C 
BRANCH  21  22
HETATM   22  C   UNL     1      27.402  44.389  52.696  1.00  0.00     0.059 C 
BRANCH  22  23
HETATM   23  C   UNL     1      28.404  44.443  53.835  1.00  0.00    -0.057 A 
HETATM   24  C   UNL     1      28.447  45.459  54.795  1.00  0.00     0.010 A 
HETATM   25  C   UNL     1      29.371  45.408  55.844  1.00  0.00     0.037 A 
HETATM   26  C   UNL     1      30.267  44.346  55.961  1.00  0.00     0.068 A 
HETATM   27  C   UNL     1      30.246  43.337  55.002  1.00  0.00     0.037 A 
HETATM   28  C   UNL     1      29.322  43.385  53.951  1.00  0.00     0.010 A 
BRANCH  26  29
HETATM   29  O   UNL     1      31.101  44.415  57.042  1.00  0.00    -0.356 OA
HETATM   30  C   UNL     1      32.044  43.361  57.190  1.00  0.00     0.210 C 
ENDBRANCH  26  29
ENDBRANCH  22  23
ENDBRANCH  21  22
ENDBRANCH  18  21
ENDBRANCH  13  14
ENDBRANCH   8  13
BRANCH   9  31
HETATM   31  N   UNL     1      20.217  45.824  49.182  1.00  0.00    -0.274 NA
HETATM   32  H   UNL     1      20.989  46.131  49.787  1.00  0.00     0.129 HD
BRANCH  31  33
HETATM   33  C   UNL     1      19.487  47.048  48.804  1.00  0.00     0.130 C 
BRANCH  33  34
HETATM   34  C   UNL     1      20.444  48.259  48.674  1.00  0.00     0.164 C 
BRANCH  34  35
HETATM   35  O   UNL     1      21.565  48.092  49.555  1.00  0.00    -0.390 OA
HETATM   36  H   UNL     1      22.363  48.308  49.043  1.00  0.00     0.210 HD
ENDBRANCH  34  35
BRANCH  34  37
HETATM   37  C   UNL     1      19.789  49.607  48.906  1.00  0.00    -0.029 A 
HETATM   38  C   UNL     1      18.630  49.700  49.691  1.00  0.00     0.010 A 
HETATM   39  C   UNL     1      18.011  50.934  49.903  1.00  0.00     0.001 A 
HETATM   40  C   UNL     1      18.540  52.088  49.331  1.00  0.00     0.000 A 
HETATM   41  C   UNL     1      19.690  52.013  48.549  1.00  0.00     0.001 A 
HETATM   42  C   UNL     1      20.311  50.780  48.338  1.00  0.00     0.010 A 
ENDBRANCH  34  37
ENDBRANCH  33  34
ENDBRANCH  31  33
ENDBRANCH   9  31
TORSDOF 11
ENDMDL
