MODEL 1
REMARK VINA RESULT:      -9.1      0.000      0.000
REMARK  6 active torsions:
REMARK  status: ('A' for Active; 'I' for Inactive)
REMARK    1  A    between atoms: C_3  and  C_4 
REMARK    2  A    between atoms: C_4  and  N_5 
REMARK    3  A    between atoms: N_5  and  C_8 
REMARK    4  A    between atoms: C_8  and  C_9 
REMARK    5  A    between atoms: N_12  and  C_13 
REMARK    6  A    between atoms: C_28  and  O_29 
ROOT
HETATM    1  N   UNL     1      25.991  44.044  50.716  1.00  0.00    -0.062 N 
HETATM    2  H   UNL     1      26.381  44.944  51.020  1.00  0.00     0.278 HD
HETATM    3  H   UNL     1      26.705  43.640  50.102  1.00  0.00     0.278 HD
ENDROOT
BRANCH   1   4
HETATM    4  C   UNL     1      25.884  43.183  51.922  1.00  0.00     0.290 C 
BRANCH   4   5
HETATM    5  C   UNL     1      26.893  43.600  52.923  1.00  0.00     0.042 A 
HETATM    6  C   UNL     1      26.897  44.647  53.837  1.00  0.00    -0.025 A 
HETATM    7  C   UNL     1      25.841  45.675  54.069  1.00  0.00     0.051 C 
HETATM    8  C   UNL     1      28.149  44.595  54.530  1.00  0.00     0.001 A 
HETATM    9  C   UNL     1      28.872  43.527  54.013  1.00  0.00     0.043 A 
HETATM   10  C   UNL     1      28.741  45.378  55.542  1.00  0.00     0.051 A 
HETATM   11  N   UNL     1      28.099  42.943  53.041  1.00  0.00    -0.357 N 
HETATM   12  C   UNL     1      30.158  43.198  54.460  1.00  0.00     0.033 A 
HETATM   13  H   UNL     1      28.414  42.157  52.485  1.00  0.00     0.166 HD
HETATM   14  C   UNL     1      30.726  43.997  55.460  1.00  0.00     0.039 A 
HETATM   15  C   UNL     1      30.034  45.082  55.995  1.00  0.00     0.069 A 
BRANCH  15  16
HETATM   16  O   UNL     1      30.499  45.929  56.964  1.00  0.00    -0.356 OA
HETATM   17  C   UNL     1      30.442  45.463  58.307  1.00  0.00     0.210 C 
ENDBRANCH  15  16
ENDBRANCH   4   5
ENDBRANCH   1   4
BRANCH   1  18
HETATM   18  C   UNL     1      24.746  44.319  49.929  1.00  0.00     0.218 C 
HETATM   19  C   UNL     1      23.630  43.367  50.346  1.00  0.00     0.045 C 
BRANCH  18  20
HETATM   20  C   UNL     1      24.385  45.768  49.964  1.00  0.00     0.015 C 
HETATM   21  C   UNL     1      23.474  46.452  49.159  1.00  0.00     0.042 C 
HETATM   22  C   UNL     1      22.647  45.927  48.037  1.00  0.00     0.071 C 
HETATM   23  N   UNL     1      23.497  47.791  49.571  1.00  0.00    -0.238 N 
HETATM   24  N   UNL     1      24.500  47.980  50.470  1.00  0.00    -0.179 NA
HETATM   25  C   UNL     1      24.936  46.770  50.783  1.00  0.00     0.150 C 
BRANCH  23  26
HETATM   26  C   UNL     1      22.698  48.909  49.183  1.00  0.00     0.058 A 
HETATM   27  C   UNL     1      21.299  48.867  49.168  1.00  0.00     0.031 A 
HETATM   28  C   UNL     1      20.563  49.991  48.779  1.00  0.00     0.002 A 
HETATM   29  C   UNL     1      21.213  51.166  48.410  1.00  0.00     0.000 A 
HETATM   30  C   UNL     1      22.602  51.229  48.443  1.00  0.00     0.002 A 
HETATM   31  C   UNL     1      23.341  50.111  48.838  1.00  0.00     0.031 A 
ENDBRANCH  23  26
ENDBRANCH  18  20
ENDBRANCH   1  18
TORSDOF 6
ENDMDL
MODEL 2
REMARK VINA RESULT:      -9.1      3.507      9.967
REMARK  6 active torsions:
REMARK  status: ('A' for Active; 'I' for Inactive)
REMARK    1  A    between atoms: C_3  and  C_4 
REMARK    2  A    between atoms: C_4  and  N_5 
REMARK    3  A    between atoms: N_5  and  C_8 
REMARK    4  A    between atoms: C_8  and  C_9 
REMARK    5  A    between atoms: N_12  and  C_13 
REMARK    6  A    between atoms: C_28  and  O_29 
ROOT
HETATM    1  N   UNL     1      23.810  47.217  50.176  1.00  0.00    -0.062 N 
HETATM    2  H   UNL     1      24.654  47.579  50.635  1.00  0.00     0.278 HD
HETATM    3  H   UNL     1      23.042  47.441  50.817  1.00  0.00     0.278 HD
ENDROOT
BRANCH   1   4
HETATM    4  C   UNL     1      23.613  48.008  48.933  1.00  0.00     0.290 C 
BRANCH   4   5
HETATM    5  C   UNL     1      22.390  48.834  49.058  1.00  0.00     0.042 A 
HETATM    6  C   UNL     1      22.169  50.184  48.813  1.00  0.00    -0.025 A 
HETATM    7  C   UNL     1      23.143  51.208  48.337  1.00  0.00     0.051 C 
HETATM    8  C   UNL     1      20.800  50.452  49.137  1.00  0.00     0.001 A 
HETATM    9  C   UNL     1      20.232  49.262  49.576  1.00  0.00     0.043 A 
HETATM   10  C   UNL     1      19.996  51.610  49.113  1.00  0.00     0.051 A 
HETATM   11  N   UNL     1      21.209  48.300  49.527  1.00  0.00    -0.357 N 
HETATM   12  C   UNL     1      18.897  49.170  49.990  1.00  0.00     0.033 A 
HETATM   13  H   UNL     1      21.058  47.345  49.828  1.00  0.00     0.166 HD
HETATM   14  C   UNL     1      18.123  50.337  49.965  1.00  0.00     0.039 A 
HETATM   15  C   UNL     1      18.662  51.549  49.540  1.00  0.00     0.069 A 
BRANCH  15  16
HETATM   16  O   UNL     1      18.000  52.746  49.485  1.00  0.00    -0.356 OA
HETATM   17  C   UNL     1      16.647  52.753  49.928  1.00  0.00     0.210 C 
ENDBRANCH  15  16
ENDBRANCH   4   5
ENDBRANCH   1   4
BRANCH   1  18
HETATM   18  C   UNL     1      23.949  45.730  50.054  1.00  0.00     0.218 C 
HETATM   19  C   UNL     1      23.478  45.260  48.682  1.00  0.00     0.045 C 
BRANCH  18  20
HETATM   20  C   UNL     1      25.318  45.274  50.442  1.00  0.00     0.015 C 
HETATM   21  C   UNL     1      25.776  44.887  51.701  1.00  0.00     0.042 C 
HETATM   22  C   UNL     1      25.034  44.856  52.992  1.00  0.00     0.071 C 
HETATM   23  N   UNL     1      27.130  44.558  51.554  1.00  0.00    -0.238 N 
HETATM   24  N   UNL     1      27.552  44.888  50.304  1.00  0.00    -0.179 NA
HETATM   25  C   UNL     1      26.459  45.195  49.624  1.00  0.00     0.150 C 
BRANCH  23  26
HETATM   26  C   UNL     1      28.068  43.997  52.473  1.00  0.00     0.058 A 
HETATM   27  C   UNL     1      28.359  44.589  53.707  1.00  0.00     0.031 A 
HETATM   28  C   UNL     1      29.288  43.998  54.571  1.00  0.00     0.002 A 
HETATM   29  C   UNL     1      29.927  42.813  54.217  1.00  0.00     0.000 A 
HETATM   30  C   UNL     1      29.628  42.202  53.003  1.00  0.00     0.002 A 
HETATM   31  C   UNL     1      28.696  42.784  52.140  1.00  0.00     0.031 A 
ENDBRANCH  23  26
ENDBRANCH  18  20
ENDBRANCH   1  18
TORSDOF 6
ENDMDL
MODEL 3
REMARK VINA RESULT:      -8.8      3.032      9.569
REMARK  6 active torsions:
REMARK  status: ('A' for Active; 'I' for Inactive)
REMARK    1  A    between atoms: C_3  and  C_4 
REMARK    2  A    between atoms: C_4  and  N_5 
REMARK    3  A    between atoms: N_5  and  C_8 
REMARK    4  A    between atoms: C_8  and  C_9 
REMARK    5  A    between atoms: N_12  and  C_13 
REMARK    6  A    between atoms: C_28  and  O_29 
ROOT
HETATM    1  N   UNL     1      24.158  45.415  50.814  1.00  0.00    -0.062 N 
HETATM    2  H   UNL     1      24.857  46.080  51.168  1.00  0.00     0.278 HD
HETATM    3  H   UNL     1      23.279  45.689  51.266  1.00  0.00     0.278 HD
ENDROOT
BRANCH   1   4
HETATM    4  C   UNL     1      24.017  45.662  49.355  1.00  0.00     0.290 C 
BRANCH   4   5
HETATM    5  C   UNL     1      23.157  46.847  49.131  1.00  0.00     0.042 A 
HETATM    6  C   UNL     1      23.466  48.199  49.042  1.00  0.00    -0.025 A 
HETATM    7  C   UNL     1      24.804  48.849  49.150  1.00  0.00     0.051 C 
HETATM    8  C   UNL     1      22.233  48.901  48.853  1.00  0.00     0.001 A 
HETATM    9  C   UNL     1      21.210  47.959  48.841  1.00  0.00     0.043 A 
HETATM   10  C   UNL     1      21.892  50.261  48.709  1.00  0.00     0.051 A 
HETATM   11  N   UNL     1      21.788  46.727  49.016  1.00  0.00    -0.357 N 
HETATM   12  C   UNL     1      19.863  48.309  48.689  1.00  0.00     0.033 A 
HETATM   13  H   UNL     1      21.252  45.870  49.078  1.00  0.00     0.166 HD
HETATM   14  C   UNL     1      19.551  49.668  48.556  1.00  0.00     0.039 A 
HETATM   15  C   UNL     1      20.549  50.640  48.574  1.00  0.00     0.069 A 
BRANCH  15  16
HETATM   16  O   UNL     1      20.354  51.990  48.462  1.00  0.00    -0.356 OA
HETATM   17  C   UNL     1      19.006  52.446  48.443  1.00  0.00     0.210 C 
ENDBRANCH  15  16
ENDBRANCH   4   5
ENDBRANCH   1   4
BRANCH   1  18
HETATM   18  C   UNL     1      24.552  44.042  51.265  1.00  0.00     0.218 C 
HETATM   19  C   UNL     1      24.248  43.015  50.179  1.00  0.00     0.045 C 
BRANCH  18  20
HETATM   20  C   UNL     1      25.953  44.016  51.783  1.00  0.00     0.015 C 
HETATM   21  C   UNL     1      26.403  44.290  53.075  1.00  0.00     0.042 C 
HETATM   22  C   UNL     1      25.612  44.709  54.266  1.00  0.00     0.071 C 
HETATM   23  N   UNL     1      27.796  44.143  53.057  1.00  0.00    -0.238 N 
HETATM   24  N   UNL     1      28.224  43.959  51.779  1.00  0.00    -0.179 NA
HETATM   25  C   UNL     1      27.131  43.767  51.057  1.00  0.00     0.150 C 
BRANCH  23  26
HETATM   26  C   UNL     1      28.761  44.189  54.108  1.00  0.00     0.058 A 
HETATM   27  C   UNL     1      29.644  43.134  54.366  1.00  0.00     0.031 A 
HETATM   28  C   UNL     1      30.571  43.229  55.410  1.00  0.00     0.002 A 
HETATM   29  C   UNL     1      30.630  44.376  56.198  1.00  0.00     0.000 A 
HETATM   30  C   UNL     1      29.774  45.440  55.936  1.00  0.00     0.002 A 
HETATM   31  C   UNL     1      28.852  45.353  54.891  1.00  0.00     0.031 A 
ENDBRANCH  23  26
ENDBRANCH  18  20
ENDBRANCH   1  18
TORSDOF 6
ENDMDL
MODEL 4
REMARK VINA RESULT:      -8.7      3.458     10.106
REMARK  6 active torsions:
REMARK  status: ('A' for Active; 'I' for Inactive)
REMARK    1  A    between atoms: C_3  and  C_4 
REMARK    2  A    between atoms: C_4  and  N_5 
REMARK    3  A    between atoms: N_5  and  C_8 
REMARK    4  A    between atoms: C_8  and  C_9 
REMARK    5  A    between atoms: N_12  and  C_13 
REMARK    6  A    between atoms: C_28  and  O_29 
ROOT
HETATM    1  N   UNL     1      24.268  47.221  50.783  1.00  0.00    -0.062 N 
HETATM    2  H   UNL     1      24.587  47.862  51.519  1.00  0.00     0.278 HD
HETATM    3  H   UNL     1      23.269  47.079  50.970  1.00  0.00     0.278 HD
ENDROOT
BRANCH   1   4
HETATM    4  C   UNL     1      24.393  47.940  49.489  1.00  0.00     0.290 C 
BRANCH   4   5
HETATM    5  C   UNL     1      23.137  48.669  49.201  1.00  0.00     0.042 A 
HETATM    6  C   UNL     1      22.911  49.905  48.606  1.00  0.00    -0.025 A 
HETATM    7  C   UNL     1      23.916  50.870  48.073  1.00  0.00     0.051 C 
HETATM    8  C   UNL     1      21.497  50.125  48.617  1.00  0.00     0.001 A 
HETATM    9  C   UNL     1      20.904  49.024  49.223  1.00  0.00     0.043 A 
HETATM   10  C   UNL     1      20.666  51.177  48.179  1.00  0.00     0.051 A 
HETATM   11  N   UNL     1      21.911  48.160  49.574  1.00  0.00    -0.357 N 
HETATM   12  C   UNL     1      19.521  48.919  49.412  1.00  0.00     0.033 A 
HETATM   13  H   UNL     1      21.745  47.289  50.064  1.00  0.00     0.166 HD
HETATM   14  C   UNL     1      18.719  49.981  48.976  1.00  0.00     0.039 A 
HETATM   15  C   UNL     1      19.279  51.105  48.373  1.00  0.00     0.069 A 
BRANCH  15  16
HETATM   16  O   UNL     1      18.591  52.199  47.921  1.00  0.00    -0.356 OA
HETATM   17  C   UNL     1      17.442  51.949  47.119  1.00  0.00     0.210 C 
ENDBRANCH  15  16
ENDBRANCH   4   5
ENDBRANCH   1   4
BRANCH   1  18
HETATM   18  C   UNL     1      25.000  45.924  50.947  1.00  0.00     0.218 C 
HETATM   19  C   UNL     1      25.630  45.496  49.625  1.00  0.00     0.045 C 
BRANCH  18  20
HETATM   20  C   UNL     1      25.939  45.968  52.108  1.00  0.00     0.015 C 
HETATM   21  C   UNL     1      26.830  44.985  52.539  1.00  0.00     0.042 C 
HETATM   22  C   UNL     1      27.057  43.624  51.975  1.00  0.00     0.071 C 
HETATM   23  N   UNL     1      27.477  45.494  53.672  1.00  0.00    -0.238 N 
HETATM   24  N   UNL     1      26.900  46.668  54.044  1.00  0.00    -0.179 NA
HETATM   25  C   UNL     1      26.082  46.997  53.057  1.00  0.00     0.150 C 
BRANCH  23  26
HETATM   26  C   UNL     1      28.555  44.977  54.452  1.00  0.00     0.058 A 
HETATM   27  C   UNL     1      29.172  43.753  54.168  1.00  0.00     0.031 A 
HETATM   28  C   UNL     1      30.225  43.292  54.966  1.00  0.00     0.002 A 
HETATM   29  C   UNL     1      30.675  44.047  56.046  1.00  0.00     0.000 A 
HETATM   30  C   UNL     1      30.086  45.276  56.324  1.00  0.00     0.002 A 
HETATM   31  C   UNL     1      29.040  45.745  55.526  1.00  0.00     0.031 A 
ENDBRANCH  23  26
ENDBRANCH  18  20
ENDBRANCH   1  18
TORSDOF 6
ENDMDL
MODEL 5
REMARK VINA RESULT:      -8.5      3.025      9.232
REMARK  6 active torsions:
REMARK  status: ('A' for Active; 'I' for Inactive)
REMARK    1  A    between atoms: C_3  and  C_4 
REMARK    2  A    between atoms: C_4  and  N_5 
REMARK    3  A    between atoms: N_5  and  C_8 
REMARK    4  A    between atoms: C_8  and  C_9 
REMARK    5  A    between atoms: N_12  and  C_13 
REMARK    6  A    between atoms: C_28  and  O_29 
ROOT
HETATM    1  N   UNL     1      26.677  44.771  51.325  1.00  0.00    -0.062 N 
HETATM    2  H   UNL     1      26.003  44.058  51.023  1.00  0.00     0.278 HD
HETATM    3  H   UNL     1      27.483  44.243  51.676  1.00  0.00     0.278 HD
ENDROOT
BRANCH   1   4
HETATM    4  C   UNL     1      27.108  45.510  50.110  1.00  0.00     0.290 C 
BRANCH   4   5
HETATM    5  C   UNL     1      26.070  46.496  49.732  1.00  0.00     0.042 A 
HETATM    6  C   UNL     1      26.151  47.863  49.489  1.00  0.00    -0.025 A 
HETATM    7  C   UNL     1      27.356  48.740  49.542  1.00  0.00     0.051 C 
HETATM    8  C   UNL     1      24.825  48.317  49.196  1.00  0.00     0.001 A 
HETATM    9  C   UNL     1      23.977  47.219  49.278  1.00  0.00     0.043 A 
HETATM   10  C   UNL     1      24.266  49.573  48.886  1.00  0.00     0.051 A 
HETATM   11  N   UNL     1      24.746  46.132  49.609  1.00  0.00    -0.357 N 
HETATM   12  C   UNL     1      22.596  47.313  49.062  1.00  0.00     0.033 A 
HETATM   13  H   UNL     1      24.360  45.208  49.762  1.00  0.00     0.166 HD
HETATM   14  C   UNL     1      22.066  48.574  48.764  1.00  0.00     0.039 A 
HETATM   15  C   UNL     1      22.885  49.699  48.683  1.00  0.00     0.069 A 
BRANCH  15  16
HETATM   16  O   UNL     1      22.471  50.974  48.409  1.00  0.00    -0.356 OA
HETATM   17  C   UNL     1      21.085  51.251  48.579  1.00  0.00     0.210 C 
ENDBRANCH  15  16
ENDBRANCH   4   5
ENDBRANCH   1   4
BRANCH   1  18
HETATM   18  C   UNL     1      26.058  45.550  52.446  1.00  0.00     0.218 C 
HETATM   19  C   UNL     1      24.764  44.886  52.905  1.00  0.00     0.045 C 
BRANCH  18  20
HETATM   20  C   UNL     1      27.046  45.826  53.532  1.00  0.00     0.015 C 
HETATM   21  C   UNL     1      27.740  44.911  54.323  1.00  0.00     0.042 C 
HETATM   22  C   UNL     1      27.658  43.424  54.315  1.00  0.00     0.071 C 
HETATM   23  N   UNL     1      28.536  45.659  55.201  1.00  0.00    -0.238 N 
HETATM   24  N   UNL     1      28.228  46.980  55.092  1.00  0.00    -0.179 NA
HETATM   25  C   UNL     1      27.443  47.080  54.031  1.00  0.00     0.150 C 
BRANCH  23  26
HETATM   26  C   UNL     1      29.526  45.258  56.148  1.00  0.00     0.058 A 
HETATM   27  C   UNL     1      29.601  45.801  57.436  1.00  0.00     0.031 A 
HETATM   28  C   UNL     1      30.593  45.373  58.325  1.00  0.00     0.002 A 
HETATM   29  C   UNL     1      31.511  44.398  57.942  1.00  0.00     0.000 A 
HETATM   30  C   UNL     1      31.432  43.834  56.673  1.00  0.00     0.002 A 
HETATM   31  C   UNL     1      30.439  44.252  55.784  1.00  0.00     0.031 A 
ENDBRANCH  23  26
ENDBRANCH  18  20
ENDBRANCH   1  18
TORSDOF 6
ENDMDL
MODEL 6
REMARK VINA RESULT:      -8.3      2.971      9.600
REMARK  6 active torsions:
REMARK  status: ('A' for Active; 'I' for Inactive)
REMARK    1  A    between atoms: C_3  and  C_4 
REMARK    2  A    between atoms: C_4  and  N_5 
REMARK    3  A    between atoms: N_5  and  C_8 
REMARK    4  A    between atoms: C_8  and  C_9 
REMARK    5  A    between atoms: N_12  and  C_13 
REMARK    6  A    between atoms: C_28  and  O_29 
ROOT
HETATM    1  N   UNL     1      26.770  44.757  50.835  1.00  0.00    -0.062 N 
HETATM    2  H   UNL     1      26.167  44.534  50.035  1.00  0.00     0.278 HD
HETATM    3  H   UNL     1      27.704  44.892  50.434  1.00  0.00     0.278 HD
ENDROOT
BRANCH   1   4
HETATM    4  C   UNL     1      26.313  46.062  51.378  1.00  0.00     0.290 C 
BRANCH   4   5
HETATM    5  C   UNL     1      25.225  46.600  50.530  1.00  0.00     0.042 A 
HETATM    6  C   UNL     1      24.088  45.995  50.005  1.00  0.00    -0.025 A 
HETATM    7  C   UNL     1      23.638  44.582  50.163  1.00  0.00     0.051 C 
HETATM    8  C   UNL     1      23.406  46.985  49.228  1.00  0.00     0.001 A 
HETATM    9  C   UNL     1      24.148  48.158  49.294  1.00  0.00     0.043 A 
HETATM   10  C   UNL     1      22.227  46.981  48.454  1.00  0.00     0.051 A 
HETATM   11  N   UNL     1      25.245  47.903  50.079  1.00  0.00    -0.357 N 
HETATM   12  C   UNL     1      23.770  49.330  48.628  1.00  0.00     0.033 A 
HETATM   13  H   UNL     1      25.966  48.591  50.260  1.00  0.00     0.166 HD
HETATM   14  C   UNL     1      22.599  49.297  47.860  1.00  0.00     0.039 A 
HETATM   15  C   UNL     1      21.835  48.136  47.762  1.00  0.00     0.069 A 
BRANCH  15  16
HETATM   16  O   UNL     1      20.685  47.992  47.035  1.00  0.00    -0.356 OA
HETATM   17  C   UNL     1      19.464  48.315  47.691  1.00  0.00     0.210 C 
ENDBRANCH  15  16
ENDBRANCH   4   5
ENDBRANCH   1   4
BRANCH   1  18
HETATM   18  C   UNL     1      26.782  43.573  51.753  1.00  0.00     0.218 C 
HETATM   19  C   UNL     1      26.573  42.284  50.964  1.00  0.00     0.045 C 
BRANCH  18  20
HETATM   20  C   UNL     1      27.984  43.580  52.641  1.00  0.00     0.015 C 
HETATM   21  C   UNL     1      28.120  44.151  53.907  1.00  0.00     0.042 C 
HETATM   22  C   UNL     1      27.118  44.927  54.690  1.00  0.00     0.071 C 
HETATM   23  N   UNL     1      29.434  43.901  54.323  1.00  0.00    -0.238 N 
HETATM   24  N   UNL     1      30.146  43.354  53.301  1.00  0.00    -0.179 NA
HETATM   25  C   UNL     1      29.261  43.061  52.362  1.00  0.00     0.150 C 
BRANCH  23  26
HETATM   26  C   UNL     1      30.091  44.150  55.565  1.00  0.00     0.058 A 
HETATM   27  C   UNL     1      29.878  45.316  56.310  1.00  0.00     0.031 A 
HETATM   28  C   UNL     1      30.550  45.511  57.522  1.00  0.00     0.002 A 
HETATM   29  C   UNL     1      31.431  44.546  58.004  1.00  0.00     0.000 A 
HETATM   30  C   UNL     1      31.633  43.373  57.285  1.00  0.00     0.002 A 
HETATM   31  C   UNL     1      30.960  43.170  56.078  1.00  0.00     0.031 A 
ENDBRANCH  23  26
ENDBRANCH  18  20
ENDBRANCH   1  18
TORSDOF 6
ENDMDL
MODEL 7
REMARK VINA RESULT:      -8.2      1.541      2.220
REMARK  6 active torsions:
REMARK  status: ('A' for Active; 'I' for Inactive)
REMARK    1  A    between atoms: C_3  and  C_4 
REMARK    2  A    between atoms: C_4  and  N_5 
REMARK    3  A    between atoms: N_5  and  C_8 
REMARK    4  A    between atoms: C_8  and  C_9 
REMARK    5  A    between atoms: N_12  and  C_13 
REMARK    6  A    between atoms: C_28  and  O_29 
ROOT
HETATM    1  N   UNL     1      24.934  45.610  50.251  1.00  0.00    -0.062 N 
HETATM    2  H   UNL     1      24.867  46.616  50.446  1.00  0.00     0.278 HD
HETATM    3  H   UNL     1      25.934  45.433  50.112  1.00  0.00     0.278 HD
ENDROOT
BRANCH   1   4
HETATM    4  C   UNL     1      24.512  44.896  51.484  1.00  0.00     0.290 C 
BRANCH   4   5
HETATM    5  C   UNL     1      25.692  44.647  52.344  1.00  0.00     0.042 A 
HETATM    6  C   UNL     1      26.400  45.490  53.193  1.00  0.00    -0.025 A 
HETATM    7  C   UNL     1      26.151  46.932  53.481  1.00  0.00     0.051 C 
HETATM    8  C   UNL     1      27.474  44.723  53.747  1.00  0.00     0.001 A 
HETATM    9  C   UNL     1      27.394  43.441  53.215  1.00  0.00     0.043 A 
HETATM   10  C   UNL     1      28.523  45.011  54.644  1.00  0.00     0.051 A 
HETATM   11  N   UNL     1      26.316  43.418  52.367  1.00  0.00    -0.357 N 
HETATM   12  C   UNL     1      28.309  42.431  53.537  1.00  0.00     0.033 A 
HETATM   13  H   UNL     1      26.058  42.603  51.824  1.00  0.00     0.166 HD
HETATM   14  C   UNL     1      29.346  42.747  54.423  1.00  0.00     0.039 A 
HETATM   15  C   UNL     1      29.464  44.024  54.969  1.00  0.00     0.069 A 
BRANCH  15  16
HETATM   16  O   UNL     1      30.440  44.440  55.833  1.00  0.00    -0.356 OA
HETATM   17  C   UNL     1      31.197  43.426  56.484  1.00  0.00     0.210 C 
ENDBRANCH  15  16
ENDBRANCH   4   5
ENDBRANCH   1   4
BRANCH   1  18
HETATM   18  C   UNL     1      24.190  45.332  48.981  1.00  0.00     0.218 C 
HETATM   19  C   UNL     1      23.926  43.837  48.834  1.00  0.00     0.045 C 
BRANCH  18  20
HETATM   20  C   UNL     1      22.982  46.201  48.852  1.00  0.00     0.015 C 
HETATM   21  C   UNL     1      22.899  47.589  48.965  1.00  0.00     0.042 C 
HETATM   22  C   UNL     1      23.983  48.564  49.273  1.00  0.00     0.071 C 
HETATM   23  N   UNL     1      21.554  47.930  48.776  1.00  0.00    -0.238 N 
HETATM   24  N   UNL     1      20.795  46.803  48.722  1.00  0.00    -0.179 NA
HETATM   25  C   UNL     1      21.651  45.796  48.648  1.00  0.00     0.150 C 
BRANCH  23  26
HETATM   26  C   UNL     1      20.910  49.200  48.672  1.00  0.00     0.058 A 
HETATM   27  C   UNL     1      20.815  50.087  49.751  1.00  0.00     0.031 A 
HETATM   28  C   UNL     1      20.172  51.320  49.596  1.00  0.00     0.002 A 
HETATM   29  C   UNL     1      19.626  51.682  48.367  1.00  0.00     0.000 A 
HETATM   30  C   UNL     1      19.735  50.819  47.281  1.00  0.00     0.002 A 
HETATM   31  C   UNL     1      20.382  49.590  47.428  1.00  0.00     0.031 A 
ENDBRANCH  23  26
ENDBRANCH  18  20
ENDBRANCH   1  18
TORSDOF 6
ENDMDL
MODEL 8
REMARK VINA RESULT:      -8.1     17.474     19.340
REMARK  6 active torsions:
REMARK  status: ('A' for Active; 'I' for Inactive)
REMARK    1  A    between atoms: C_3  and  C_4 
REMARK    2  A    between atoms: C_4  and  N_5 
REMARK    3  A    between atoms: N_5  and  C_8 
REMARK    4  A    between atoms: C_8  and  C_9 
REMARK    5  A    between atoms: N_12  and  C_13 
REMARK    6  A    between atoms: C_28  and  O_29 
ROOT
HETATM    1  N   UNL     1      39.633  48.161  64.577  1.00  0.00    -0.062 N 
HETATM    2  H   UNL     1      39.867  49.093  64.215  1.00  0.00     0.278 HD
HETATM    3  H   UNL     1      39.058  47.729  63.846  1.00  0.00     0.278 HD
ENDROOT
BRANCH   1   4
HETATM    4  C   UNL     1      40.903  47.395  64.671  1.00  0.00     0.290 C 
BRANCH   4   5
HETATM    5  C   UNL     1      40.627  45.950  64.497  1.00  0.00     0.042 A 
HETATM    6  C   UNL     1      41.024  44.846  65.243  1.00  0.00    -0.025 A 
HETATM    7  C   UNL     1      41.867  44.818  66.473  1.00  0.00     0.051 C 
HETATM    8  C   UNL     1      40.494  43.687  64.592  1.00  0.00     0.001 A 
HETATM    9  C   UNL     1      39.799  44.116  63.467  1.00  0.00     0.043 A 
HETATM   10  C   UNL     1      40.560  42.302  64.851  1.00  0.00     0.051 A 
HETATM   11  N   UNL     1      39.897  45.484  63.425  1.00  0.00    -0.357 N 
HETATM   12  C   UNL     1      39.164  43.230  62.588  1.00  0.00     0.033 A 
HETATM   13  H   UNL     1      39.501  46.042  62.678  1.00  0.00     0.166 HD
HETATM   14  C   UNL     1      39.252  41.860  62.864  1.00  0.00     0.039 A 
HETATM   15  C   UNL     1      39.948  41.393  63.977  1.00  0.00     0.069 A 
BRANCH  15  16
HETATM   16  O   UNL     1      40.103  40.080  64.332  1.00  0.00    -0.356 OA
HETATM   17  C   UNL     1      38.937  39.389  64.765  1.00  0.00     0.210 C 
ENDBRANCH  15  16
ENDBRANCH   4   5
ENDBRANCH   1   4
BRANCH   1  18
HETATM   18  C   UNL     1      38.818  48.336  65.822  1.00  0.00     0.218 C 
HETATM   19  C   UNL     1      37.865  49.518  65.673  1.00  0.00     0.045 C 
BRANCH  18  20
HETATM   20  C   UNL     1      38.173  47.055  66.240  1.00  0.00     0.015 C 
HETATM   21  C   UNL     1      37.249  46.282  65.536  1.00  0.00     0.042 C 
HETATM   22  C   UNL     1      36.641  46.544  64.202  1.00  0.00     0.071 C 
HETATM   23  N   UNL     1      36.938  45.185  66.350  1.00  0.00    -0.238 N 
HETATM   24  N   UNL     1      37.499  45.348  67.578  1.00  0.00    -0.179 NA
HETATM   25  C   UNL     1      38.316  46.383  67.467  1.00  0.00     0.150 C 
BRANCH  23  26
HETATM   26  C   UNL     1      36.145  44.024  66.103  1.00  0.00     0.058 A 
HETATM   27  C   UNL     1      34.810  43.922  66.509  1.00  0.00     0.031 A 
HETATM   28  C   UNL     1      34.078  42.760  66.242  1.00  0.00     0.002 A 
HETATM   29  C   UNL     1      34.666  41.696  65.563  1.00  0.00     0.000 A 
HETATM   30  C   UNL     1      35.986  41.794  65.134  1.00  0.00     0.002 A 
HETATM   31  C   UNL     1      36.719  42.955  65.391  1.00  0.00     0.031 A 
ENDBRANCH  23  26
ENDBRANCH  18  20
ENDBRANCH   1  18
TORSDOF 6
ENDMDL
MODEL 9
REMARK VINA RESULT:      -8.0      3.519      6.888
REMARK  6 active torsions:
REMARK  status: ('A' for Active; 'I' for Inactive)
REMARK    1  A    between atoms: C_3  and  C_4 
REMARK    2  A    between atoms: C_4  and  N_5 
REMARK    3  A    between atoms: N_5  and  C_8 
REMARK    4  A    between atoms: C_8  and  C_9 
REMARK    5  A    between atoms: N_12  and  C_13 
REMARK    6  A    between atoms: C_28  and  O_29 
ROOT
HETATM    1  N   UNL     1      25.137  43.984  51.962  1.00  0.00    -0.062 N 
HETATM    2  H   UNL     1      25.630  43.272  52.514  1.00  0.00     0.278 HD
HETATM    3  H   UNL     1      24.220  44.079  52.411  1.00  0.00     0.278 HD
ENDROOT
BRANCH   1   4
HETATM    4  C   UNL     1      25.869  45.264  52.144  1.00  0.00     0.290 C 
BRANCH   4   5
HETATM    5  C   UNL     1      26.952  45.081  53.139  1.00  0.00     0.042 A 
HETATM    6  C   UNL     1      27.320  45.844  54.241  1.00  0.00    -0.025 A 
HETATM    7  C   UNL     1      26.698  47.103  54.742  1.00  0.00     0.051 C 
HETATM    8  C   UNL     1      28.465  45.213  54.825  1.00  0.00     0.001 A 
HETATM    9  C   UNL     1      28.765  44.092  54.058  1.00  0.00     0.043 A 
HETATM   10  C   UNL     1      29.289  45.508  55.931  1.00  0.00     0.051 A 
HETATM   11  N   UNL     1      27.844  44.034  53.043  1.00  0.00    -0.357 N 
HETATM   12  C   UNL     1      29.845  43.249  54.344  1.00  0.00     0.033 A 
HETATM   13  H   UNL     1      27.862  43.324  52.321  1.00  0.00     0.166 HD
HETATM   14  C   UNL     1      30.652  43.569  55.443  1.00  0.00     0.039 A 
HETATM   15  C   UNL     1      30.388  44.690  56.228  1.00  0.00     0.069 A 
BRANCH  15  16
HETATM   16  O   UNL     1      31.115  45.098  57.313  1.00  0.00    -0.356 OA
HETATM   17  C   UNL     1      30.449  45.928  58.258  1.00  0.00     0.210 C 
ENDBRANCH  15  16
ENDBRANCH   4   5
ENDBRANCH   1   4
BRANCH   1  18
HETATM   18  C   UNL     1      24.966  43.457  50.570  1.00  0.00     0.218 C 
HETATM   19  C   UNL     1      25.216  44.561  49.548  1.00  0.00     0.045 C 
BRANCH  18  20
HETATM   20  C   UNL     1      25.756  42.207  50.356  1.00  0.00     0.015 C 
HETATM   21  C   UNL     1      25.545  41.202  49.413  1.00  0.00     0.042 C 
HETATM   22  C   UNL     1      24.463  41.093  48.395  1.00  0.00     0.071 C 
HETATM   23  N   UNL     1      26.542  40.239  49.619  1.00  0.00    -0.238 N 
HETATM   24  N   UNL     1      27.241  40.534  50.749  1.00  0.00    -0.179 NA
HETATM   25  C   UNL     1      26.853  41.747  51.106  1.00  0.00     0.150 C 
BRANCH  23  26
HETATM   26  C   UNL     1      26.882  39.064  48.885  1.00  0.00     0.058 A 
HETATM   27  C   UNL     1      26.544  37.777  49.323  1.00  0.00     0.031 A 
HETATM   28  C   UNL     1      26.903  36.657  48.565  1.00  0.00     0.002 A 
HETATM   29  C   UNL     1      27.592  36.809  47.364  1.00  0.00     0.000 A 
HETATM   30  C   UNL     1      27.912  38.082  46.907  1.00  0.00     0.002 A 
HETATM   31  C   UNL     1      27.551  39.204  47.655  1.00  0.00     0.031 A 
ENDBRANCH  23  26
ENDBRANCH  18  20
ENDBRANCH   1  18
TORSDOF 6
ENDMDL
MODEL 10
REMARK VINA RESULT:      -7.9      6.242     11.872
REMARK  6 active torsions:
REMARK  status: ('A' for Active; 'I' for Inactive)
REMARK    1  A    between atoms: C_3  and  C_4 
REMARK    2  A    between atoms: C_4  and  N_5 
REMARK    3  A    between atoms: N_5  and  C_8 
REMARK    4  A    between atoms: C_8  and  C_9 
REMARK    5  A    between atoms: N_12  and  C_13 
REMARK    6  A    between atoms: C_28  and  O_29 
ROOT
HETATM    1  N   UNL     1      18.828  49.178  47.745  1.00  0.00    -0.062 N 
HETATM    2  H   UNL     1      17.829  49.012  47.915  1.00  0.00     0.278 HD
HETATM    3  H   UNL     1      19.100  48.469  47.056  1.00  0.00     0.278 HD
ENDROOT
BRANCH   1   4
HETATM    4  C   UNL     1      18.946  50.511  47.100  1.00  0.00     0.290 C 
BRANCH   4   5
HETATM    5  C   UNL     1      17.901  51.416  47.632  1.00  0.00     0.042 A 
HETATM    6  C   UNL     1      17.768  52.033  48.870  1.00  0.00    -0.025 A 
HETATM    7  C   UNL     1      18.680  51.948  50.047  1.00  0.00     0.051 C 
HETATM    8  C   UNL     1      16.541  52.770  48.843  1.00  0.00     0.001 A 
HETATM    9  C   UNL     1      15.960  52.576  47.595  1.00  0.00     0.043 A 
HETATM   10  C   UNL     1      15.860  53.575  49.780  1.00  0.00     0.051 A 
HETATM   11  N   UNL     1      16.793  51.751  46.882  1.00  0.00    -0.357 N 
HETATM   12  C   UNL     1      14.734  53.147  47.235  1.00  0.00     0.033 A 
HETATM   13  H   UNL     1      16.581  51.428  45.946  1.00  0.00     0.166 HD
HETATM   14  C   UNL     1      14.075  53.935  48.187  1.00  0.00     0.039 A 
HETATM   15  C   UNL     1      14.623  54.144  49.452  1.00  0.00     0.069 A 
BRANCH  15  16
HETATM   16  O   UNL     1      14.060  54.885  50.456  1.00  0.00    -0.356 OA
HETATM   17  C   UNL     1      14.755  54.918  51.697  1.00  0.00     0.210 C 
ENDBRANCH  15  16
ENDBRANCH   4   5
ENDBRANCH   1   4
BRANCH   1  18
HETATM   18  C   UNL     1      19.564  48.943  49.028  1.00  0.00     0.218 C 
HETATM   19  C   UNL     1      18.802  47.957  49.908  1.00  0.00     0.045 C 
BRANCH  18  20
HETATM   20  C   UNL     1      20.996  48.594  48.783  1.00  0.00     0.015 C 
HETATM   21  C   UNL     1      22.134  49.331  49.111  1.00  0.00     0.042 C 
HETATM   22  C   UNL     1      22.221  50.668  49.762  1.00  0.00     0.071 C 
HETATM   23  N   UNL     1      23.236  48.590  48.666  1.00  0.00    -0.238 N 
HETATM   24  N   UNL     1      22.811  47.524  47.935  1.00  0.00    -0.179 NA
HETATM   25  C   UNL     1      21.500  47.468  48.109  1.00  0.00     0.150 C 
BRANCH  23  26
HETATM   26  C   UNL     1      24.639  48.798  48.830  1.00  0.00     0.058 A 
HETATM   27  C   UNL     1      25.432  47.983  49.646  1.00  0.00     0.031 A 
HETATM   28  C   UNL     1      26.803  48.232  49.773  1.00  0.00     0.002 A 
HETATM   29  C   UNL     1      27.395  49.287  49.084  1.00  0.00     0.000 A 
HETATM   30  C   UNL     1      26.622  50.090  48.251  1.00  0.00     0.002 A 
HETATM   31  C   UNL     1      25.255  49.841  48.115  1.00  0.00     0.031 A 
ENDBRANCH  23  26
ENDBRANCH  18  20
ENDBRANCH   1  18
TORSDOF 6
ENDMDL
