MODEL 1
REMARK VINA RESULT:      -8.3      0.000      0.000
REMARK  5 active torsions:
REMARK  status: ('A' for Active; 'I' for Inactive)
REMARK    1  A    between atoms: C_3  and  N_4 
REMARK       I    between atoms: N_4  and  C_5 
REMARK       I    between atoms: C_5  and  N_6 
REMARK    2  A    between atoms: N_6  and  C_7 
REMARK    3  A    between atoms: C_7  and  C_8 
REMARK    4  A    between atoms: C_8  and  O_9 
REMARK    5  A    between atoms: O_9  and  C_10 
ROOT
HETATM    1  N   UNL     1      27.580  44.960  53.965  1.00  0.00    -0.307 N 
HETATM    2  C   UNL     1      26.304  44.547  54.228  1.00  0.00     0.320 C 
HETATM    3  N   UNL     1      25.335  45.126  53.462  1.00  0.00    -0.340 N 
HETATM    4  O   UNL     1      25.965  43.694  55.040  1.00  0.00    -0.247 OA
HETATM    5  H   UNL     1      27.710  45.225  53.002  1.00  0.00     0.170 HD
HETATM    6  H   UNL     1      24.407  44.835  53.757  1.00  0.00     0.164 HD
ENDROOT
BRANCH   3   7
HETATM    7  C   UNL     1      25.394  46.319  52.625  1.00  0.00     0.156 C 
BRANCH   7   8
HETATM    8  C   UNL     1      25.239  46.007  51.123  1.00  0.00     0.142 C 
HETATM    9  C   UNL     1      24.470  44.707  50.891  1.00  0.00     0.042 C 
BRANCH   8  10
HETATM   10  O   UNL     1      24.503  47.048  50.463  1.00  0.00    -0.343 OA
BRANCH  10  11
HETATM   11  C   UNL     1      25.218  48.000  49.786  1.00  0.00     0.091 A 
HETATM   12  C   UNL     1      24.498  48.924  49.011  1.00  0.00     0.067 A 
HETATM   13 CL   UNL     1      22.770  48.911  48.978  1.00  0.00    -0.081 Cl
HETATM   14  C   UNL     1      25.166  49.890  48.255  1.00  0.00     0.026 A 
HETATM   15  C   UNL     1      26.559  49.937  48.256  1.00  0.00     0.002 A 
HETATM   16  C   UNL     1      27.282  49.011  49.003  1.00  0.00     0.003 A 
HETATM   17  C   UNL     1      26.615  48.038  49.756  1.00  0.00     0.038 A 
ENDBRANCH  10  11
ENDBRANCH   8  10
ENDBRANCH   7   8
ENDBRANCH   3   7
BRANCH   1  18
HETATM   18  C   UNL     1      28.774  44.639  54.657  1.00  0.00     0.059 A 
HETATM   19  C   UNL     1      29.549  43.477  54.521  1.00  0.00    -0.032 A 
HETATM   20  C   UNL     1      29.215  42.313  53.635  1.00  0.00     0.050 C 
HETATM   21  C   UNL     1      30.728  43.373  55.285  1.00  0.00     0.028 A 
HETATM   22  C   UNL     1      31.060  44.372  56.186  1.00  0.00     0.117 A 
HETATM   23  N   UNL     1      30.308  45.466  56.386  1.00  0.00    -0.271 NA
HETATM   24  C   UNL     1      29.195  45.567  55.620  1.00  0.00     0.146 A 
ENDBRANCH   1  18
TORSDOF 5
ENDMDL
MODEL 2
REMARK VINA RESULT:      -8.1      2.854      7.862
REMARK  5 active torsions:
REMARK  status: ('A' for Active; 'I' for Inactive)
REMARK    1  A    between atoms: C_3  and  N_4 
REMARK       I    between atoms: N_4  and  C_5 
REMARK       I    between atoms: C_5  and  N_6 
REMARK    2  A    between atoms: N_6  and  C_7 
REMARK    3  A    between atoms: C_7  and  C_8 
REMARK    4  A    between atoms: C_8  and  O_9 
REMARK    5  A    between atoms: O_9  and  C_10 
ROOT
HETATM    1  N   UNL     1      25.216  47.170  50.425  1.00  0.00    -0.307 N 
HETATM    2  C   UNL     1      25.905  45.994  50.314  1.00  0.00     0.320 C 
HETATM    3  N   UNL     1      25.890  45.204  51.427  1.00  0.00    -0.340 N 
HETATM    4  O   UNL     1      26.483  45.577  49.318  1.00  0.00    -0.247 OA
HETATM    5  H   UNL     1      24.432  47.102  51.053  1.00  0.00     0.170 HD
HETATM    6  H   UNL     1      26.479  44.385  51.306  1.00  0.00     0.164 HD
ENDROOT
BRANCH   3   7
HETATM    7  C   UNL     1      25.522  45.530  52.799  1.00  0.00     0.156 C 
BRANCH   7   8
HETATM    8  C   UNL     1      26.713  46.039  53.636  1.00  0.00     0.142 C 
HETATM    9  C   UNL     1      26.457  47.438  54.194  1.00  0.00     0.042 C 
BRANCH   8  10
HETATM   10  O   UNL     1      26.944  45.178  54.762  1.00  0.00    -0.343 OA
BRANCH  10  11
HETATM   11  C   UNL     1      28.237  44.804  55.021  1.00  0.00     0.091 A 
HETATM   12  C   UNL     1      28.668  43.566  54.516  1.00  0.00     0.067 A 
HETATM   13 CL   UNL     1      27.633  42.589  53.536  1.00  0.00    -0.081 Cl
HETATM   14  C   UNL     1      29.957  43.100  54.785  1.00  0.00     0.026 A 
HETATM   15  C   UNL     1      30.824  43.858  55.569  1.00  0.00     0.002 A 
HETATM   16  C   UNL     1      30.397  45.077  56.092  1.00  0.00     0.003 A 
HETATM   17  C   UNL     1      29.104  45.542  55.830  1.00  0.00     0.038 A 
ENDBRANCH  10  11
ENDBRANCH   8  10
ENDBRANCH   7   8
ENDBRANCH   3   7
BRANCH   1  18
HETATM   18  C   UNL     1      25.142  48.241  49.500  1.00  0.00     0.059 A 
HETATM   19  C   UNL     1      26.206  48.998  48.989  1.00  0.00    -0.032 A 
HETATM   20  C   UNL     1      27.646  48.840  49.378  1.00  0.00     0.050 C 
HETATM   21  C   UNL     1      25.912  50.003  48.046  1.00  0.00     0.028 A 
HETATM   22  C   UNL     1      24.597  50.263  47.697  1.00  0.00     0.117 A 
HETATM   23  N   UNL     1      23.551  49.599  48.216  1.00  0.00    -0.271 NA
HETATM   24  C   UNL     1      23.852  48.614  49.095  1.00  0.00     0.146 A 
ENDBRANCH   1  18
TORSDOF 5
ENDMDL
MODEL 3
REMARK VINA RESULT:      -8.1      2.999      7.712
REMARK  5 active torsions:
REMARK  status: ('A' for Active; 'I' for Inactive)
REMARK    1  A    between atoms: C_3  and  N_4 
REMARK       I    between atoms: N_4  and  C_5 
REMARK       I    between atoms: C_5  and  N_6 
REMARK    2  A    between atoms: N_6  and  C_7 
REMARK    3  A    between atoms: C_7  and  C_8 
REMARK    4  A    between atoms: C_8  and  O_9 
REMARK    5  A    between atoms: O_9  and  C_10 
ROOT
HETATM    1  N   UNL     1      25.694  46.810  50.573  1.00  0.00    -0.307 N 
HETATM    2  C   UNL     1      26.355  45.616  50.491  1.00  0.00     0.320 C 
HETATM    3  N   UNL     1      26.103  44.740  51.506  1.00  0.00    -0.340 N 
HETATM    4  O   UNL     1      27.102  45.255  49.589  1.00  0.00    -0.247 OA
HETATM    5  H   UNL     1      24.802  46.726  51.033  1.00  0.00     0.170 HD
HETATM    6  H   UNL     1      26.680  43.907  51.428  1.00  0.00     0.164 HD
ENDROOT
BRANCH   3   7
HETATM    7  C   UNL     1      25.488  44.970  52.808  1.00  0.00     0.156 C 
BRANCH   7   8
HETATM    8  C   UNL     1      26.477  44.803  53.978  1.00  0.00     0.142 C 
HETATM    9  C   UNL     1      26.105  43.619  54.870  1.00  0.00     0.042 C 
BRANCH   8  10
HETATM   10  O   UNL     1      27.803  44.553  53.488  1.00  0.00    -0.343 OA
BRANCH  10  11
HETATM   11  C   UNL     1      28.829  44.560  54.397  1.00  0.00     0.091 A 
HETATM   12  C   UNL     1      29.657  43.427  54.450  1.00  0.00     0.067 A 
HETATM   13 CL   UNL     1      29.440  42.108  53.355  1.00  0.00    -0.081 Cl
HETATM   14  C   UNL     1      30.690  43.346  55.387  1.00  0.00     0.026 A 
HETATM   15  C   UNL     1      30.901  44.389  56.286  1.00  0.00     0.002 A 
HETATM   16  C   UNL     1      30.070  45.507  56.255  1.00  0.00     0.003 A 
HETATM   17  C   UNL     1      29.030  45.588  55.323  1.00  0.00     0.038 A 
ENDBRANCH  10  11
ENDBRANCH   8  10
ENDBRANCH   7   8
ENDBRANCH   3   7
BRANCH   1  18
HETATM   18  C   UNL     1      25.830  47.955  49.749  1.00  0.00     0.059 A 
HETATM   19  C   UNL     1      24.811  48.641  49.073  1.00  0.00    -0.032 A 
HETATM   20  C   UNL     1      23.364  48.246  49.056  1.00  0.00     0.050 C 
HETATM   21  C   UNL     1      25.162  49.786  48.330  1.00  0.00     0.028 A 
HETATM   22  C   UNL     1      26.491  50.167  48.232  1.00  0.00     0.117 A 
HETATM   23  N   UNL     1      27.497  49.496  48.816  1.00  0.00    -0.271 NA
HETATM   24  C   UNL     1      27.139  48.417  49.553  1.00  0.00     0.146 A 
ENDBRANCH   1  18
TORSDOF 5
ENDMDL
MODEL 4
REMARK VINA RESULT:      -7.9     12.198     13.895
REMARK  5 active torsions:
REMARK  status: ('A' for Active; 'I' for Inactive)
REMARK    1  A    between atoms: C_3  and  N_4 
REMARK       I    between atoms: N_4  and  C_5 
REMARK       I    between atoms: C_5  and  N_6 
REMARK    2  A    between atoms: N_6  and  C_7 
REMARK    3  A    between atoms: C_7  and  C_8 
REMARK    4  A    between atoms: C_8  and  O_9 
REMARK    5  A    between atoms: O_9  and  C_10 
ROOT
HETATM    1  N   UNL     1      31.770  48.978  40.959  1.00  0.00    -0.307 N 
HETATM    2  C   UNL     1      32.901  48.299  41.320  1.00  0.00     0.320 C 
HETATM    3  N   UNL     1      33.898  49.067  41.846  1.00  0.00    -0.340 N 
HETATM    4  O   UNL     1      33.078  47.089  41.255  1.00  0.00    -0.247 OA
HETATM    5  H   UNL     1      31.609  49.792  41.530  1.00  0.00     0.170 HD
HETATM    6  H   UNL     1      34.734  48.518  42.022  1.00  0.00     0.164 HD
ENDROOT
BRANCH   3   7
HETATM    7  C   UNL     1      34.079  50.514  41.812  1.00  0.00     0.156 C 
BRANCH   7   8
HETATM    8  C   UNL     1      32.999  51.273  42.608  1.00  0.00     0.142 C 
HETATM    9  C   UNL     1      33.541  51.808  43.932  1.00  0.00     0.042 C 
BRANCH   8  10
HETATM   10  O   UNL     1      32.527  52.407  41.865  1.00  0.00    -0.343 OA
BRANCH  10  11
HETATM   11  C   UNL     1      31.252  52.355  41.365  1.00  0.00     0.091 A 
HETATM   12  C   UNL     1      31.104  52.222  39.975  1.00  0.00     0.067 A 
HETATM   13 CL   UNL     1      32.478  52.051  38.941  1.00  0.00    -0.081 Cl
HETATM   14  C   UNL     1      29.834  52.212  39.393  1.00  0.00     0.026 A 
HETATM   15  C   UNL     1      28.700  52.345  40.192  1.00  0.00     0.002 A 
HETATM   16  C   UNL     1      28.838  52.499  41.569  1.00  0.00     0.003 A 
HETATM   17  C   UNL     1      30.109  52.516  42.153  1.00  0.00     0.038 A 
ENDBRANCH  10  11
ENDBRANCH   8  10
ENDBRANCH   7   8
ENDBRANCH   3   7
BRANCH   1  18
HETATM   18  C   UNL     1      30.622  48.489  40.287  1.00  0.00     0.059 A 
HETATM   19  C   UNL     1      29.308  48.445  40.773  1.00  0.00    -0.032 A 
HETATM   20  C   UNL     1      28.878  48.869  42.147  1.00  0.00     0.050 C 
HETATM   21  C   UNL     1      28.301  47.948  39.921  1.00  0.00     0.028 A 
HETATM   22  C   UNL     1      28.633  47.463  38.667  1.00  0.00     0.117 A 
HETATM   23  N   UNL     1      29.891  47.433  38.196  1.00  0.00    -0.271 NA
HETATM   24  C   UNL     1      30.842  47.944  39.014  1.00  0.00     0.146 A 
ENDBRANCH   1  18
TORSDOF 5
ENDMDL
MODEL 5
REMARK VINA RESULT:      -7.9      1.331      2.169
REMARK  5 active torsions:
REMARK  status: ('A' for Active; 'I' for Inactive)
REMARK    1  A    between atoms: C_3  and  N_4 
REMARK       I    between atoms: N_4  and  C_5 
REMARK       I    between atoms: C_5  and  N_6 
REMARK    2  A    between atoms: N_6  and  C_7 
REMARK    3  A    between atoms: C_7  and  C_8 
REMARK    4  A    between atoms: C_8  and  O_9 
REMARK    5  A    between atoms: O_9  and  C_10 
ROOT
HETATM    1  N   UNL     1      26.923  44.752  52.946  1.00  0.00    -0.307 N 
HETATM    2  C   UNL     1      25.624  44.330  52.901  1.00  0.00     0.320 C 
HETATM    3  N   UNL     1      25.145  44.054  51.653  1.00  0.00    -0.340 N 
HETATM    4  O   UNL     1      24.882  44.142  53.858  1.00  0.00    -0.247 OA
HETATM    5  H   UNL     1      27.482  44.363  52.205  1.00  0.00     0.170 HD
HETATM    6  H   UNL     1      24.157  43.819  51.680  1.00  0.00     0.164 HD
ENDROOT
BRANCH   3   7
HETATM    7  C   UNL     1      25.681  44.414  50.346  1.00  0.00     0.156 C 
BRANCH   7   8
HETATM    8  C   UNL     1      24.812  45.451  49.606  1.00  0.00     0.142 C 
HETATM    9  C   UNL     1      23.358  44.996  49.495  1.00  0.00     0.042 C 
BRANCH   8  10
HETATM   10  O   UNL     1      24.804  46.701  50.312  1.00  0.00    -0.343 OA
BRANCH  10  11
HETATM   11  C   UNL     1      25.427  47.769  49.722  1.00  0.00     0.091 A 
HETATM   12  C   UNL     1      24.616  48.721  49.083  1.00  0.00     0.067 A 
HETATM   13 CL   UNL     1      22.893  48.593  49.109  1.00  0.00    -0.081 Cl
HETATM   14  C   UNL     1      25.188  49.809  48.418  1.00  0.00     0.026 A 
HETATM   15  C   UNL     1      26.573  49.951  48.376  1.00  0.00     0.002 A 
HETATM   16  C   UNL     1      27.386  48.999  48.988  1.00  0.00     0.003 A 
HETATM   17  C   UNL     1      26.816  47.905  49.648  1.00  0.00     0.038 A 
ENDBRANCH  10  11
ENDBRANCH   8  10
ENDBRANCH   7   8
ENDBRANCH   3   7
BRANCH   1  18
HETATM   18  C   UNL     1      27.661  45.222  54.061  1.00  0.00     0.059 A 
HETATM   19  C   UNL     1      27.456  46.410  54.777  1.00  0.00    -0.032 A 
HETATM   20  C   UNL     1      26.424  47.449  54.453  1.00  0.00     0.050 C 
HETATM   21  C   UNL     1      28.289  46.670  55.883  1.00  0.00     0.028 A 
HETATM   22  C   UNL     1      29.318  45.796  56.196  1.00  0.00     0.117 A 
HETATM   23  N   UNL     1      29.581  44.683  55.493  1.00  0.00    -0.271 NA
HETATM   24  C   UNL     1      28.750  44.430  54.453  1.00  0.00     0.146 A 
ENDBRANCH   1  18
TORSDOF 5
ENDMDL
MODEL 6
REMARK VINA RESULT:      -7.7      4.237      7.177
REMARK  5 active torsions:
REMARK  status: ('A' for Active; 'I' for Inactive)
REMARK    1  A    between atoms: C_3  and  N_4 
REMARK       I    between atoms: N_4  and  C_5 
REMARK       I    between atoms: C_5  and  N_6 
REMARK    2  A    between atoms: N_6  and  C_7 
REMARK    3  A    between atoms: C_7  and  C_8 
REMARK    4  A    between atoms: C_8  and  O_9 
REMARK    5  A    between atoms: O_9  and  C_10 
ROOT
HETATM    1  N   UNL     1      26.745  43.675  51.299  1.00  0.00    -0.307 N 
HETATM    2  C   UNL     1      25.541  43.878  51.914  1.00  0.00     0.320 C 
HETATM    3  N   UNL     1      25.465  44.996  52.692  1.00  0.00    -0.340 N 
HETATM    4  O   UNL     1      24.536  43.186  51.798  1.00  0.00    -0.247 OA
HETATM    5  H   UNL     1      27.222  44.537  51.090  1.00  0.00     0.170 HD
HETATM    6  H   UNL     1      24.575  45.048  53.178  1.00  0.00     0.164 HD
ENDROOT
BRANCH   3   7
HETATM    7  C   UNL     1      26.530  45.843  53.216  1.00  0.00     0.156 C 
BRANCH   7   8
HETATM    8  C   UNL     1      27.129  45.311  54.533  1.00  0.00     0.142 C 
HETATM    9  C   UNL     1      26.592  43.922  54.879  1.00  0.00     0.042 C 
BRANCH   8  10
HETATM   10  O   UNL     1      28.556  45.190  54.428  1.00  0.00    -0.343 OA
BRANCH  10  11
HETATM   11  C   UNL     1      29.282  45.198  55.590  1.00  0.00     0.091 A 
HETATM   12  C   UNL     1      30.285  44.226  55.734  1.00  0.00     0.067 A 
HETATM   13 CL   UNL     1      30.645  43.114  54.462  1.00  0.00    -0.081 Cl
HETATM   14  C   UNL     1      31.030  44.144  56.914  1.00  0.00     0.026 A 
HETATM   15  C   UNL     1      30.774  45.024  57.963  1.00  0.00     0.002 A 
HETATM   16  C   UNL     1      29.765  45.977  57.837  1.00  0.00     0.003 A 
HETATM   17  C   UNL     1      29.013  46.056  56.660  1.00  0.00     0.038 A 
ENDBRANCH  10  11
ENDBRANCH   8  10
ENDBRANCH   7   8
ENDBRANCH   3   7
BRANCH   1  18
HETATM   18  C   UNL     1      27.170  42.563  50.532  1.00  0.00     0.059 A 
HETATM   19  C   UNL     1      27.838  41.418  50.992  1.00  0.00    -0.032 A 
HETATM   20  C   UNL     1      28.279  41.184  52.406  1.00  0.00     0.050 C 
HETATM   21  C   UNL     1      28.141  40.407  50.059  1.00  0.00     0.028 A 
HETATM   22  C   UNL     1      27.836  40.586  48.720  1.00  0.00     0.117 A 
HETATM   23  N   UNL     1      27.254  41.696  48.237  1.00  0.00    -0.271 NA
HETATM   24  C   UNL     1      26.940  42.645  49.151  1.00  0.00     0.146 A 
ENDBRANCH   1  18
TORSDOF 5
ENDMDL
MODEL 7
REMARK VINA RESULT:      -7.6      1.815      2.824
REMARK  5 active torsions:
REMARK  status: ('A' for Active; 'I' for Inactive)
REMARK    1  A    between atoms: C_3  and  N_4 
REMARK       I    between atoms: N_4  and  C_5 
REMARK       I    between atoms: C_5  and  N_6 
REMARK    2  A    between atoms: N_6  and  C_7 
REMARK    3  A    between atoms: C_7  and  C_8 
REMARK    4  A    between atoms: C_8  and  O_9 
REMARK    5  A    between atoms: O_9  and  C_10 
ROOT
HETATM    1  N   UNL     1      26.685  44.533  52.750  1.00  0.00    -0.307 N 
HETATM    2  C   UNL     1      25.349  44.615  53.027  1.00  0.00     0.320 C 
HETATM    3  N   UNL     1      24.552  44.925  51.964  1.00  0.00    -0.340 N 
HETATM    4  O   UNL     1      24.812  44.398  54.107  1.00  0.00    -0.247 OA
HETATM    5  H   UNL     1      26.866  44.231  51.806  1.00  0.00     0.170 HD
HETATM    6  H   UNL     1      23.584  45.045  52.249  1.00  0.00     0.164 HD
ENDROOT
BRANCH   3   7
HETATM    7  C   UNL     1      24.905  45.474  50.660  1.00  0.00     0.156 C 
BRANCH   7   8
HETATM    8  C   UNL     1      24.858  47.015  50.624  1.00  0.00     0.142 C 
HETATM    9  C   UNL     1      26.087  47.635  51.288  1.00  0.00     0.042 C 
BRANCH   8  10
HETATM   10  O   UNL     1      24.834  47.489  49.269  1.00  0.00    -0.343 OA
BRANCH  10  11
HETATM   11  C   UNL     1      23.952  48.491  48.961  1.00  0.00     0.091 A 
HETATM   12  C   UNL     1      24.476  49.669  48.405  1.00  0.00     0.067 A 
HETATM   13 CL   UNL     1      26.161  49.819  48.049  1.00  0.00    -0.081 Cl
HETATM   14  C   UNL     1      23.641  50.750  48.114  1.00  0.00     0.026 A 
HETATM   15  C   UNL     1      22.276  50.669  48.383  1.00  0.00     0.002 A 
HETATM   16  C   UNL     1      21.751  49.512  48.955  1.00  0.00     0.003 A 
HETATM   17  C   UNL     1      22.587  48.431  49.254  1.00  0.00     0.038 A 
ENDBRANCH  10  11
ENDBRANCH   8  10
ENDBRANCH   7   8
ENDBRANCH   3   7
BRANCH   1  18
HETATM   18  C   UNL     1      27.765  44.347  53.648  1.00  0.00     0.059 A 
HETATM   19  C   UNL     1      28.273  45.274  54.569  1.00  0.00    -0.032 A 
HETATM   20  C   UNL     1      27.787  46.683  54.737  1.00  0.00     0.050 C 
HETATM   21  C   UNL     1      29.338  44.870  55.398  1.00  0.00     0.028 A 
HETATM   22  C   UNL     1      29.894  43.610  55.247  1.00  0.00     0.117 A 
HETATM   23  N   UNL     1      29.472  42.721  54.332  1.00  0.00    -0.271 NA
HETATM   24  C   UNL     1      28.426  43.113  53.566  1.00  0.00     0.146 A 
ENDBRANCH   1  18
TORSDOF 5
ENDMDL
MODEL 8
REMARK VINA RESULT:      -7.2      3.308      7.802
REMARK  5 active torsions:
REMARK  status: ('A' for Active; 'I' for Inactive)
REMARK    1  A    between atoms: C_3  and  N_4 
REMARK       I    between atoms: N_4  and  C_5 
REMARK       I    between atoms: C_5  and  N_6 
REMARK    2  A    between atoms: N_6  and  C_7 
REMARK    3  A    between atoms: C_7  and  C_8 
REMARK    4  A    between atoms: C_8  and  O_9 
REMARK    5  A    between atoms: O_9  and  C_10 
ROOT
HETATM    1  N   UNL     1      25.297  45.821  50.688  1.00  0.00    -0.307 N 
HETATM    2  C   UNL     1      26.174  44.822  50.370  1.00  0.00     0.320 C 
HETATM    3  N   UNL     1      26.404  43.912  51.361  1.00  0.00    -0.340 N 
HETATM    4  O   UNL     1      26.725  44.649  49.289  1.00  0.00    -0.247 OA
HETATM    5  H   UNL     1      24.600  45.527  51.352  1.00  0.00     0.170 HD
HETATM    6  H   UNL     1      27.118  43.242  51.090  1.00  0.00     0.164 HD
ENDROOT
BRANCH   3   7
HETATM    7  C   UNL     1      26.111  43.991  52.788  1.00  0.00     0.156 C 
BRANCH   7   8
HETATM    8  C   UNL     1      27.245  43.428  53.667  1.00  0.00     0.142 C 
HETATM    9  C   UNL     1      27.704  42.051  53.186  1.00  0.00     0.042 C 
BRANCH   8  10
HETATM   10  O   UNL     1      28.394  44.287  53.622  1.00  0.00    -0.343 OA
BRANCH  10  11
HETATM   11  C   UNL     1      28.797  44.873  54.793  1.00  0.00     0.091 A 
HETATM   12  C   UNL     1      29.940  44.352  55.420  1.00  0.00     0.067 A 
HETATM   13 CL   UNL     1      30.852  43.072  54.700  1.00  0.00    -0.081 Cl
HETATM   14  C   UNL     1      30.377  44.867  56.643  1.00  0.00     0.026 A 
HETATM   15  C   UNL     1      29.672  45.901  57.256  1.00  0.00     0.002 A 
HETATM   16  C   UNL     1      28.524  46.409  56.652  1.00  0.00     0.003 A 
HETATM   17  C   UNL     1      28.080  45.889  55.431  1.00  0.00     0.038 A 
ENDBRANCH  10  11
ENDBRANCH   8  10
ENDBRANCH   7   8
ENDBRANCH   3   7
BRANCH   1  18
HETATM   18  C   UNL     1      24.946  46.964  49.927  1.00  0.00     0.059 A 
HETATM   19  C   UNL     1      25.764  48.057  49.608  1.00  0.00    -0.032 A 
HETATM   20  C   UNL     1      27.179  48.243  50.071  1.00  0.00     0.050 C 
HETATM   21  C   UNL     1      25.222  49.080  48.805  1.00  0.00     0.028 A 
HETATM   22  C   UNL     1      23.897  49.018  48.405  1.00  0.00     0.117 A 
HETATM   23  N   UNL     1      23.069  48.016  48.746  1.00  0.00    -0.271 NA
HETATM   24  C   UNL     1      23.614  47.025  49.491  1.00  0.00     0.146 A 
ENDBRANCH   1  18
TORSDOF 5
ENDMDL
MODEL 9
REMARK VINA RESULT:      -7.2     12.398     14.534
REMARK  5 active torsions:
REMARK  status: ('A' for Active; 'I' for Inactive)
REMARK    1  A    between atoms: C_3  and  N_4 
REMARK       I    between atoms: N_4  and  C_5 
REMARK       I    between atoms: C_5  and  N_6 
REMARK    2  A    between atoms: N_6  and  C_7 
REMARK    3  A    between atoms: C_7  and  C_8 
REMARK    4  A    between atoms: C_8  and  O_9 
REMARK    5  A    between atoms: O_9  and  C_10 
ROOT
HETATM    1  N   UNL     1      29.545  50.903  39.155  1.00  0.00    -0.307 N 
HETATM    2  C   UNL     1      28.452  51.519  38.614  1.00  0.00     0.320 C 
HETATM    3  N   UNL     1      27.349  50.728  38.469  1.00  0.00    -0.340 N 
HETATM    4  O   UNL     1      28.361  52.698  38.294  1.00  0.00    -0.247 OA
HETATM    5  H   UNL     1      29.296  50.166  39.795  1.00  0.00     0.170 HD
HETATM    6  H   UNL     1      26.599  51.221  37.994  1.00  0.00     0.164 HD
ENDROOT
BRANCH   3   7
HETATM    7  C   UNL     1      27.229  49.275  38.514  1.00  0.00     0.156 C 
BRANCH   7   8
HETATM    8  C   UNL     1      26.921  48.741  39.928  1.00  0.00     0.142 C 
HETATM    9  C   UNL     1      25.499  48.193  40.029  1.00  0.00     0.042 C 
BRANCH   8  10
HETATM   10  O   UNL     1      27.807  47.663  40.265  1.00  0.00    -0.343 OA
BRANCH  10  11
HETATM   11  C   UNL     1      29.051  47.986  40.739  1.00  0.00     0.091 A 
HETATM   12  C   UNL     1      30.160  47.597  39.970  1.00  0.00     0.067 A 
HETATM   13 CL   UNL     1      29.960  46.810  38.445  1.00  0.00    -0.081 Cl
HETATM   14  C   UNL     1      31.459  47.849  40.418  1.00  0.00     0.026 A 
HETATM   15  C   UNL     1      31.664  48.484  41.642  1.00  0.00     0.002 A 
HETATM   16  C   UNL     1      30.570  48.854  42.421  1.00  0.00     0.003 A 
HETATM   17  C   UNL     1      29.269  48.596  41.978  1.00  0.00     0.038 A 
ENDBRANCH  10  11
ENDBRANCH   8  10
ENDBRANCH   7   8
ENDBRANCH   3   7
BRANCH   1  18
HETATM   18  C   UNL     1      30.856  51.414  39.323  1.00  0.00     0.059 A 
HETATM   19  C   UNL     1      31.351  52.141  40.415  1.00  0.00    -0.032 A 
HETATM   20  C   UNL     1      30.548  52.565  41.609  1.00  0.00     0.050 C 
HETATM   21  C   UNL     1      32.706  52.527  40.394  1.00  0.00     0.028 A 
HETATM   22  C   UNL     1      33.491  52.242  39.289  1.00  0.00     0.117 A 
HETATM   23  N   UNL     1      33.031  51.603  38.201  1.00  0.00    -0.271 NA
HETATM   24  C   UNL     1      31.736  51.209  38.250  1.00  0.00     0.146 A 
ENDBRANCH   1  18
TORSDOF 5
ENDMDL
MODEL 10
REMARK VINA RESULT:      -7.2      2.038      2.943
REMARK  5 active torsions:
REMARK  status: ('A' for Active; 'I' for Inactive)
REMARK    1  A    between atoms: C_3  and  N_4 
REMARK       I    between atoms: N_4  and  C_5 
REMARK       I    between atoms: C_5  and  N_6 
REMARK    2  A    between atoms: N_6  and  C_7 
REMARK    3  A    between atoms: C_7  and  C_8 
REMARK    4  A    between atoms: C_8  and  O_9 
REMARK    5  A    between atoms: O_9  and  C_10 
ROOT
HETATM    1  N   UNL     1      27.776  44.142  53.736  1.00  0.00    -0.307 N 
HETATM    2  C   UNL     1      26.478  43.817  54.017  1.00  0.00     0.320 C 
HETATM    3  N   UNL     1      25.633  43.813  52.946  1.00  0.00    -0.340 N 
HETATM    4  O   UNL     1      26.026  43.497  55.110  1.00  0.00    -0.247 OA
HETATM    5  H   UNL     1      28.050  43.867  52.806  1.00  0.00     0.170 HD
HETATM    6  H   UNL     1      24.674  43.640  53.232  1.00  0.00     0.164 HD
ENDROOT
BRANCH   3   7
HETATM    7  C   UNL     1      25.810  44.382  51.614  1.00  0.00     0.156 C 
BRANCH   7   8
HETATM    8  C   UNL     1      25.099  45.739  51.442  1.00  0.00     0.142 C 
HETATM    9  C   UNL     1      25.779  46.842  52.252  1.00  0.00     0.042 C 
BRANCH   8  10
HETATM   10  O   UNL     1      25.129  46.155  50.068  1.00  0.00    -0.343 OA
BRANCH  10  11
HETATM   11  C   UNL     1      23.970  46.646  49.527  1.00  0.00     0.091 A 
HETATM   12  C   UNL     1      23.164  45.755  48.799  1.00  0.00     0.067 A 
HETATM   13 CL   UNL     1      23.579  44.083  48.659  1.00  0.00    -0.081 Cl
HETATM   14  C   UNL     1      21.995  46.200  48.178  1.00  0.00     0.026 A 
HETATM   15  C   UNL     1      21.623  47.540  48.269  1.00  0.00     0.002 A 
HETATM   16  C   UNL     1      22.427  48.435  48.970  1.00  0.00     0.003 A 
HETATM   17  C   UNL     1      23.603  47.993  49.586  1.00  0.00     0.038 A 
ENDBRANCH  10  11
ENDBRANCH   8  10
ENDBRANCH   7   8
ENDBRANCH   3   7
BRANCH   1  18
HETATM   18  C   UNL     1      28.852  44.344  54.635  1.00  0.00     0.059 A 
HETATM   19  C   UNL     1      29.157  45.513  55.345  1.00  0.00    -0.032 A 
HETATM   20  C   UNL     1      28.411  46.811  55.239  1.00  0.00     0.050 C 
HETATM   21  C   UNL     1      30.261  45.489  56.220  1.00  0.00     0.028 A 
HETATM   22  C   UNL     1      31.048  44.352  56.312  1.00  0.00     0.117 A 
HETATM   23  N   UNL     1      30.820  43.237  55.598  1.00  0.00    -0.271 NA
HETATM   24  C   UNL     1      29.735  43.265  54.787  1.00  0.00     0.146 A 
ENDBRANCH   1  18
TORSDOF 5
ENDMDL
