MODEL 1
REMARK VINA RESULT:      -8.4      0.000      0.000
REMARK  7 active torsions:
REMARK  status: ('A' for Active; 'I' for Inactive)
REMARK    1  A    between atoms: C_6  and  C_7 
REMARK    2  A    between atoms: N_13  and  C_15 
REMARK    3  A    between atoms: C_15  and  C_16 
REMARK    4  A    between atoms: C_16  and  N_17 
REMARK       I    between atoms: N_17  and  C_18 
REMARK    5  A    between atoms: C_18  and  C_19 
REMARK    6  A    between atoms: C_19  and  N_20 
REMARK    7  A    between atoms: C_19  and  C_27 
ROOT
HETATM    1  C   UNL     1      20.272  45.574  48.432  1.00  0.00     0.150 C 
ENDROOT
BRANCH   1   2
HETATM    2  C   UNL     1      19.371  46.793  48.126  1.00  0.00     0.255 C 
BRANCH   2   3
HETATM    3  N   UNL     1      18.355  47.077  49.221  1.00  0.00    -0.063 N 
HETATM    4  C   UNL     1      16.909  47.309  48.818  1.00  0.00     0.272 C 
HETATM    5  C   UNL     1      16.596  48.590  48.003  1.00  0.00     0.188 C 
HETATM    6  O   UNL     1      16.879  49.821  48.693  1.00  0.00    -0.339 OA
HETATM    7  C   UNL     1      18.171  50.218  48.849  1.00  0.00     0.077 A 
HETATM    8  C   UNL     1      19.150  49.465  49.499  1.00  0.00     0.001 A 
HETATM    9  C   UNL     1      18.461  51.510  48.399  1.00  0.00     0.037 A 
HETATM   10  C   UNL     1      20.452  49.991  49.600  1.00  0.00     0.012 A 
HETATM   11  C   UNL     1      18.830  48.165  50.162  1.00  0.00     0.276 C 
HETATM   12  C   UNL     1      20.752  51.256  49.093  1.00  0.00     0.001 A 
HETATM   13  C   UNL     1      19.752  52.022  48.505  1.00  0.00     0.003 A 
HETATM   14  H   UNL     1      18.337  46.240  49.818  1.00  0.00     0.280 HD
BRANCH   5  15
HETATM   15  C   UNL     1      16.942  48.495  46.521  1.00  0.00    -0.020 A 
HETATM   16  C   UNL     1      16.198  47.728  45.634  1.00  0.00     0.059 A 
HETATM   17  S   UNL     1      16.795  47.758  44.034  1.00  0.00    -0.113 SA
HETATM   18  C   UNL     1      18.014  48.867  44.459  1.00  0.00     0.050 A 
HETATM   19  C   UNL     1      17.990  49.169  45.804  1.00  0.00     0.017 A 
ENDBRANCH   5  15
ENDBRANCH   2   3
ENDBRANCH   1   2
BRANCH   1  20
HETATM   20  N   UNL     1      21.509  45.851  49.173  1.00  0.00    -0.357 N 
HETATM   21  C   UNL     1      22.637  46.380  48.569  1.00  0.00     0.253 C 
HETATM   22  O   UNL     1      22.732  46.442  47.345  1.00  0.00    -0.271 OA
HETATM   23  H   UNL     1      21.391  45.991  50.175  1.00  0.00     0.162 HD
BRANCH  21  24
HETATM   24  C   UNL     1      23.772  46.886  49.523  1.00  0.00     0.314 C 
BRANCH  24  25
HETATM   25  N   UNL     1      24.781  45.801  49.958  1.00  0.00    -0.050 N 
HETATM   26  H   UNL     1      25.711  46.229  49.856  1.00  0.00     0.281 HD
HETATM   27  C   UNL     1      24.630  45.408  51.424  1.00  0.00     0.262 C 
HETATM   28  C   UNL     1      25.736  44.420  51.811  1.00  0.00     0.195 C 
HETATM   29  O   UNL     1      25.693  43.264  50.971  1.00  0.00    -0.388 OA
HETATM   30  C   UNL     1      25.913  43.596  49.595  1.00  0.00     0.195 C 
HETATM   31  C   UNL     1      24.817  44.541  49.084  1.00  0.00     0.262 C 
ENDBRANCH  24  25
BRANCH  24  32
HETATM   32  C   UNL     1      24.464  48.119  48.989  1.00  0.00    -0.001 A 
HETATM   33  C   UNL     1      23.793  49.069  48.221  1.00  0.00     0.126 A 
HETATM   34  N   UNL     1      24.377  50.163  47.697  1.00  0.00    -0.272 NA
HETATM   35  C   UNL     1      25.695  50.339  47.929  1.00  0.00     0.116 A 
HETATM   36  C   UNL     1      26.457  49.455  48.671  1.00  0.00     0.020 A 
HETATM   37  C   UNL     1      25.833  48.330  49.206  1.00  0.00     0.012 A 
ENDBRANCH  24  32
ENDBRANCH  21  24
ENDBRANCH   1  20
TORSDOF 7
ENDMDL
MODEL 2
REMARK VINA RESULT:      -8.0      3.094      8.441
REMARK  7 active torsions:
REMARK  status: ('A' for Active; 'I' for Inactive)
REMARK    1  A    between atoms: C_6  and  C_7 
REMARK    2  A    between atoms: N_13  and  C_15 
REMARK    3  A    between atoms: C_15  and  C_16 
REMARK    4  A    between atoms: C_16  and  N_17 
REMARK       I    between atoms: N_17  and  C_18 
REMARK    5  A    between atoms: C_18  and  C_19 
REMARK    6  A    between atoms: C_19  and  N_20 
REMARK    7  A    between atoms: C_19  and  C_27 
ROOT
HETATM    1  C   UNL     1      22.446  44.096  49.654  1.00  0.00     0.150 C 
ENDROOT
BRANCH   1   2
HETATM    2  C   UNL     1      23.639  44.107  50.637  1.00  0.00     0.255 C 
BRANCH   2   3
HETATM    3  N   UNL     1      24.609  45.252  50.388  1.00  0.00    -0.063 N 
HETATM    4  C   UNL     1      25.761  45.020  49.425  1.00  0.00     0.272 C 
HETATM    5  C   UNL     1      26.851  44.005  49.852  1.00  0.00     0.188 C 
HETATM    6  O   UNL     1      27.572  44.368  51.044  1.00  0.00    -0.339 OA
HETATM    7  C   UNL     1      26.965  44.249  52.255  1.00  0.00     0.077 A 
HETATM    8  C   UNL     1      25.780  44.896  52.605  1.00  0.00     0.001 A 
HETATM    9  C   UNL     1      27.663  43.496  53.205  1.00  0.00     0.037 A 
HETATM   10  C   UNL     1      25.254  44.694  53.896  1.00  0.00     0.012 A 
HETATM   11  C   UNL     1      25.108  45.860  51.682  1.00  0.00     0.276 C 
HETATM   12  C   UNL     1      25.922  43.891  54.821  1.00  0.00     0.001 A 
HETATM   13  C   UNL     1      27.135  43.303  54.480  1.00  0.00     0.003 A 
HETATM   14  H   UNL     1      24.056  46.009  49.967  1.00  0.00     0.280 HD
BRANCH   5  15
HETATM   15  C   UNL     1      26.462  42.543  49.659  1.00  0.00    -0.020 A 
HETATM   16  C   UNL     1      25.946  42.065  48.461  1.00  0.00     0.059 A 
HETATM   17  S   UNL     1      25.561  40.402  48.496  1.00  0.00    -0.113 SA
HETATM   18  C   UNL     1      26.154  40.249  50.084  1.00  0.00     0.050 A 
HETATM   19  C   UNL     1      26.593  41.454  50.589  1.00  0.00     0.017 A 
ENDBRANCH   5  15
ENDBRANCH   2   3
ENDBRANCH   1   2
BRANCH   1  20
HETATM   20  N   UNL     1      22.016  45.402  49.140  1.00  0.00    -0.357 N 
HETATM   21  C   UNL     1      22.136  45.755  47.807  1.00  0.00     0.253 C 
HETATM   22  O   UNL     1      22.805  45.079  47.029  1.00  0.00    -0.271 OA
HETATM   23  H   UNL     1      21.308  45.875  49.700  1.00  0.00     0.162 HD
BRANCH  21  24
HETATM   24  C   UNL     1      21.382  47.052  47.354  1.00  0.00     0.314 C 
BRANCH  24  25
HETATM   25  N   UNL     1      19.844  46.980  47.473  1.00  0.00    -0.050 N 
HETATM   26  H   UNL     1      19.483  47.739  46.881  1.00  0.00     0.281 HD
HETATM   27  C   UNL     1      19.271  45.677  46.925  1.00  0.00     0.262 C 
HETATM   28  C   UNL     1      17.739  45.728  46.968  1.00  0.00     0.195 C 
HETATM   29  O   UNL     1      17.282  45.960  48.303  1.00  0.00    -0.388 OA
HETATM   30  C   UNL     1      17.742  47.216  48.814  1.00  0.00     0.195 C 
HETATM   31  C   UNL     1      19.275  47.250  48.872  1.00  0.00     0.262 C 
ENDBRANCH  24  25
BRANCH  24  32
HETATM   32  C   UNL     1      21.941  48.298  48.002  1.00  0.00    -0.001 A 
HETATM   33  C   UNL     1      22.922  48.240  48.991  1.00  0.00     0.126 A 
HETATM   34  N   UNL     1      23.422  49.321  49.618  1.00  0.00    -0.272 NA
HETATM   35  C   UNL     1      22.935  50.530  49.267  1.00  0.00     0.116 A 
HETATM   36  C   UNL     1      21.957  50.699  48.304  1.00  0.00     0.020 A 
HETATM   37  C   UNL     1      21.453  49.568  47.665  1.00  0.00     0.012 A 
ENDBRANCH  24  32
ENDBRANCH  21  24
ENDBRANCH   1  20
TORSDOF 7
ENDMDL
MODEL 3
REMARK VINA RESULT:      -8.0      2.450      8.659
REMARK  7 active torsions:
REMARK  status: ('A' for Active; 'I' for Inactive)
REMARK    1  A    between atoms: C_6  and  C_7 
REMARK    2  A    between atoms: N_13  and  C_15 
REMARK    3  A    between atoms: C_15  and  C_16 
REMARK    4  A    between atoms: C_16  and  N_17 
REMARK       I    between atoms: N_17  and  C_18 
REMARK    5  A    between atoms: C_18  and  C_19 
REMARK    6  A    between atoms: C_19  and  N_20 
REMARK    7  A    between atoms: C_19  and  C_27 
ROOT
HETATM    1  C   UNL     1      23.882  47.927  49.432  1.00  0.00     0.150 C 
ENDROOT
BRANCH   1   2
HETATM    2  C   UNL     1      24.587  47.183  50.588  1.00  0.00     0.255 C 
BRANCH   2   3
HETATM    3  N   UNL     1      26.102  47.160  50.450  1.00  0.00    -0.063 N 
HETATM    4  C   UNL     1      26.724  46.126  49.527  1.00  0.00     0.272 C 
HETATM    5  C   UNL     1      26.600  44.638  49.942  1.00  0.00     0.188 C 
HETATM    6  O   UNL     1      27.248  44.308  51.184  1.00  0.00    -0.339 OA
HETATM    7  C   UNL     1      26.682  44.697  52.358  1.00  0.00     0.077 A 
HETATM    8  C   UNL     1      26.405  46.023  52.693  1.00  0.00     0.001 A 
HETATM    9  C   UNL     1      26.474  43.678  53.293  1.00  0.00     0.037 A 
HETATM   10  C   UNL     1      25.821  46.297  53.944  1.00  0.00     0.012 A 
HETATM   11  C   UNL     1      26.791  47.156  51.799  1.00  0.00     0.276 C 
HETATM   12  C   UNL     1      25.557  45.268  54.849  1.00  0.00     0.001 A 
HETATM   13  C   UNL     1      25.897  43.959  54.529  1.00  0.00     0.003 A 
HETATM   14  H   UNL     1      26.366  48.070  50.051  1.00  0.00     0.280 HD
BRANCH   5  15
HETATM   15  C   UNL     1      25.241  44.011  49.647  1.00  0.00    -0.020 A 
HETATM   16  C   UNL     1      24.466  44.401  48.562  1.00  0.00     0.059 A 
HETATM   17  S   UNL     1      22.975  43.576  48.454  1.00  0.00    -0.113 SA
HETATM   18  C   UNL     1      23.357  42.610  49.802  1.00  0.00     0.050 A 
HETATM   19  C   UNL     1      24.578  42.945  50.347  1.00  0.00     0.017 A 
ENDBRANCH   5  15
ENDBRANCH   2   3
ENDBRANCH   1   2
BRANCH   1  20
HETATM   20  N   UNL     1      22.450  48.196  49.610  1.00  0.00    -0.357 N 
HETATM   21  C   UNL     1      21.538  48.098  48.573  1.00  0.00     0.253 C 
HETATM   22  O   UNL     1      21.911  47.992  47.408  1.00  0.00    -0.271 OA
HETATM   23  H   UNL     1      22.106  48.092  50.563  1.00  0.00     0.162 HD
BRANCH  21  24
HETATM   24  C   UNL     1      20.021  48.132  48.967  1.00  0.00     0.314 C 
BRANCH  24  25
HETATM   25  N   UNL     1      19.363  49.526  48.880  1.00  0.00    -0.050 N 
HETATM   26  H   UNL     1      18.757  49.496  48.049  1.00  0.00     0.281 HD
HETATM   27  C   UNL     1      18.465  49.829  50.075  1.00  0.00     0.262 C 
HETATM   28  C   UNL     1      17.757  51.172  49.861  1.00  0.00     0.195 C 
HETATM   29  O   UNL     1      18.712  52.218  49.668  1.00  0.00    -0.388 OA
HETATM   30  C   UNL     1      19.517  51.997  48.504  1.00  0.00     0.195 C 
HETATM   31  C   UNL     1      20.323  50.698  48.640  1.00  0.00     0.262 C 
ENDBRANCH  24  25
BRANCH  24  32
HETATM   32  C   UNL     1      19.216  47.080  48.239  1.00  0.00    -0.001 A 
HETATM   33  C   UNL     1      19.367  45.719  48.503  1.00  0.00     0.126 A 
HETATM   34  N   UNL     1      18.696  44.749  47.856  1.00  0.00    -0.272 NA
HETATM   35  C   UNL     1      17.832  45.123  46.889  1.00  0.00     0.116 A 
HETATM   36  C   UNL     1      17.611  46.444  46.542  1.00  0.00     0.020 A 
HETATM   37  C   UNL     1      18.315  47.434  47.226  1.00  0.00     0.012 A 
ENDBRANCH  24  32
ENDBRANCH  21  24
ENDBRANCH   1  20
TORSDOF 7
ENDMDL
MODEL 4
REMARK VINA RESULT:      -7.9      1.752      3.521
REMARK  7 active torsions:
REMARK  status: ('A' for Active; 'I' for Inactive)
REMARK    1  A    between atoms: C_6  and  C_7 
REMARK    2  A    between atoms: N_13  and  C_15 
REMARK    3  A    between atoms: C_15  and  C_16 
REMARK    4  A    between atoms: C_16  and  N_17 
REMARK       I    between atoms: N_17  and  C_18 
REMARK    5  A    between atoms: C_18  and  C_19 
REMARK    6  A    between atoms: C_19  and  N_20 
REMARK    7  A    between atoms: C_19  and  C_27 
ROOT
HETATM    1  C   UNL     1      21.464  46.161  48.767  1.00  0.00     0.150 C 
ENDROOT
BRANCH   1   2
HETATM    2  C   UNL     1      20.460  47.304  48.492  1.00  0.00     0.255 C 
BRANCH   2   3
HETATM    3  N   UNL     1      19.263  47.287  49.430  1.00  0.00    -0.063 N 
HETATM    4  C   UNL     1      17.921  46.839  48.876  1.00  0.00     0.272 C 
HETATM    5  C   UNL     1      17.252  47.749  47.814  1.00  0.00     0.188 C 
HETATM    6  O   UNL     1      16.918  49.068  48.283  1.00  0.00    -0.339 OA
HETATM    7  C   UNL     1      17.907  49.983  48.466  1.00  0.00     0.077 A 
HETATM    8  C   UNL     1      18.994  49.803  49.321  1.00  0.00     0.001 A 
HETATM    9  C   UNL     1      17.725  51.204  47.808  1.00  0.00     0.037 A 
HETATM   10  C   UNL     1      19.950  50.831  49.426  1.00  0.00     0.012 A 
HETATM   11  C   UNL     1      19.120  48.591  50.187  1.00  0.00     0.276 C 
HETATM   12  C   UNL     1      19.798  52.023  48.718  1.00  0.00     0.001 A 
HETATM   13  C   UNL     1      18.677  52.216  47.920  1.00  0.00     0.003 A 
HETATM   14  H   UNL     1      19.488  46.608  50.169  1.00  0.00     0.280 HD
BRANCH   5  15
HETATM   15  C   UNL     1      17.825  47.605  46.408  1.00  0.00    -0.020 A 
HETATM   16  C   UNL     1      18.242  46.381  45.900  1.00  0.00     0.059 A 
HETATM   17  S   UNL     1      18.872  46.476  44.315  1.00  0.00    -0.113 SA
HETATM   18  C   UNL     1      18.525  48.140  44.226  1.00  0.00     0.050 A 
HETATM   19  C   UNL     1      17.983  48.617  45.400  1.00  0.00     0.017 A 
ENDBRANCH   5  15
ENDBRANCH   2   3
ENDBRANCH   1   2
BRANCH   1  20
HETATM   20  N   UNL     1      22.703  46.538  49.458  1.00  0.00    -0.357 N 
HETATM   21  C   UNL     1      23.914  45.914  49.211  1.00  0.00     0.253 C 
HETATM   22  O   UNL     1      23.971  44.873  48.561  1.00  0.00    -0.271 OA
HETATM   23  H   UNL     1      22.718  47.486  49.831  1.00  0.00     0.162 HD
BRANCH  21  24
HETATM   24  C   UNL     1      25.191  46.603  49.802  1.00  0.00     0.314 C 
BRANCH  24  25
HETATM   25  N   UNL     1      25.369  48.084  49.404  1.00  0.00    -0.050 N 
HETATM   26  H   UNL     1      25.235  48.623  50.270  1.00  0.00     0.281 HD
HETATM   27  C   UNL     1      26.775  48.394  48.899  1.00  0.00     0.262 C 
HETATM   28  C   UNL     1      26.910  49.899  48.638  1.00  0.00     0.195 C 
HETATM   29  O   UNL     1      25.927  50.334  47.696  1.00  0.00    -0.388 OA
HETATM   30  C   UNL     1      24.594  50.128  48.180  1.00  0.00     0.195 C 
HETATM   31  C   UNL     1      24.330  48.635  48.419  1.00  0.00     0.262 C 
ENDBRANCH  24  25
BRANCH  24  32
HETATM   32  C   UNL     1      25.314  46.400  51.295  1.00  0.00    -0.001 A 
HETATM   33  C   UNL     1      25.621  47.448  52.161  1.00  0.00     0.126 A 
HETATM   34  N   UNL     1      25.774  47.306  53.490  1.00  0.00    -0.272 NA
HETATM   35  C   UNL     1      25.624  46.069  54.009  1.00  0.00     0.116 A 
HETATM   36  C   UNL     1      25.326  44.959  53.240  1.00  0.00     0.020 A 
HETATM   37  C   UNL     1      25.171  45.127  51.865  1.00  0.00     0.012 A 
ENDBRANCH  24  32
ENDBRANCH  21  24
ENDBRANCH   1  20
TORSDOF 7
ENDMDL
MODEL 5
REMARK VINA RESULT:      -7.9      2.066      3.434
REMARK  7 active torsions:
REMARK  status: ('A' for Active; 'I' for Inactive)
REMARK    1  A    between atoms: C_6  and  C_7 
REMARK    2  A    between atoms: N_13  and  C_15 
REMARK    3  A    between atoms: C_15  and  C_16 
REMARK    4  A    between atoms: C_16  and  N_17 
REMARK       I    between atoms: N_17  and  C_18 
REMARK    5  A    between atoms: C_18  and  C_19 
REMARK    6  A    between atoms: C_19  and  N_20 
REMARK    7  A    between atoms: C_19  and  C_27 
ROOT
HETATM    1  C   UNL     1      23.059  48.233  48.772  1.00  0.00     0.150 C 
ENDROOT
BRANCH   1   2
HETATM    2  C   UNL     1      21.580  48.469  48.391  1.00  0.00     0.255 C 
BRANCH   2   3
HETATM    3  N   UNL     1      20.617  48.205  49.538  1.00  0.00    -0.063 N 
HETATM    4  C   UNL     1      19.504  47.194  49.324  1.00  0.00     0.272 C 
HETATM    5  C   UNL     1      18.401  47.558  48.298  1.00  0.00     0.188 C 
HETATM    6  O   UNL     1      17.634  48.729  48.636  1.00  0.00    -0.339 OA
HETATM    7  C   UNL     1      18.194  49.959  48.494  1.00  0.00     0.077 A 
HETATM    8  C   UNL     1      19.363  50.369  49.136  1.00  0.00     0.001 A 
HETATM    9  C   UNL     1      17.462  50.867  47.721  1.00  0.00     0.037 A 
HETATM   10  C   UNL     1      19.839  51.674  48.909  1.00  0.00     0.012 A 
HETATM   11  C   UNL     1      20.067  49.491  50.120  1.00  0.00     0.276 C 
HETATM   12  C   UNL     1      19.138  52.556  48.086  1.00  0.00     0.001 A 
HETATM   13  C   UNL     1      17.941  52.157  47.503  1.00  0.00     0.003 A 
HETATM   14  H   UNL     1      21.184  47.822  50.306  1.00  0.00     0.280 HD
BRANCH   5  15
HETATM   15  C   UNL     1      18.801  47.352  46.841  1.00  0.00    -0.020 A 
HETATM   16  C   UNL     1      19.630  46.311  46.441  1.00  0.00     0.059 A 
HETATM   17  S   UNL     1      19.957  46.302  44.765  1.00  0.00    -0.113 SA
HETATM   18  C   UNL     1      18.931  47.635  44.509  1.00  0.00     0.050 A 
HETATM   19  C   UNL     1      18.388  48.103  45.687  1.00  0.00     0.017 A 
ENDBRANCH   5  15
ENDBRANCH   2   3
ENDBRANCH   1   2
BRANCH   1  20
HETATM   20  N   UNL     1      23.341  47.032  49.568  1.00  0.00    -0.357 N 
HETATM   21  C   UNL     1      24.596  46.754  50.080  1.00  0.00     0.253 C 
HETATM   22  O   UNL     1      25.585  47.385  49.714  1.00  0.00    -0.271 OA
HETATM   23  H   UNL     1      22.532  46.621  50.032  1.00  0.00     0.162 HD
BRANCH  21  24
HETATM   24  C   UNL     1      24.684  45.601  51.139  1.00  0.00     0.314 C 
BRANCH  24  25
HETATM   25  N   UNL     1      25.017  44.211  50.553  1.00  0.00    -0.050 N 
HETATM   26  H   UNL     1      25.333  43.643  51.350  1.00  0.00     0.281 HD
HETATM   27  C   UNL     1      23.796  43.512  49.964  1.00  0.00     0.262 C 
HETATM   28  C   UNL     1      24.179  42.098  49.513  1.00  0.00     0.195 C 
HETATM   29  O   UNL     1      25.243  42.146  48.561  1.00  0.00    -0.388 OA
HETATM   30  C   UNL     1      26.430  42.727  49.114  1.00  0.00     0.195 C 
HETATM   31  C   UNL     1      26.173  44.177  49.546  1.00  0.00     0.262 C 
ENDBRANCH  24  25
BRANCH  24  32
HETATM   32  C   UNL     1      25.584  45.956  52.300  1.00  0.00    -0.001 A 
HETATM   33  C   UNL     1      26.547  45.073  52.786  1.00  0.00     0.126 A 
HETATM   34  N   UNL     1      27.345  45.334  53.838  1.00  0.00    -0.272 NA
HETATM   35  C   UNL     1      27.192  46.522  54.460  1.00  0.00     0.116 A 
HETATM   36  C   UNL     1      26.262  47.467  54.065  1.00  0.00     0.020 A 
HETATM   37  C   UNL     1      25.446  47.179  52.972  1.00  0.00     0.012 A 
ENDBRANCH  24  32
ENDBRANCH  21  24
ENDBRANCH   1  20
TORSDOF 7
ENDMDL
MODEL 6
REMARK VINA RESULT:      -7.8      2.135      3.658
REMARK  7 active torsions:
REMARK  status: ('A' for Active; 'I' for Inactive)
REMARK    1  A    between atoms: C_6  and  C_7 
REMARK    2  A    between atoms: N_13  and  C_15 
REMARK    3  A    between atoms: C_15  and  C_16 
REMARK    4  A    between atoms: C_16  and  N_17 
REMARK       I    between atoms: N_17  and  C_18 
REMARK    5  A    between atoms: C_18  and  C_19 
REMARK    6  A    between atoms: C_19  and  N_20 
REMARK    7  A    between atoms: C_19  and  C_27 
ROOT
HETATM    1  C   UNL     1      22.654  48.659  49.384  1.00  0.00     0.150 C 
ENDROOT
BRANCH   1   2
HETATM    2  C   UNL     1      21.234  48.537  48.785  1.00  0.00     0.255 C 
BRANCH   2   3
HETATM    3  N   UNL     1      20.156  48.328  49.837  1.00  0.00    -0.063 N 
HETATM    4  C   UNL     1      19.052  47.326  49.545  1.00  0.00     0.272 C 
HETATM    5  C   UNL     1      18.064  47.671  48.402  1.00  0.00     0.188 C 
HETATM    6  O   UNL     1      17.288  48.863  48.622  1.00  0.00    -0.339 OA
HETATM    7  C   UNL     1      17.882  50.080  48.496  1.00  0.00     0.077 A 
HETATM    8  C   UNL     1      18.988  50.494  49.240  1.00  0.00     0.001 A 
HETATM    9  C   UNL     1      17.248  50.971  47.624  1.00  0.00     0.037 A 
HETATM   10  C   UNL     1      19.508  51.783  49.019  1.00  0.00     0.012 A 
HETATM   11  C   UNL     1      19.574  49.641  50.317  1.00  0.00     0.276 C 
HETATM   12  C   UNL     1      18.909  52.647  48.101  1.00  0.00     0.001 A 
HETATM   13  C   UNL     1      17.770  52.246  47.413  1.00  0.00     0.003 A 
HETATM   14  H   UNL     1      20.636  47.963  50.670  1.00  0.00     0.280 HD
BRANCH   5  15
HETATM   15  C   UNL     1      18.605  47.408  47.000  1.00  0.00    -0.020 A 
HETATM   16  C   UNL     1      19.438  46.333  46.717  1.00  0.00     0.059 A 
HETATM   17  S   UNL     1      19.935  46.263  45.085  1.00  0.00    -0.113 SA
HETATM   18  C   UNL     1      18.981  47.615  44.687  1.00  0.00     0.050 A 
HETATM   19  C   UNL     1      18.335  48.133  45.789  1.00  0.00     0.017 A 
ENDBRANCH   5  15
ENDBRANCH   2   3
ENDBRANCH   1   2
BRANCH   1  20
HETATM   20  N   UNL     1      23.371  47.399  49.613  1.00  0.00    -0.357 N 
HETATM   21  C   UNL     1      24.724  47.353  49.905  1.00  0.00     0.253 C 
HETATM   22  O   UNL     1      25.435  48.346  49.773  1.00  0.00    -0.271 OA
HETATM   23  H   UNL     1      22.789  46.618  49.913  1.00  0.00     0.162 HD
BRANCH  21  24
HETATM   24  C   UNL     1      25.289  45.979  50.403  1.00  0.00     0.314 C 
BRANCH  24  25
HETATM   25  N   UNL     1      25.578  45.912  51.919  1.00  0.00    -0.050 N 
HETATM   26  H   UNL     1      24.754  45.464  52.340  1.00  0.00     0.281 HD
HETATM   27  C   UNL     1      26.780  45.033  52.250  1.00  0.00     0.262 C 
HETATM   28  C   UNL     1      26.932  44.919  53.771  1.00  0.00     0.195 C 
HETATM   29  O   UNL     1      27.074  46.214  54.360  1.00  0.00    -0.388 OA
HETATM   30  C   UNL     1      25.922  47.034  54.131  1.00  0.00     0.195 C 
HETATM   31  C   UNL     1      25.711  47.265  52.628  1.00  0.00     0.262 C 
ENDBRANCH  24  25
BRANCH  24  32
HETATM   32  C   UNL     1      24.452  44.811  49.935  1.00  0.00    -0.001 A 
HETATM   33  C   UNL     1      23.612  44.110  50.798  1.00  0.00     0.126 A 
HETATM   34  N   UNL     1      22.877  43.044  50.432  1.00  0.00    -0.272 NA
HETATM   35  C   UNL     1      22.969  42.630  49.150  1.00  0.00     0.116 A 
HETATM   36  C   UNL     1      23.777  43.248  48.214  1.00  0.00     0.020 A 
HETATM   37  C   UNL     1      24.530  44.352  48.612  1.00  0.00     0.012 A 
ENDBRANCH  24  32
ENDBRANCH  21  24
ENDBRANCH   1  20
TORSDOF 7
ENDMDL
MODEL 7
REMARK VINA RESULT:      -7.8      9.573     13.211
REMARK  7 active torsions:
REMARK  status: ('A' for Active; 'I' for Inactive)
REMARK    1  A    between atoms: C_6  and  C_7 
REMARK    2  A    between atoms: N_13  and  C_15 
REMARK    3  A    between atoms: C_15  and  C_16 
REMARK    4  A    between atoms: C_16  and  N_17 
REMARK       I    between atoms: N_17  and  C_18 
REMARK    5  A    between atoms: C_18  and  C_19 
REMARK    6  A    between atoms: C_19  and  N_20 
REMARK    7  A    between atoms: C_19  and  C_27 
ROOT
HETATM    1  C   UNL     1      27.397  51.586  40.923  1.00  0.00     0.150 C 
ENDROOT
BRANCH   1   2
HETATM    2  C   UNL     1      28.882  51.199  40.742  1.00  0.00     0.255 C 
BRANCH   2   3
HETATM    3  N   UNL     1      29.691  52.257  40.007  1.00  0.00    -0.063 N 
HETATM    4  C   UNL     1      30.616  51.807  38.889  1.00  0.00     0.272 C 
HETATM    5  C   UNL     1      31.842  50.946  39.286  1.00  0.00     0.188 C 
HETATM    6  O   UNL     1      32.780  51.607  40.155  1.00  0.00    -0.339 OA
HETATM    7  C   UNL     1      32.464  51.787  41.466  1.00  0.00     0.077 A 
HETATM    8  C   UNL     1      31.342  52.486  41.913  1.00  0.00     0.001 A 
HETATM    9  C   UNL     1      33.406  51.307  42.383  1.00  0.00     0.037 A 
HETATM   10  C   UNL     1      31.130  52.607  43.299  1.00  0.00     0.012 A 
HETATM   11  C   UNL     1      30.418  53.178  40.965  1.00  0.00     0.276 C 
HETATM   12  C   UNL     1      32.039  52.071  44.212  1.00  0.00     0.001 A 
HETATM   13  C   UNL     1      33.186  51.433  43.753  1.00  0.00     0.003 A 
HETATM   14  H   UNL     1      29.007  52.878  39.555  1.00  0.00     0.280 HD
BRANCH   5  15
HETATM   15  C   UNL     1      31.525  49.478  39.547  1.00  0.00    -0.020 A 
HETATM   16  C   UNL     1      30.628  48.763  38.762  1.00  0.00     0.059 A 
HETATM   17  S   UNL     1      30.417  47.145  39.266  1.00  0.00    -0.113 SA
HETATM   18  C   UNL     1      31.583  47.324  40.493  1.00  0.00     0.050 A 
HETATM   19  C   UNL     1      32.086  48.606  40.543  1.00  0.00     0.017 A 
ENDBRANCH   5  15
ENDBRANCH   2   3
ENDBRANCH   1   2
BRANCH   1  20
HETATM   20  N   UNL     1      26.411  50.650  40.370  1.00  0.00    -0.357 N 
HETATM   21  C   UNL     1      26.549  50.074  39.119  1.00  0.00     0.253 C 
HETATM   22  O   UNL     1      27.392  50.481  38.322  1.00  0.00    -0.271 OA
HETATM   23  H   UNL     1      25.839  50.166  41.060  1.00  0.00     0.162 HD
BRANCH  21  24
HETATM   24  C   UNL     1      25.581  48.889  38.780  1.00  0.00     0.314 C 
BRANCH  24  25
HETATM   25  N   UNL     1      25.957  47.541  39.434  1.00  0.00    -0.050 N 
HETATM   26  H   UNL     1      25.078  47.157  39.805  1.00  0.00     0.281 HD
HETATM   27  C   UNL     1      26.496  46.529  38.428  1.00  0.00     0.262 C 
HETATM   28  C   UNL     1      26.734  45.185  39.126  1.00  0.00     0.195 C 
HETATM   29  O   UNL     1      27.638  45.340  40.222  1.00  0.00    -0.388 OA
HETATM   30  C   UNL     1      27.120  46.227  41.221  1.00  0.00     0.195 C 
HETATM   31  C   UNL     1      26.901  47.630  40.639  1.00  0.00     0.262 C 
ENDBRANCH  24  25
BRANCH  24  32
HETATM   32  C   UNL     1      24.132  49.247  39.017  1.00  0.00    -0.001 A 
HETATM   33  C   UNL     1      23.522  50.324  38.376  1.00  0.00     0.126 A 
HETATM   34  N   UNL     1      22.246  50.698  38.583  1.00  0.00    -0.272 NA
HETATM   35  C   UNL     1      21.521  49.986  39.472  1.00  0.00     0.116 A 
HETATM   36  C   UNL     1      22.030  48.905  40.167  1.00  0.00     0.020 A 
HETATM   37  C   UNL     1      23.353  48.532  39.938  1.00  0.00     0.012 A 
ENDBRANCH  24  32
ENDBRANCH  21  24
ENDBRANCH   1  20
TORSDOF 7
ENDMDL
MODEL 8
REMARK VINA RESULT:      -7.8      2.163      2.523
REMARK  7 active torsions:
REMARK  status: ('A' for Active; 'I' for Inactive)
REMARK    1  A    between atoms: C_6  and  C_7 
REMARK    2  A    between atoms: N_13  and  C_15 
REMARK    3  A    between atoms: C_15  and  C_16 
REMARK    4  A    between atoms: C_16  and  N_17 
REMARK       I    between atoms: N_17  and  C_18 
REMARK    5  A    between atoms: C_18  and  C_19 
REMARK    6  A    between atoms: C_19  and  N_20 
REMARK    7  A    between atoms: C_19  and  C_27 
ROOT
HETATM    1  C   UNL     1      21.954  44.727  48.752  1.00  0.00     0.150 C 
ENDROOT
BRANCH   1   2
HETATM    2  C   UNL     1      20.936  45.537  47.918  1.00  0.00     0.255 C 
BRANCH   2   3
HETATM    3  N   UNL     1      19.584  45.681  48.599  1.00  0.00    -0.063 N 
HETATM    4  C   UNL     1      18.340  45.306  47.814  1.00  0.00     0.272 C 
HETATM    5  C   UNL     1      17.975  46.191  46.595  1.00  0.00     0.188 C 
HETATM    6  O   UNL     1      17.680  47.562  46.918  1.00  0.00    -0.339 OA
HETATM    7  C   UNL     1      18.695  48.405  47.246  1.00  0.00     0.077 A 
HETATM    8  C   UNL     1      19.576  48.197  48.308  1.00  0.00     0.001 A 
HETATM    9  C   UNL     1      18.758  49.588  46.502  1.00  0.00     0.037 A 
HETATM   10  C   UNL     1      20.585  49.150  48.547  1.00  0.00     0.012 A 
HETATM   11  C   UNL     1      19.420  47.042  49.243  1.00  0.00     0.276 C 
HETATM   12  C   UNL     1      20.682  50.299  47.762  1.00  0.00     0.001 A 
HETATM   13  C   UNL     1      19.759  50.525  46.748  1.00  0.00     0.003 A 
HETATM   14  H   UNL     1      19.599  45.040  49.403  1.00  0.00     0.280 HD
BRANCH   5  15
HETATM   15  C   UNL     1      18.793  45.904  45.340  1.00  0.00    -0.020 A 
HETATM   16  C   UNL     1      19.068  44.610  44.914  1.00  0.00     0.059 A 
HETATM   17  S   UNL     1      20.023  44.543  43.500  1.00  0.00    -0.113 SA
HETATM   18  C   UNL     1      20.025  46.239  43.363  1.00  0.00     0.050 A 
HETATM   19  C   UNL     1      19.349  46.841  44.403  1.00  0.00     0.017 A 
ENDBRANCH   5  15
ENDBRANCH   2   3
ENDBRANCH   1   2
BRANCH   1  20
HETATM   20  N   UNL     1      22.744  45.486  49.729  1.00  0.00    -0.357 N 
HETATM   21  C   UNL     1      24.108  45.681  49.595  1.00  0.00     0.253 C 
HETATM   22  O   UNL     1      24.762  45.048  48.770  1.00  0.00    -0.271 OA
HETATM   23  H   UNL     1      22.216  46.158  50.284  1.00  0.00     0.162 HD
BRANCH  21  24
HETATM   24  C   UNL     1      24.763  46.741  50.547  1.00  0.00     0.314 C 
BRANCH  24  25
HETATM   25  N   UNL     1      25.690  46.149  51.631  1.00  0.00    -0.050 N 
HETATM   26  H   UNL     1      26.641  46.199  51.243  1.00  0.00     0.281 HD
HETATM   27  C   UNL     1      25.690  46.969  52.917  1.00  0.00     0.262 C 
HETATM   28  C   UNL     1      26.717  46.390  53.898  1.00  0.00     0.195 C 
HETATM   29  O   UNL     1      26.431  45.018  54.173  1.00  0.00    -0.388 OA
HETATM   30  C   UNL     1      26.502  44.210  52.992  1.00  0.00     0.195 C 
HETATM   31  C   UNL     1      25.464  44.668  51.959  1.00  0.00     0.262 C 
ENDBRANCH  24  25
BRANCH  24  32
HETATM   32  C   UNL     1      25.429  47.863  49.785  1.00  0.00    -0.001 A 
HETATM   33  C   UNL     1      24.698  48.794  49.049  1.00  0.00     0.126 A 
HETATM   34  N   UNL     1      25.252  49.786  48.329  1.00  0.00    -0.272 NA
HETATM   35  C   UNL     1      26.599  49.875  48.318  1.00  0.00     0.116 A 
HETATM   36  C   UNL     1      27.419  49.000  49.006  1.00  0.00     0.020 A 
HETATM   37  C   UNL     1      26.826  47.980  49.747  1.00  0.00     0.012 A 
ENDBRANCH  24  32
ENDBRANCH  21  24
ENDBRANCH   1  20
TORSDOF 7
ENDMDL
MODEL 9
REMARK VINA RESULT:      -7.7     11.413     14.930
REMARK  7 active torsions:
REMARK  status: ('A' for Active; 'I' for Inactive)
REMARK    1  A    between atoms: C_6  and  C_7 
REMARK    2  A    between atoms: N_13  and  C_15 
REMARK    3  A    between atoms: C_15  and  C_16 
REMARK    4  A    between atoms: C_16  and  N_17 
REMARK       I    between atoms: N_17  and  C_18 
REMARK    5  A    between atoms: C_18  and  C_19 
REMARK    6  A    between atoms: C_19  and  N_20 
REMARK    7  A    between atoms: C_19  and  C_27 
ROOT
HETATM    1  C   UNL     1      33.905  49.012  41.210  1.00  0.00     0.150 C 
ENDROOT
BRANCH   1   2
HETATM    2  C   UNL     1      32.441  49.502  41.127  1.00  0.00     0.255 C 
BRANCH   2   3
HETATM    3  N   UNL     1      31.775  49.632  42.487  1.00  0.00    -0.063 N 
HETATM    4  C   UNL     1      30.664  48.657  42.840  1.00  0.00     0.272 C 
HETATM    5  C   UNL     1      29.347  48.758  42.030  1.00  0.00     0.188 C 
HETATM    6  O   UNL     1      28.653  50.012  42.172  1.00  0.00    -0.339 OA
HETATM    7  C   UNL     1      29.139  51.119  41.548  1.00  0.00     0.077 A 
HETATM    8  C   UNL     1      30.416  51.641  41.759  1.00  0.00     0.001 A 
HETATM    9  C   UNL     1      28.229  51.795  40.729  1.00  0.00     0.037 A 
HETATM   10  C   UNL     1      30.798  52.798  41.054  1.00  0.00     0.012 A 
HETATM   11  C   UNL     1      31.346  51.056  42.772  1.00  0.00     0.276 C 
HETATM   12  C   UNL     1      29.907  53.434  40.189  1.00  0.00     0.001 A 
HETATM   13  C   UNL     1      28.617  52.940  40.037  1.00  0.00     0.003 A 
HETATM   14  H   UNL     1      32.511  49.463  43.184  1.00  0.00     0.280 HD
BRANCH   5  15
HETATM   15  C   UNL     1      29.404  48.115  40.649  1.00  0.00    -0.020 A 
HETATM   16  C   UNL     1      28.348  48.197  39.749  1.00  0.00     0.059 A 
HETATM   17  S   UNL     1      28.636  47.377  38.279  1.00  0.00    -0.113 SA
HETATM   18  C   UNL     1      30.214  46.963  38.764  1.00  0.00     0.050 A 
HETATM   19  C   UNL     1      30.494  47.404  40.039  1.00  0.00     0.017 A 
ENDBRANCH   5  15
ENDBRANCH   2   3
ENDBRANCH   1   2
BRANCH   1  20
HETATM   20  N   UNL     1      34.943  50.030  41.005  1.00  0.00    -0.357 N 
HETATM   21  C   UNL     1      35.246  50.989  41.956  1.00  0.00     0.253 C 
HETATM   22  O   UNL     1      34.516  51.172  42.927  1.00  0.00    -0.271 OA
HETATM   23  H   UNL     1      35.661  49.783  40.326  1.00  0.00     0.162 HD
BRANCH  21  24
HETATM   24  C   UNL     1      36.554  51.819  41.723  1.00  0.00     0.314 C 
BRANCH  24  25
HETATM   25  N   UNL     1      36.396  53.017  40.761  1.00  0.00    -0.050 N 
HETATM   26  H   UNL     1      36.311  53.847  41.361  1.00  0.00     0.281 HD
HETATM   27  C   UNL     1      37.622  53.229  39.878  1.00  0.00     0.262 C 
HETATM   28  C   UNL     1      37.440  54.499  39.039  1.00  0.00     0.195 C 
HETATM   29  O   UNL     1      36.255  54.411  38.246  1.00  0.00    -0.388 OA
HETATM   30  C   UNL     1      35.078  54.291  39.054  1.00  0.00     0.195 C 
HETATM   31  C   UNL     1      35.129  53.009  39.897  1.00  0.00     0.262 C 
ENDBRANCH  24  25
BRANCH  24  32
HETATM   32  C   UNL     1      37.217  52.221  43.021  1.00  0.00    -0.001 A 
HETATM   33  C   UNL     1      37.974  51.325  43.773  1.00  0.00     0.126 A 
HETATM   34  N   UNL     1      38.552  51.630  44.949  1.00  0.00    -0.272 NA
HETATM   35  C   UNL     1      38.378  52.881  45.426  1.00  0.00     0.116 A 
HETATM   36  C   UNL     1      37.641  53.845  44.765  1.00  0.00     0.020 A 
HETATM   37  C   UNL     1      37.051  53.510  43.547  1.00  0.00     0.012 A 
ENDBRANCH  24  32
ENDBRANCH  21  24
ENDBRANCH   1  20
TORSDOF 7
ENDMDL
MODEL 10
REMARK VINA RESULT:      -7.5     10.741     13.402
REMARK  7 active torsions:
REMARK  status: ('A' for Active; 'I' for Inactive)
REMARK    1  A    between atoms: C_6  and  C_7 
REMARK    2  A    between atoms: N_13  and  C_15 
REMARK    3  A    between atoms: C_15  and  C_16 
REMARK    4  A    between atoms: C_16  and  N_17 
REMARK       I    between atoms: N_17  and  C_18 
REMARK    5  A    between atoms: C_18  and  C_19 
REMARK    6  A    between atoms: C_19  and  N_20 
REMARK    7  A    between atoms: C_19  and  C_27 
ROOT
HETATM    1  C   UNL     1      31.255  47.253  40.061  1.00  0.00     0.150 C 
ENDROOT
BRANCH   1   2
HETATM    2  C   UNL     1      31.254  48.791  40.211  1.00  0.00     0.255 C 
BRANCH   2   3
HETATM    3  N   UNL     1      31.218  49.523  38.879  1.00  0.00    -0.063 N 
HETATM    4  C   UNL     1      32.266  50.590  38.615  1.00  0.00     0.272 C 
HETATM    5  C   UNL     1      32.204  51.875  39.481  1.00  0.00     0.188 C 
HETATM    6  O   UNL     1      30.998  52.644  39.323  1.00  0.00    -0.339 OA
HETATM    7  C   UNL     1      29.841  52.196  39.880  1.00  0.00     0.077 A 
HETATM    8  C   UNL     1      29.258  50.961  39.590  1.00  0.00     0.001 A 
HETATM    9  C   UNL     1      29.183  53.106  40.713  1.00  0.00     0.037 A 
HETATM   10  C   UNL     1      28.054  50.615  40.231  1.00  0.00     0.012 A 
HETATM   11  C   UNL     1      29.832  50.045  38.559  1.00  0.00     0.276 C 
HETATM   12  C   UNL     1      27.433  51.502  41.112  1.00  0.00     0.001 A 
HETATM   13  C   UNL     1      27.991  52.754  41.342  1.00  0.00     0.003 A 
HETATM   14  H   UNL     1      31.374  48.809  38.156  1.00  0.00     0.280 HD
BRANCH   5  15
HETATM   15  C   UNL     1      32.785  51.720  40.882  1.00  0.00    -0.020 A 
HETATM   16  C   UNL     1      34.133  51.464  41.101  1.00  0.00     0.059 A 
HETATM   17  S   UNL     1      34.541  51.305  42.752  1.00  0.00    -0.113 SA
HETATM   18  C   UNL     1      32.946  51.662  43.229  1.00  0.00     0.050 A 
HETATM   19  C   UNL     1      32.114  51.852  42.146  1.00  0.00     0.017 A 
ENDBRANCH   5  15
ENDBRANCH   2   3
ENDBRANCH   1   2
BRANCH   1  20
HETATM   20  N   UNL     1      30.044  46.657  39.483  1.00  0.00    -0.357 N 
HETATM   21  C   UNL     1      28.795  46.793  40.064  1.00  0.00     0.253 C 
HETATM   22  O   UNL     1      28.671  47.235  41.204  1.00  0.00    -0.271 OA
HETATM   23  H   UNL     1      30.090  46.469  38.483  1.00  0.00     0.162 HD
BRANCH  21  24
HETATM   24  C   UNL     1      27.566  46.354  39.198  1.00  0.00     0.314 C 
BRANCH  24  25
HETATM   25  N   UNL     1      26.795  45.131  39.742  1.00  0.00    -0.050 N 
HETATM   26  H   UNL     1      26.138  45.504  40.439  1.00  0.00     0.281 HD
HETATM   27  C   UNL     1      25.962  44.436  38.671  1.00  0.00     0.262 C 
HETATM   28  C   UNL     1      25.138  43.310  39.308  1.00  0.00     0.195 C 
HETATM   29  O   UNL     1      25.992  42.376  39.971  1.00  0.00    -0.388 OA
HETATM   30  C   UNL     1      26.730  42.988  41.036  1.00  0.00     0.195 C 
HETATM   31  C   UNL     1      27.642  44.098  40.495  1.00  0.00     0.262 C 
ENDBRANCH  24  25
BRANCH  24  32
HETATM   32  C   UNL     1      26.643  47.510  38.884  1.00  0.00    -0.001 A 
HETATM   33  C   UNL     1      25.603  47.878  39.737  1.00  0.00     0.126 A 
HETATM   34  N   UNL     1      24.738  48.876  39.481  1.00  0.00    -0.272 NA
HETATM   35  C   UNL     1      24.889  49.554  38.323  1.00  0.00     0.116 A 
HETATM   36  C   UNL     1      25.881  49.267  37.403  1.00  0.00     0.020 A 
HETATM   37  C   UNL     1      26.768  48.229  37.688  1.00  0.00     0.012 A 
ENDBRANCH  24  32
ENDBRANCH  21  24
ENDBRANCH   1  20
TORSDOF 7
ENDMDL
