MODEL 1
REMARK VINA RESULT:      -9.6      0.000      0.000
REMARK  5 active torsions:
REMARK  status: ('A' for Active; 'I' for Inactive)
REMARK    1  A    between atoms: O_2  and  C_3 
REMARK    2  A    between atoms: C_3  and  C_4 
REMARK    3  A    between atoms: C_6  and  C_7 
REMARK       I    between atoms: C_7  and  N_8 
REMARK    4  A    between atoms: N_8  and  C_9 
REMARK    5  A    between atoms: C_10  and  O_11 
ROOT
HETATM    1  C   UNL     1      27.241  44.897  52.781  1.00  0.00     0.071 A 
HETATM    2  C   UNL     1      28.097  43.804  52.539  1.00  0.00     0.096 A 
HETATM    3  C   UNL     1      29.084  43.410  53.456  1.00  0.00     0.054 A 
HETATM    4  C   UNL     1      29.243  44.174  54.626  1.00  0.00     0.014 A 
HETATM    5  C   UNL     1      28.392  45.254  54.833  1.00  0.00     0.089 A 
HETATM    6  O   UNL     1      28.688  45.877  56.006  1.00  0.00    -0.309 OA
HETATM    7  C   UNL     1      29.737  45.210  56.559  1.00  0.00     0.087 A 
HETATM    8  C   UNL     1      30.119  44.144  55.751  1.00  0.00     0.011 A 
HETATM    9  C   UNL     1      30.356  45.541  57.762  1.00  0.00     0.038 A 
HETATM   10  C   UNL     1      31.426  44.734  58.158  1.00  0.00     0.003 A 
HETATM   11  C   UNL     1      31.841  43.652  57.377  1.00  0.00     0.001 A 
HETATM   12  C   UNL     1      31.197  43.341  56.171  1.00  0.00     0.015 A 
HETATM   13  C   UNL     1      27.380  45.644  53.953  1.00  0.00     0.070 A 
ENDROOT
BRANCH   1  14
HETATM   14  N   UNL     1      26.294  45.192  51.773  1.00  0.00    -0.320 N 
HETATM   15  C   UNL     1      25.013  44.695  51.652  1.00  0.00     0.256 C 
HETATM   16  O   UNL     1      24.477  43.875  52.386  1.00  0.00    -0.267 OA
HETATM   17  H   UNL     1      26.588  45.932  51.145  1.00  0.00     0.169 HD
BRANCH  15  18
HETATM   18  C   UNL     1      24.207  45.298  50.553  1.00  0.00     0.033 A 
HETATM   19  C   UNL     1      24.406  46.656  50.268  1.00  0.00     0.026 A 
HETATM   20  C   UNL     1      23.705  47.281  49.229  1.00  0.00    -0.034 A 
HETATM   21  C   UNL     1      22.790  46.526  48.482  1.00  0.00     0.009 A 
HETATM   22  C   UNL     1      22.574  45.177  48.774  1.00  0.00     0.002 A 
HETATM   23  C   UNL     1      23.278  44.561  49.810  1.00  0.00     0.017 A 
BRANCH  20  24
HETATM   24  C   UNL     1      23.942  48.736  48.916  1.00  0.00     0.205 C 
BRANCH  24  25
HETATM   25  O   UNL     1      25.255  49.094  49.336  1.00  0.00    -0.391 OA
HETATM   26  C   UNL     1      25.953  49.796  48.317  1.00  0.00     0.201 C 
ENDBRANCH  24  25
ENDBRANCH  20  24
ENDBRANCH  15  18
ENDBRANCH   1  14
BRANCH   2  27
HETATM   27  O   UNL     1      27.913  43.088  51.375  1.00  0.00    -0.354 OA
HETATM   28  C   UNL     1      27.616  41.720  51.661  1.00  0.00     0.210 C 
ENDBRANCH   2  27
TORSDOF 5
ENDMDL
MODEL 2
REMARK VINA RESULT:      -9.3      1.321      1.833
REMARK  5 active torsions:
REMARK  status: ('A' for Active; 'I' for Inactive)
REMARK    1  A    between atoms: O_2  and  C_3 
REMARK    2  A    between atoms: C_3  and  C_4 
REMARK    3  A    between atoms: C_6  and  C_7 
REMARK       I    between atoms: C_7  and  N_8 
REMARK    4  A    between atoms: N_8  and  C_9 
REMARK    5  A    between atoms: C_10  and  O_11 
ROOT
HETATM    1  C   UNL     1      26.570  45.469  52.665  1.00  0.00     0.071 A 
HETATM    2  C   UNL     1      27.369  44.373  52.285  1.00  0.00     0.096 A 
HETATM    3  C   UNL     1      28.400  43.881  53.100  1.00  0.00     0.054 A 
HETATM    4  C   UNL     1      28.662  44.548  54.311  1.00  0.00     0.014 A 
HETATM    5  C   UNL     1      27.864  45.634  54.655  1.00  0.00     0.089 A 
HETATM    6  O   UNL     1      28.258  46.156  55.848  1.00  0.00    -0.309 OA
HETATM    7  C   UNL     1      29.317  45.418  56.277  1.00  0.00     0.087 A 
HETATM    8  C   UNL     1      29.607  44.406  55.369  1.00  0.00     0.011 A 
HETATM    9  C   UNL     1      30.024  45.637  57.457  1.00  0.00     0.038 A 
HETATM   10  C   UNL     1      31.089  44.771  57.718  1.00  0.00     0.003 A 
HETATM   11  C   UNL     1      31.414  43.739  56.833  1.00  0.00     0.001 A 
HETATM   12  C   UNL     1      30.682  43.541  55.653  1.00  0.00     0.015 A 
HETATM   13  C   UNL     1      26.811  46.120  53.877  1.00  0.00     0.070 A 
ENDROOT
BRANCH   1  14
HETATM   14  N   UNL     1      25.569  45.869  51.748  1.00  0.00    -0.320 N 
HETATM   15  C   UNL     1      25.560  46.995  50.952  1.00  0.00     0.256 C 
HETATM   16  O   UNL     1      26.412  47.874  50.922  1.00  0.00    -0.267 OA
HETATM   17  H   UNL     1      24.843  45.175  51.615  1.00  0.00     0.169 HD
BRANCH  15  18
HETATM   18  C   UNL     1      24.426  47.074  49.989  1.00  0.00     0.033 A 
HETATM   19  C   UNL     1      24.056  48.343  49.521  1.00  0.00     0.026 A 
HETATM   20  C   UNL     1      23.019  48.490  48.591  1.00  0.00    -0.034 A 
HETATM   21  C   UNL     1      22.348  47.344  48.142  1.00  0.00     0.009 A 
HETATM   22  C   UNL     1      22.699  46.079  48.619  1.00  0.00     0.002 A 
HETATM   23  C   UNL     1      23.736  45.941  49.544  1.00  0.00     0.017 A 
BRANCH  20  24
HETATM   24  C   UNL     1      22.642  49.856  48.077  1.00  0.00     0.205 C 
BRANCH  24  25
HETATM   25  O   UNL     1      22.523  50.750  49.179  1.00  0.00    -0.391 OA
HETATM   26  C   UNL     1      21.198  50.771  49.691  1.00  0.00     0.201 C 
ENDBRANCH  24  25
ENDBRANCH  20  24
ENDBRANCH  15  18
ENDBRANCH   1  14
BRANCH   2  27
HETATM   27  O   UNL     1      27.085  43.754  51.086  1.00  0.00    -0.354 OA
HETATM   28  C   UNL     1      26.897  42.350  51.270  1.00  0.00     0.210 C 
ENDBRANCH   2  27
TORSDOF 5
ENDMDL
MODEL 3
REMARK VINA RESULT:      -9.3      1.205      2.371
REMARK  5 active torsions:
REMARK  status: ('A' for Active; 'I' for Inactive)
REMARK    1  A    between atoms: O_2  and  C_3 
REMARK    2  A    between atoms: C_3  and  C_4 
REMARK    3  A    between atoms: C_6  and  C_7 
REMARK       I    between atoms: C_7  and  N_8 
REMARK    4  A    between atoms: N_8  and  C_9 
REMARK    5  A    between atoms: C_10  and  O_11 
ROOT
HETATM    1  C   UNL     1      27.118  45.507  53.080  1.00  0.00     0.071 A 
HETATM    2  C   UNL     1      27.028  46.487  54.088  1.00  0.00     0.096 A 
HETATM    3  C   UNL     1      27.879  46.493  55.203  1.00  0.00     0.054 A 
HETATM    4  C   UNL     1      28.815  45.450  55.328  1.00  0.00     0.014 A 
HETATM    5  C   UNL     1      28.874  44.490  54.323  1.00  0.00     0.089 A 
HETATM    6  O   UNL     1      29.828  43.561  54.607  1.00  0.00    -0.309 OA
HETATM    7  C   UNL     1      30.383  43.909  55.799  1.00  0.00     0.087 A 
HETATM    8  C   UNL     1      29.799  45.073  56.289  1.00  0.00     0.011 A 
HETATM    9  C   UNL     1      31.392  43.205  56.452  1.00  0.00     0.038 A 
HETATM   10  C   UNL     1      31.824  43.722  57.676  1.00  0.00     0.003 A 
HETATM   11  C   UNL     1      31.266  44.890  58.203  1.00  0.00     0.001 A 
HETATM   12  C   UNL     1      30.253  45.579  57.521  1.00  0.00     0.015 A 
HETATM   13  C   UNL     1      28.062  44.483  53.187  1.00  0.00     0.070 A 
ENDROOT
BRANCH   1  14
HETATM   14  N   UNL     1      26.196  45.612  52.013  1.00  0.00    -0.320 N 
HETATM   15  C   UNL     1      25.051  44.869  51.815  1.00  0.00     0.256 C 
HETATM   16  O   UNL     1      24.645  43.954  52.520  1.00  0.00    -0.267 OA
HETATM   17  H   UNL     1      26.376  46.398  51.399  1.00  0.00     0.169 HD
BRANCH  15  18
HETATM   18  C   UNL     1      24.211  45.304  50.663  1.00  0.00     0.033 A 
HETATM   19  C   UNL     1      24.272  46.653  50.285  1.00  0.00     0.026 A 
HETATM   20  C   UNL     1      23.534  47.125  49.193  1.00  0.00    -0.034 A 
HETATM   21  C   UNL     1      22.721  46.226  48.488  1.00  0.00     0.009 A 
HETATM   22  C   UNL     1      22.642  44.886  48.872  1.00  0.00     0.002 A 
HETATM   23  C   UNL     1      23.384  44.422  49.960  1.00  0.00     0.017 A 
BRANCH  20  24
HETATM   24  C   UNL     1      23.622  48.572  48.781  1.00  0.00     0.205 C 
BRANCH  24  25
HETATM   25  O   UNL     1      24.777  49.156  49.376  1.00  0.00    -0.391 OA
HETATM   26  C   UNL     1      25.642  49.710  48.396  1.00  0.00     0.201 C 
ENDBRANCH  24  25
ENDBRANCH  20  24
ENDBRANCH  15  18
ENDBRANCH   1  14
BRANCH   2  27
HETATM   27  O   UNL     1      26.091  47.486  53.931  1.00  0.00    -0.354 OA
HETATM   28  C   UNL     1      26.067  48.344  55.074  1.00  0.00     0.210 C 
ENDBRANCH   2  27
TORSDOF 5
ENDMDL
MODEL 4
REMARK VINA RESULT:      -9.2      1.240      2.691
REMARK  5 active torsions:
REMARK  status: ('A' for Active; 'I' for Inactive)
REMARK    1  A    between atoms: O_2  and  C_3 
REMARK    2  A    between atoms: C_3  and  C_4 
REMARK    3  A    between atoms: C_6  and  C_7 
REMARK       I    between atoms: C_7  and  N_8 
REMARK    4  A    between atoms: N_8  and  C_9 
REMARK    5  A    between atoms: C_10  and  O_11 
ROOT
HETATM    1  C   UNL     1      26.571  45.384  52.773  1.00  0.00     0.071 A 
HETATM    2  C   UNL     1      27.424  44.326  52.401  1.00  0.00     0.096 A 
HETATM    3  C   UNL     1      28.470  43.885  53.226  1.00  0.00     0.054 A 
HETATM    4  C   UNL     1      28.690  44.565  54.438  1.00  0.00     0.014 A 
HETATM    5  C   UNL     1      27.838  45.611  54.773  1.00  0.00     0.089 A 
HETATM    6  O   UNL     1      28.197  46.153  55.970  1.00  0.00    -0.309 OA
HETATM    7  C   UNL     1      29.286  45.466  56.408  1.00  0.00     0.087 A 
HETATM    8  C   UNL     1      29.632  44.468  55.503  1.00  0.00     0.011 A 
HETATM    9  C   UNL     1      29.972  45.720  57.594  1.00  0.00     0.038 A 
HETATM   10  C   UNL     1      31.075  44.906  57.865  1.00  0.00     0.003 A 
HETATM   11  C   UNL     1      31.456  43.890  56.983  1.00  0.00     0.001 A 
HETATM   12  C   UNL     1      30.744  43.656  55.798  1.00  0.00     0.015 A 
HETATM   13  C   UNL     1      26.770  46.046  53.986  1.00  0.00     0.070 A 
ENDROOT
BRANCH   1  14
HETATM   14  N   UNL     1      25.560  45.735  51.847  1.00  0.00    -0.320 N 
HETATM   15  C   UNL     1      25.498  46.864  51.059  1.00  0.00     0.256 C 
HETATM   16  O   UNL     1      26.300  47.789  51.045  1.00  0.00    -0.267 OA
HETATM   17  H   UNL     1      24.874  45.003  51.701  1.00  0.00     0.169 HD
BRANCH  15  18
HETATM   18  C   UNL     1      24.371  46.888  50.083  1.00  0.00     0.033 A 
HETATM   19  C   UNL     1      23.871  45.657  49.635  1.00  0.00     0.026 A 
HETATM   20  C   UNL     1      22.793  45.603  48.742  1.00  0.00    -0.034 A 
HETATM   21  C   UNL     1      22.227  46.805  48.295  1.00  0.00     0.009 A 
HETATM   22  C   UNL     1      22.734  48.034  48.723  1.00  0.00     0.002 A 
HETATM   23  C   UNL     1      23.806  48.080  49.615  1.00  0.00     0.017 A 
BRANCH  20  24
HETATM   24  C   UNL     1      22.249  44.276  48.283  1.00  0.00     0.205 C 
BRANCH  24  25
HETATM   25  O   UNL     1      22.326  43.344  49.358  1.00  0.00    -0.391 OA
HETATM   26  C   UNL     1      23.018  42.164  48.974  1.00  0.00     0.201 C 
ENDBRANCH  24  25
ENDBRANCH  20  24
ENDBRANCH  15  18
ENDBRANCH   1  14
BRANCH   2  27
HETATM   27  O   UNL     1      27.179  43.694  51.200  1.00  0.00    -0.354 OA
HETATM   28  C   UNL     1      27.394  42.286  51.315  1.00  0.00     0.210 C 
ENDBRANCH   2  27
TORSDOF 5
ENDMDL
MODEL 5
REMARK VINA RESULT:      -8.7      2.327      3.820
REMARK  5 active torsions:
REMARK  status: ('A' for Active; 'I' for Inactive)
REMARK    1  A    between atoms: O_2  and  C_3 
REMARK    2  A    between atoms: C_3  and  C_4 
REMARK    3  A    between atoms: C_6  and  C_7 
REMARK       I    between atoms: C_7  and  N_8 
REMARK    4  A    between atoms: N_8  and  C_9 
REMARK    5  A    between atoms: C_10  and  O_11 
ROOT
HETATM    1  C   UNL     1      25.563  46.438  51.371  1.00  0.00     0.071 A 
HETATM    2  C   UNL     1      25.974  45.227  50.780  1.00  0.00     0.096 A 
HETATM    3  C   UNL     1      26.897  44.369  51.397  1.00  0.00     0.054 A 
HETATM    4  C   UNL     1      27.459  44.772  52.622  1.00  0.00     0.014 A 
HETATM    5  C   UNL     1      27.043  45.978  53.176  1.00  0.00     0.089 A 
HETATM    6  O   UNL     1      27.688  46.209  54.353  1.00  0.00    -0.309 OA
HETATM    7  C   UNL     1      28.529  45.161  54.560  1.00  0.00     0.087 A 
HETATM    8  C   UNL     1      28.426  44.239  53.524  1.00  0.00     0.011 A 
HETATM    9  C   UNL     1      29.384  45.021  55.651  1.00  0.00     0.038 A 
HETATM   10  C   UNL     1      30.178  43.871  55.679  1.00  0.00     0.003 A 
HETATM   11  C   UNL     1      30.104  42.918  54.660  1.00  0.00     0.001 A 
HETATM   12  C   UNL     1      29.231  43.085  53.575  1.00  0.00     0.015 A 
HETATM   13  C   UNL     1      26.100  46.831  52.599  1.00  0.00     0.070 A 
ENDROOT
BRANCH   1  14
HETATM   14  N   UNL     1      24.632  47.213  50.641  1.00  0.00    -0.320 N 
HETATM   15  C   UNL     1      24.899  48.147  49.662  1.00  0.00     0.256 C 
HETATM   16  O   UNL     1      26.006  48.497  49.271  1.00  0.00    -0.267 OA
HETATM   17  H   UNL     1      23.667  46.953  50.813  1.00  0.00     0.169 HD
BRANCH  15  18
HETATM   18  C   UNL     1      23.697  48.705  48.980  1.00  0.00     0.033 A 
HETATM   19  C   UNL     1      22.488  48.008  49.118  1.00  0.00     0.026 A 
HETATM   20  C   UNL     1      21.311  48.490  48.531  1.00  0.00    -0.034 A 
HETATM   21  C   UNL     1      21.365  49.681  47.792  1.00  0.00     0.009 A 
HETATM   22  C   UNL     1      22.570  50.369  47.636  1.00  0.00     0.002 A 
HETATM   23  C   UNL     1      23.738  49.883  48.227  1.00  0.00     0.017 A 
BRANCH  20  24
HETATM   24  C   UNL     1      20.012  47.746  48.702  1.00  0.00     0.205 C 
BRANCH  24  25
HETATM   25  O   UNL     1      19.011  48.655  49.150  1.00  0.00    -0.391 OA
HETATM   26  C   UNL     1      18.800  48.547  50.550  1.00  0.00     0.201 C 
ENDBRANCH  24  25
ENDBRANCH  20  24
ENDBRANCH  15  18
ENDBRANCH   1  14
BRANCH   2  27
HETATM   27  O   UNL     1      25.405  44.875  49.574  1.00  0.00    -0.354 OA
HETATM   28  C   UNL     1      25.540  43.471  49.339  1.00  0.00     0.210 C 
ENDBRANCH   2  27
TORSDOF 5
ENDMDL
MODEL 6
REMARK VINA RESULT:      -8.5      1.687      8.955
REMARK  5 active torsions:
REMARK  status: ('A' for Active; 'I' for Inactive)
REMARK    1  A    between atoms: O_2  and  C_3 
REMARK    2  A    between atoms: C_3  and  C_4 
REMARK    3  A    between atoms: C_6  and  C_7 
REMARK       I    between atoms: C_7  and  N_8 
REMARK    4  A    between atoms: N_8  and  C_9 
REMARK    5  A    between atoms: C_10  and  O_11 
ROOT
HETATM    1  C   UNL     1      25.506  46.107  50.700  1.00  0.00     0.071 A 
HETATM    2  C   UNL     1      24.558  45.242  50.118  1.00  0.00     0.096 A 
HETATM    3  C   UNL     1      23.462  45.720  49.383  1.00  0.00     0.054 A 
HETATM    4  C   UNL     1      23.294  47.113  49.276  1.00  0.00     0.014 A 
HETATM    5  C   UNL     1      24.239  47.942  49.869  1.00  0.00     0.089 A 
HETATM    6  O   UNL     1      23.919  49.250  49.669  1.00  0.00    -0.309 OA
HETATM    7  C   UNL     1      22.762  49.273  48.955  1.00  0.00     0.087 A 
HETATM    8  C   UNL     1      22.332  47.979  48.678  1.00  0.00     0.011 A 
HETATM    9  C   UNL     1      22.088  50.424  48.555  1.00  0.00     0.038 A 
HETATM   10  C   UNL     1      20.906  50.238  47.831  1.00  0.00     0.003 A 
HETATM   11  C   UNL     1      20.440  48.955  47.530  1.00  0.00     0.001 A 
HETATM   12  C   UNL     1      21.142  47.814  47.945  1.00  0.00     0.015 A 
HETATM   13  C   UNL     1      25.356  47.490  50.575  1.00  0.00     0.070 A 
ENDROOT
BRANCH   1  14
HETATM   14  N   UNL     1      26.559  45.496  51.421  1.00  0.00    -0.320 N 
HETATM   15  C   UNL     1      26.551  45.090  52.739  1.00  0.00     0.256 C 
HETATM   16  O   UNL     1      25.630  45.219  53.535  1.00  0.00    -0.267 OA
HETATM   17  H   UNL     1      27.357  45.255  50.844  1.00  0.00     0.169 HD
BRANCH  15  18
HETATM   18  C   UNL     1      27.771  44.356  53.177  1.00  0.00     0.033 A 
HETATM   19  C   UNL     1      28.449  44.835  54.307  1.00  0.00     0.026 A 
HETATM   20  C   UNL     1      29.585  44.177  54.795  1.00  0.00    -0.034 A 
HETATM   21  C   UNL     1      30.041  43.032  54.125  1.00  0.00     0.009 A 
HETATM   22  C   UNL     1      29.381  42.562  52.988  1.00  0.00     0.002 A 
HETATM   23  C   UNL     1      28.247  43.222  52.511  1.00  0.00     0.017 A 
BRANCH  20  24
HETATM   24  C   UNL     1      30.295  44.687  56.022  1.00  0.00     0.205 C 
BRANCH  24  25
HETATM   25  O   UNL     1      31.533  43.997  56.164  1.00  0.00    -0.391 OA
HETATM   26  C   UNL     1      31.757  43.602  57.510  1.00  0.00     0.201 C 
ENDBRANCH  24  25
ENDBRANCH  20  24
ENDBRANCH  15  18
ENDBRANCH   1  14
BRANCH   2  27
HETATM   27  O   UNL     1      24.756  43.885  50.256  1.00  0.00    -0.354 OA
HETATM   28  C   UNL     1      23.686  43.152  49.655  1.00  0.00     0.210 C 
ENDBRANCH   2  27
TORSDOF 5
ENDMDL
MODEL 7
REMARK VINA RESULT:      -8.5      2.811      4.393
REMARK  5 active torsions:
REMARK  status: ('A' for Active; 'I' for Inactive)
REMARK    1  A    between atoms: O_2  and  C_3 
REMARK    2  A    between atoms: C_3  and  C_4 
REMARK    3  A    between atoms: C_6  and  C_7 
REMARK       I    between atoms: C_7  and  N_8 
REMARK    4  A    between atoms: N_8  and  C_9 
REMARK    5  A    between atoms: C_10  and  O_11 
ROOT
HETATM    1  C   UNL     1      28.349  43.263  52.319  1.00  0.00     0.071 A 
HETATM    2  C   UNL     1      27.624  44.357  52.830  1.00  0.00     0.096 A 
HETATM    3  C   UNL     1      27.982  44.998  54.026  1.00  0.00     0.054 A 
HETATM    4  C   UNL     1      29.074  44.486  54.751  1.00  0.00     0.014 A 
HETATM    5  C   UNL     1      29.764  43.398  54.227  1.00  0.00     0.089 A 
HETATM    6  O   UNL     1      30.782  43.037  55.055  1.00  0.00    -0.309 OA
HETATM    7  C   UNL     1      30.749  43.880  56.121  1.00  0.00     0.087 A 
HETATM    8  C   UNL     1      29.716  44.802  55.984  1.00  0.00     0.011 A 
HETATM    9  C   UNL     1      31.619  43.836  57.208  1.00  0.00     0.038 A 
HETATM   10  C   UNL     1      31.417  44.789  58.210  1.00  0.00     0.003 A 
HETATM   11  C   UNL     1      30.392  45.735  58.111  1.00  0.00     0.001 A 
HETATM   12  C   UNL     1      29.533  45.756  57.003  1.00  0.00     0.015 A 
HETATM   13  C   UNL     1      29.449  42.766  53.022  1.00  0.00     0.070 A 
ENDROOT
BRANCH   1  14
HETATM   14  N   UNL     1      27.879  42.704  51.107  1.00  0.00    -0.320 N 
HETATM   15  C   UNL     1      27.158  41.540  50.942  1.00  0.00     0.256 C 
HETATM   16  O   UNL     1      26.822  40.760  51.824  1.00  0.00    -0.267 OA
HETATM   17  H   UNL     1      28.020  43.305  50.303  1.00  0.00     0.169 HD
BRANCH  15  18
HETATM   18  C   UNL     1      26.691  41.282  49.551  1.00  0.00     0.033 A 
HETATM   19  C   UNL     1      25.310  41.168  49.338  1.00  0.00     0.026 A 
HETATM   20  C   UNL     1      24.798  40.957  48.051  1.00  0.00    -0.034 A 
HETATM   21  C   UNL     1      25.694  40.851  46.978  1.00  0.00     0.009 A 
HETATM   22  C   UNL     1      27.072  40.945  47.187  1.00  0.00     0.002 A 
HETATM   23  C   UNL     1      27.573  41.158  48.472  1.00  0.00     0.017 A 
BRANCH  20  24
HETATM   24  C   UNL     1      23.311  40.857  47.828  1.00  0.00     0.205 C 
BRANCH  24  25
HETATM   25  O   UNL     1      22.657  41.864  48.594  1.00  0.00    -0.391 OA
HETATM   26  C   UNL     1      22.448  43.043  47.830  1.00  0.00     0.201 C 
ENDBRANCH  24  25
ENDBRANCH  20  24
ENDBRANCH  15  18
ENDBRANCH   1  14
BRANCH   2  27
HETATM   27  O   UNL     1      26.555  44.821  52.093  1.00  0.00    -0.354 OA
HETATM   28  C   UNL     1      25.336  44.687  52.827  1.00  0.00     0.210 C 
ENDBRANCH   2  27
TORSDOF 5
ENDMDL
MODEL 8
REMARK VINA RESULT:      -8.4      2.387      4.272
REMARK  5 active torsions:
REMARK  status: ('A' for Active; 'I' for Inactive)
REMARK    1  A    between atoms: O_2  and  C_3 
REMARK    2  A    between atoms: C_3  and  C_4 
REMARK    3  A    between atoms: C_6  and  C_7 
REMARK       I    between atoms: C_7  and  N_8 
REMARK    4  A    between atoms: N_8  and  C_9 
REMARK    5  A    between atoms: C_10  and  O_11 
ROOT
HETATM    1  C   UNL     1      27.194  44.310  52.757  1.00  0.00     0.071 A 
HETATM    2  C   UNL     1      26.911  45.447  53.540  1.00  0.00     0.096 A 
HETATM    3  C   UNL     1      27.677  45.789  54.665  1.00  0.00     0.054 A 
HETATM    4  C   UNL     1      28.728  44.931  55.036  1.00  0.00     0.014 A 
HETATM    5  C   UNL     1      28.978  43.811  54.251  1.00  0.00     0.089 A 
HETATM    6  O   UNL     1      30.021  43.098  54.756  1.00  0.00    -0.309 OA
HETATM    7  C   UNL     1      30.445  43.746  55.874  1.00  0.00     0.087 A 
HETATM    8  C   UNL     1      29.685  44.891  56.093  1.00  0.00     0.011 A 
HETATM    9  C   UNL     1      31.489  43.331  56.697  1.00  0.00     0.038 A 
HETATM   10  C   UNL     1      31.768  44.134  57.807  1.00  0.00     0.003 A 
HETATM   11  C   UNL     1      31.030  45.293  58.063  1.00  0.00     0.001 A 
HETATM   12  C   UNL     1      29.985  45.687  57.214  1.00  0.00     0.015 A 
HETATM   13  C   UNL     1      28.253  43.468  53.108  1.00  0.00     0.070 A 
ENDROOT
BRANCH   1  14
HETATM   14  N   UNL     1      26.341  44.074  51.654  1.00  0.00    -0.320 N 
HETATM   15  C   UNL     1      26.581  44.367  50.328  1.00  0.00     0.256 C 
HETATM   16  O   UNL     1      27.574  44.920  49.871  1.00  0.00    -0.267 OA
HETATM   17  H   UNL     1      25.514  43.538  51.890  1.00  0.00     0.169 HD
BRANCH  15  18
HETATM   18  C   UNL     1      25.542  43.877  49.378  1.00  0.00     0.033 A 
HETATM   19  C   UNL     1      25.595  42.529  48.994  1.00  0.00     0.026 A 
HETATM   20  C   UNL     1      24.634  41.992  48.129  1.00  0.00    -0.034 A 
HETATM   21  C   UNL     1      23.619  42.830  47.644  1.00  0.00     0.009 A 
HETATM   22  C   UNL     1      23.573  44.177  48.008  1.00  0.00     0.002 A 
HETATM   23  C   UNL     1      24.534  44.704  48.873  1.00  0.00     0.017 A 
BRANCH  20  24
HETATM   24  C   UNL     1      24.686  40.538  47.738  1.00  0.00     0.205 C 
BRANCH  24  25
HETATM   25  O   UNL     1      25.873  39.956  48.268  1.00  0.00    -0.391 OA
HETATM   26  C   UNL     1      26.201  38.746  47.601  1.00  0.00     0.201 C 
ENDBRANCH  24  25
ENDBRANCH  20  24
ENDBRANCH  15  18
ENDBRANCH   1  14
BRANCH   2  27
HETATM   27  O   UNL     1      25.866  46.255  53.146  1.00  0.00    -0.354 OA
HETATM   28  C   UNL     1      25.847  47.467  53.903  1.00  0.00     0.210 C 
ENDBRANCH   2  27
TORSDOF 5
ENDMDL
MODEL 9
REMARK VINA RESULT:      -8.4      2.265      3.312
REMARK  5 active torsions:
REMARK  status: ('A' for Active; 'I' for Inactive)
REMARK    1  A    between atoms: O_2  and  C_3 
REMARK    2  A    between atoms: C_3  and  C_4 
REMARK    3  A    between atoms: C_6  and  C_7 
REMARK       I    between atoms: C_7  and  N_8 
REMARK    4  A    between atoms: N_8  and  C_9 
REMARK    5  A    between atoms: C_10  and  O_11 
ROOT
HETATM    1  C   UNL     1      27.153  44.041  52.709  1.00  0.00     0.071 A 
HETATM    2  C   UNL     1      26.795  45.159  53.489  1.00  0.00     0.096 A 
HETATM    3  C   UNL     1      27.538  45.556  54.611  1.00  0.00     0.054 A 
HETATM    4  C   UNL     1      28.645  44.772  54.984  1.00  0.00     0.014 A 
HETATM    5  C   UNL     1      28.968  43.669  54.201  1.00  0.00     0.089 A 
HETATM    6  O   UNL     1      30.058  43.029  54.707  1.00  0.00    -0.309 OA
HETATM    7  C   UNL     1      30.438  43.708  55.822  1.00  0.00     0.087 A 
HETATM    8  C   UNL     1      29.603  44.799  56.039  1.00  0.00     0.011 A 
HETATM    9  C   UNL     1      31.510  43.367  56.645  1.00  0.00     0.038 A 
HETATM   10  C   UNL     1      31.735  44.190  57.752  1.00  0.00     0.003 A 
HETATM   11  C   UNL     1      30.922  45.298  58.005  1.00  0.00     0.001 A 
HETATM   12  C   UNL     1      29.851  45.618  57.157  1.00  0.00     0.015 A 
HETATM   13  C   UNL     1      28.266  43.274  53.061  1.00  0.00     0.070 A 
ENDROOT
BRANCH   1  14
HETATM   14  N   UNL     1      26.315  43.745  51.608  1.00  0.00    -0.320 N 
HETATM   15  C   UNL     1      26.507  44.095  50.288  1.00  0.00     0.256 C 
HETATM   16  O   UNL     1      27.430  44.761  49.837  1.00  0.00    -0.267 OA
HETATM   17  H   UNL     1      25.553  43.118  51.837  1.00  0.00     0.169 HD
BRANCH  15  18
HETATM   18  C   UNL     1      25.514  43.522  49.335  1.00  0.00     0.033 A 
HETATM   19  C   UNL     1      24.564  44.392  48.783  1.00  0.00     0.026 A 
HETATM   20  C   UNL     1      23.620  43.929  47.857  1.00  0.00    -0.034 A 
HETATM   21  C   UNL     1      23.636  42.574  47.498  1.00  0.00     0.009 A 
HETATM   22  C   UNL     1      24.569  41.699  48.060  1.00  0.00     0.002 A 
HETATM   23  C   UNL     1      25.508  42.169  48.980  1.00  0.00     0.017 A 
BRANCH  20  24
HETATM   24  C   UNL     1      22.616  44.876  47.253  1.00  0.00     0.205 C 
BRANCH  24  25
HETATM   25  O   UNL     1      22.007  45.634  48.293  1.00  0.00    -0.391 OA
HETATM   26  C   UNL     1      20.791  45.040  48.725  1.00  0.00     0.201 C 
ENDBRANCH  24  25
ENDBRANCH  20  24
ENDBRANCH  15  18
ENDBRANCH   1  14
BRANCH   2  27
HETATM   27  O   UNL     1      25.697  45.894  53.093  1.00  0.00    -0.354 OA
HETATM   28  C   UNL     1      26.094  47.173  52.597  1.00  0.00     0.210 C 
ENDBRANCH   2  27
TORSDOF 5
ENDMDL
MODEL 10
REMARK VINA RESULT:      -8.2      2.735      3.348
REMARK  5 active torsions:
REMARK  status: ('A' for Active; 'I' for Inactive)
REMARK    1  A    between atoms: O_2  and  C_3 
REMARK    2  A    between atoms: C_3  and  C_4 
REMARK    3  A    between atoms: C_6  and  C_7 
REMARK       I    between atoms: C_7  and  N_8 
REMARK    4  A    between atoms: N_8  and  C_9 
REMARK    5  A    between atoms: C_10  and  O_11 
ROOT
HETATM    1  C   UNL     1      26.658  42.939  52.044  1.00  0.00     0.071 A 
HETATM    2  C   UNL     1      27.536  41.866  52.298  1.00  0.00     0.096 A 
HETATM    3  C   UNL     1      28.543  41.939  53.273  1.00  0.00     0.054 A 
HETATM    4  C   UNL     1      28.699  43.148  53.975  1.00  0.00     0.014 A 
HETATM    5  C   UNL     1      27.825  44.193  53.696  1.00  0.00     0.089 A 
HETATM    6  O   UNL     1      28.121  45.279  54.461  1.00  0.00    -0.309 OA
HETATM    7  C   UNL     1      29.191  44.947  55.231  1.00  0.00     0.087 A 
HETATM    8  C   UNL     1      29.588  43.638  54.976  1.00  0.00     0.011 A 
HETATM    9  C   UNL     1      29.816  45.790  56.146  1.00  0.00     0.038 A 
HETATM   10  C   UNL     1      30.910  45.262  56.838  1.00  0.00     0.003 A 
HETATM   11  C   UNL     1      31.340  43.951  56.614  1.00  0.00     0.001 A 
HETATM   12  C   UNL     1      30.689  43.124  55.687  1.00  0.00     0.015 A 
HETATM   13  C   UNL     1      26.793  44.133  52.757  1.00  0.00     0.070 A 
ENDROOT
BRANCH   1  14
HETATM   14  N   UNL     1      25.692  42.738  51.031  1.00  0.00    -0.320 N 
HETATM   15  C   UNL     1      25.803  43.045  49.691  1.00  0.00     0.256 C 
HETATM   16  O   UNL     1      26.756  43.583  49.143  1.00  0.00    -0.267 OA
HETATM   17  H   UNL     1      24.881  42.216  51.343  1.00  0.00     0.169 HD
BRANCH  15  18
HETATM   18  C   UNL     1      24.662  42.590  48.846  1.00  0.00     0.033 A 
HETATM   19  C   UNL     1      23.774  43.566  48.371  1.00  0.00     0.026 A 
HETATM   20  C   UNL     1      22.698  43.215  47.546  1.00  0.00    -0.034 A 
HETATM   21  C   UNL     1      22.517  41.866  47.211  1.00  0.00     0.009 A 
HETATM   22  C   UNL     1      23.387  40.888  47.697  1.00  0.00     0.002 A 
HETATM   23  C   UNL     1      24.459  41.246  48.517  1.00  0.00     0.017 A 
BRANCH  20  24
HETATM   24  C   UNL     1      21.762  44.273  47.022  1.00  0.00     0.205 C 
BRANCH  24  25
HETATM   25  O   UNL     1      20.531  44.199  47.736  1.00  0.00    -0.391 OA
HETATM   26  C   UNL     1      20.406  45.266  48.666  1.00  0.00     0.201 C 
ENDBRANCH  24  25
ENDBRANCH  20  24
ENDBRANCH  15  18
ENDBRANCH   1  14
BRANCH   2  27
HETATM   27  O   UNL     1      27.355  40.703  51.580  1.00  0.00    -0.354 OA
HETATM   28  C   UNL     1      28.398  40.532  50.619  1.00  0.00     0.210 C 
ENDBRANCH   2  27
TORSDOF 5
ENDMDL
