MODEL 1
REMARK VINA RESULT:      -8.3      0.000      0.000
REMARK  3 active torsions:
REMARK  status: ('A' for Active; 'I' for Inactive)
REMARK    1  A    between atoms: C_4  and  C_5 
REMARK       I    between atoms: C_5  and  N_6 
REMARK    2  A    between atoms: C_16  and  C_17 
REMARK    3  A    between atoms: C_27  and  O_28 
ROOT
HETATM    1  C   UNL     1      27.525  49.085  39.520  1.00  0.00     0.275 C 
HETATM    2  N   UNL     1      28.296  50.028  40.215  1.00  0.00    -0.339 N 
HETATM    3  C   UNL     1      28.223  51.423  39.819  1.00  0.00     0.123 C 
HETATM    4  C   UNL     1      29.014  52.194  40.904  1.00  0.00     0.221 C 
HETATM    5  N   UNL     1      30.067  53.077  40.228  1.00  0.00    -0.064 N 
HETATM    6  H   UNL     1      30.597  53.589  40.945  1.00  0.00     0.280 HD
HETATM    7  C   UNL     1      31.057  52.350  39.329  1.00  0.00     0.236 C 
HETATM    8  C   UNL     1      30.285  51.453  38.369  1.00  0.00     0.034 C 
HETATM    9  C   UNL     1      28.785  51.778  38.424  1.00  0.00     0.014 C 
HETATM   10  C   UNL     1      28.620  53.304  38.228  1.00  0.00     0.034 C 
HETATM   11  C   UNL     1      29.328  54.086  39.346  1.00  0.00     0.236 C 
HETATM   12  C   UNL     1      29.465  51.151  41.966  1.00  0.00     0.070 C 
HETATM   13  C   UNL     1      28.558  49.946  41.650  1.00  0.00     0.138 C 
HETATM   14  O   UNL     1      26.823  49.427  38.564  1.00  0.00    -0.266 OA
ENDROOT
BRANCH   1  15
HETATM   15  C   UNL     1      27.518  47.641  39.922  1.00  0.00     0.157 A 
HETATM   16  N   UNL     1      28.515  46.854  39.434  1.00  0.00    -0.253 NA
HETATM   17  C   UNL     1      28.492  45.552  39.804  1.00  0.00     0.117 A 
HETATM   18  C   UNL     1      27.528  44.999  40.633  1.00  0.00     0.022 A 
HETATM   19  C   UNL     1      26.509  45.820  41.106  1.00  0.00     0.040 A 
HETATM   20  C   UNL     1      26.489  47.159  40.737  1.00  0.00     0.100 A 
BRANCH  20  21
HETATM   21  O   UNL     1      25.452  47.915  41.206  1.00  0.00    -0.358 OA
HETATM   22  H   UNL     1      24.615  47.562  40.831  1.00  0.00     0.218 HD
ENDBRANCH  20  21
ENDBRANCH   1  15
BRANCH  12  23
HETATM   23  C   UNL     1      30.938  50.823  42.105  1.00  0.00    -0.044 A 
HETATM   24  C   UNL     1      31.746  51.640  42.916  1.00  0.00     0.050 A 
HETATM   25  C   UNL     1      33.105  51.361  43.074  1.00  0.00     0.119 A 
HETATM   26  F   UNL     1      33.848  52.170  43.838  1.00  0.00    -0.206 F 
HETATM   27  C   UNL     1      33.697  50.277  42.446  1.00  0.00     0.084 A 
HETATM   28  C   UNL     1      32.904  49.460  41.657  1.00  0.00     0.119 A 
HETATM   29  F   UNL     1      33.455  48.413  41.031  1.00  0.00    -0.206 F 
HETATM   30  C   UNL     1      31.543  49.716  41.483  1.00  0.00     0.050 A 
ENDBRANCH  12  23
TORSDOF 3
ENDMDL
MODEL 2
REMARK VINA RESULT:      -8.3      0.103      1.550
REMARK  3 active torsions:
REMARK  status: ('A' for Active; 'I' for Inactive)
REMARK    1  A    between atoms: C_4  and  C_5 
REMARK       I    between atoms: C_5  and  N_6 
REMARK    2  A    between atoms: C_16  and  C_17 
REMARK    3  A    between atoms: C_27  and  O_28 
ROOT
HETATM    1  C   UNL     1      27.520  49.072  39.503  1.00  0.00     0.275 C 
HETATM    2  N   UNL     1      28.281  50.018  40.204  1.00  0.00    -0.339 N 
HETATM    3  C   UNL     1      28.208  51.413  39.805  1.00  0.00     0.123 C 
HETATM    4  C   UNL     1      28.986  52.187  40.897  1.00  0.00     0.221 C 
HETATM    5  N   UNL     1      30.042  53.072  40.229  1.00  0.00    -0.064 N 
HETATM    6  H   UNL     1      30.565  53.588  40.950  1.00  0.00     0.280 HD
HETATM    7  C   UNL     1      31.043  52.348  39.340  1.00  0.00     0.236 C 
HETATM    8  C   UNL     1      30.283  51.447  38.375  1.00  0.00     0.034 C 
HETATM    9  C   UNL     1      28.782  51.767  38.415  1.00  0.00     0.014 C 
HETATM   10  C   UNL     1      28.613  53.293  38.215  1.00  0.00     0.034 C 
HETATM   11  C   UNL     1      29.308  54.078  39.339  1.00  0.00     0.236 C 
HETATM   12  C   UNL     1      29.431  51.148  41.964  1.00  0.00     0.070 C 
HETATM   13  C   UNL     1      28.531  49.939  41.642  1.00  0.00     0.138 C 
HETATM   14  O   UNL     1      26.826  49.411  38.541  1.00  0.00    -0.266 OA
ENDROOT
BRANCH   1  15
HETATM   15  C   UNL     1      27.514  47.628  39.908  1.00  0.00     0.157 A 
HETATM   16  N   UNL     1      28.513  46.842  39.423  1.00  0.00    -0.253 NA
HETATM   17  C   UNL     1      28.491  45.540  39.795  1.00  0.00     0.117 A 
HETATM   18  C   UNL     1      27.526  44.987  40.622  1.00  0.00     0.022 A 
HETATM   19  C   UNL     1      26.504  45.808  41.092  1.00  0.00     0.040 A 
HETATM   20  C   UNL     1      26.484  47.146  40.721  1.00  0.00     0.100 A 
BRANCH  20  21
HETATM   21  O   UNL     1      25.445  47.902  41.187  1.00  0.00    -0.358 OA
HETATM   22  H   UNL     1      25.579  48.058  42.148  1.00  0.00     0.218 HD
ENDBRANCH  20  21
ENDBRANCH   1  15
BRANCH  12  23
HETATM   23  C   UNL     1      30.903  50.824  42.117  1.00  0.00    -0.044 A 
HETATM   24  C   UNL     1      31.416  49.668  41.503  1.00  0.00     0.050 A 
HETATM   25  C   UNL     1      32.770  49.344  41.617  1.00  0.00     0.119 A 
HETATM   26  F   UNL     1      33.220  48.226  41.034  1.00  0.00    -0.206 F 
HETATM   27  C   UNL     1      33.646  50.146  42.329  1.00  0.00     0.084 A 
HETATM   28  C   UNL     1      33.151  51.295  42.925  1.00  0.00     0.119 A 
HETATM   29  F   UNL     1      33.976  52.081  43.628  1.00  0.00    -0.206 F 
HETATM   30  C   UNL     1      31.802  51.642  42.826  1.00  0.00     0.050 A 
ENDBRANCH  12  23
TORSDOF 3
ENDMDL
MODEL 3
REMARK VINA RESULT:      -7.8     11.915     14.087
REMARK  3 active torsions:
REMARK  status: ('A' for Active; 'I' for Inactive)
REMARK    1  A    between atoms: C_4  and  C_5 
REMARK       I    between atoms: C_5  and  N_6 
REMARK    2  A    between atoms: C_16  and  C_17 
REMARK    3  A    between atoms: C_27  and  O_28 
ROOT
HETATM    1  C   UNL     1      16.210  50.272  48.044  1.00  0.00     0.275 C 
HETATM    2  N   UNL     1      17.500  49.955  47.598  1.00  0.00    -0.339 N 
HETATM    3  C   UNL     1      17.743  48.640  47.031  1.00  0.00     0.123 C 
HETATM    4  C   UNL     1      19.182  48.703  46.463  1.00  0.00     0.221 C 
HETATM    5  N   UNL     1      19.995  47.531  47.020  1.00  0.00    -0.064 N 
HETATM    6  H   UNL     1      20.953  47.570  46.647  1.00  0.00     0.280 HD
HETATM    7  C   UNL     1      20.074  47.446  48.537  1.00  0.00     0.236 C 
HETATM    8  C   UNL     1      18.668  47.559  49.112  1.00  0.00     0.034 C 
HETATM    9  C   UNL     1      17.623  47.437  47.993  1.00  0.00     0.014 C 
HETATM   10  C   UNL     1      17.938  46.157  47.183  1.00  0.00     0.034 C 
HETATM   11  C   UNL     1      19.331  46.238  46.539  1.00  0.00     0.236 C 
HETATM   12  C   UNL     1      19.695  50.155  46.682  1.00  0.00     0.070 C 
HETATM   13  C   UNL     1      18.391  50.925  46.966  1.00  0.00     0.138 C 
HETATM   14  O   UNL     1      15.301  49.438  47.989  1.00  0.00    -0.266 OA
ENDROOT
BRANCH   1  15
HETATM   15  C   UNL     1      15.889  51.634  48.585  1.00  0.00     0.157 A 
HETATM   16  N   UNL     1      14.997  52.386  47.887  1.00  0.00    -0.253 NA
HETATM   17  C   UNL     1      14.722  53.614  48.386  1.00  0.00     0.117 A 
HETATM   18  C   UNL     1      15.290  54.125  49.543  1.00  0.00     0.022 A 
HETATM   19  C   UNL     1      16.213  53.344  50.230  1.00  0.00     0.040 A 
HETATM   20  C   UNL     1      16.533  52.083  49.742  1.00  0.00     0.100 A 
BRANCH  20  21
HETATM   21  O   UNL     1      17.466  51.368  50.439  1.00  0.00    -0.358 OA
HETATM   22  H   UNL     1      17.901  50.738  49.822  1.00  0.00     0.218 HD
ENDBRANCH  20  21
ENDBRANCH   1  15
BRANCH  12  23
HETATM   23  C   UNL     1      20.813  50.406  47.672  1.00  0.00    -0.044 A 
HETATM   24  C   UNL     1      22.147  50.291  47.241  1.00  0.00     0.050 A 
HETATM   25  C   UNL     1      23.202  50.524  48.125  1.00  0.00     0.119 A 
HETATM   26  F   UNL     1      24.459  50.389  47.684  1.00  0.00    -0.206 F 
HETATM   27  C   UNL     1      22.973  50.878  49.444  1.00  0.00     0.084 A 
HETATM   28  C   UNL     1      21.662  51.007  49.873  1.00  0.00     0.119 A 
HETATM   29  F   UNL     1      21.415  51.336  51.147  1.00  0.00    -0.206 F 
HETATM   30  C   UNL     1      20.589  50.780  49.009  1.00  0.00     0.050 A 
ENDBRANCH  12  23
TORSDOF 3
ENDMDL
MODEL 4
REMARK VINA RESULT:      -7.8     25.529     26.953
REMARK  3 active torsions:
REMARK  status: ('A' for Active; 'I' for Inactive)
REMARK    1  A    between atoms: C_4  and  C_5 
REMARK       I    between atoms: C_5  and  N_6 
REMARK    2  A    between atoms: C_16  and  C_17 
REMARK    3  A    between atoms: C_27  and  O_28 
ROOT
HETATM    1  C   UNL     1      35.884  43.025  65.807  1.00  0.00     0.275 C 
HETATM    2  N   UNL     1      36.455  44.211  65.326  1.00  0.00    -0.339 N 
HETATM    3  C   UNL     1      37.671  44.135  64.535  1.00  0.00     0.123 C 
HETATM    4  C   UNL     1      37.899  45.571  64.004  1.00  0.00     0.221 C 
HETATM    5  N   UNL     1      39.323  46.015  64.350  1.00  0.00    -0.064 N 
HETATM    6  H   UNL     1      39.479  46.971  64.001  1.00  0.00     0.280 HD
HETATM    7  C   UNL     1      39.682  45.981  65.828  1.00  0.00     0.236 C 
HETATM    8  C   UNL     1      39.297  44.622  66.399  1.00  0.00     0.034 C 
HETATM    9  C   UNL     1      38.943  43.649  65.265  1.00  0.00     0.014 C 
HETATM   10  C   UNL     1      40.104  43.665  64.241  1.00  0.00     0.034 C 
HETATM   11  C   UNL     1      40.290  45.067  63.638  1.00  0.00     0.236 C 
HETATM   12  C   UNL     1      36.697  46.432  64.485  1.00  0.00     0.070 C 
HETATM   13  C   UNL     1      35.665  45.360  64.888  1.00  0.00     0.138 C 
HETATM   14  O   UNL     1      36.423  41.935  65.594  1.00  0.00    -0.266 OA
ENDROOT
BRANCH   1  15
HETATM   15  C   UNL     1      34.599  43.040  66.580  1.00  0.00     0.157 A 
HETATM   16  N   UNL     1      34.658  43.447  67.877  1.00  0.00    -0.253 NA
HETATM   17  C   UNL     1      33.491  43.452  68.562  1.00  0.00     0.117 A 
HETATM   18  C   UNL     1      32.273  43.073  68.019  1.00  0.00     0.022 A 
HETATM   19  C   UNL     1      32.240  42.643  66.696  1.00  0.00     0.040 A 
HETATM   20  C   UNL     1      33.421  42.610  65.964  1.00  0.00     0.100 A 
BRANCH  20  21
HETATM   21  O   UNL     1      33.338  42.155  64.678  1.00  0.00    -0.358 OA
HETATM   22  H   UNL     1      34.243  41.927  64.370  1.00  0.00     0.218 HD
ENDBRANCH  20  21
ENDBRANCH   1  15
BRANCH  12  23
HETATM   23  C   UNL     1      36.926  47.517  65.517  1.00  0.00    -0.044 A 
HETATM   24  C   UNL     1      37.430  48.761  65.099  1.00  0.00     0.050 A 
HETATM   25  C   UNL     1      37.646  49.787  66.022  1.00  0.00     0.119 A 
HETATM   26  F   UNL     1      38.144  50.952  65.591  1.00  0.00    -0.206 F 
HETATM   27  C   UNL     1      37.367  49.616  67.368  1.00  0.00     0.084 A 
HETATM   28  C   UNL     1      36.856  48.397  67.785  1.00  0.00     0.119 A 
HETATM   29  F   UNL     1      36.590  48.204  69.083  1.00  0.00    -0.206 F 
HETATM   30  C   UNL     1      36.632  47.356  66.883  1.00  0.00     0.050 A 
ENDBRANCH  12  23
TORSDOF 3
ENDMDL
MODEL 5
REMARK VINA RESULT:      -7.7     11.156     13.561
REMARK  3 active torsions:
REMARK  status: ('A' for Active; 'I' for Inactive)
REMARK    1  A    between atoms: C_4  and  C_5 
REMARK       I    between atoms: C_5  and  N_6 
REMARK    2  A    between atoms: C_16  and  C_17 
REMARK    3  A    between atoms: C_27  and  O_28 
ROOT
HETATM    1  C   UNL     1      21.359  47.226  47.226  1.00  0.00     0.275 C 
HETATM    2  N   UNL     1      20.057  47.609  47.576  1.00  0.00    -0.339 N 
HETATM    3  C   UNL     1      18.940  47.064  46.825  1.00  0.00     0.123 C 
HETATM    4  C   UNL     1      17.675  47.520  47.593  1.00  0.00     0.221 C 
HETATM    5  N   UNL     1      16.717  48.212  46.619  1.00  0.00    -0.064 N 
HETATM    6  H   UNL     1      15.876  48.520  47.125  1.00  0.00     0.280 HD
HETATM    7  C   UNL     1      17.289  49.408  45.871  1.00  0.00     0.236 C 
HETATM    8  C   UNL     1      18.625  49.012  45.256  1.00  0.00     0.034 C 
HETATM    9  C   UNL     1      18.824  47.492  45.345  1.00  0.00     0.014 C 
HETATM   10  C   UNL     1      17.564  46.810  44.758  1.00  0.00     0.034 C 
HETATM   11  C   UNL     1      16.308  47.184  45.562  1.00  0.00     0.236 C 
HETATM   12  C   UNL     1      18.160  48.287  48.855  1.00  0.00     0.070 C 
HETATM   13  C   UNL     1      19.638  47.860  48.952  1.00  0.00     0.138 C 
HETATM   14  O   UNL     1      21.558  46.465  46.275  1.00  0.00    -0.266 OA
ENDROOT
BRANCH   1  15
HETATM   15  C   UNL     1      22.546  47.713  48.003  1.00  0.00     0.157 A 
HETATM   16  N   UNL     1      23.026  48.948  47.695  1.00  0.00    -0.253 NA
HETATM   17  C   UNL     1      24.100  49.372  48.402  1.00  0.00     0.117 A 
HETATM   18  C   UNL     1      24.715  48.628  49.397  1.00  0.00     0.022 A 
HETATM   19  C   UNL     1      24.216  47.360  49.682  1.00  0.00     0.040 A 
HETATM   20  C   UNL     1      23.124  46.884  48.968  1.00  0.00     0.100 A 
BRANCH  20  21
HETATM   21  O   UNL     1      22.691  45.622  49.268  1.00  0.00    -0.358 OA
HETATM   22  H   UNL     1      22.599  45.548  50.244  1.00  0.00     0.218 HD
ENDBRANCH  20  21
ENDBRANCH   1  15
BRANCH  12  23
HETATM   23  C   UNL     1      17.919  49.779  48.956  1.00  0.00    -0.044 A 
HETATM   24  C   UNL     1      18.961  50.663  48.623  1.00  0.00     0.050 A 
HETATM   25  C   UNL     1      18.771  52.045  48.697  1.00  0.00     0.119 A 
HETATM   26  F   UNL     1      19.790  52.856  48.390  1.00  0.00    -0.206 F 
HETATM   27  C   UNL     1      17.559  52.586  49.092  1.00  0.00     0.084 A 
HETATM   28  C   UNL     1      16.523  51.721  49.408  1.00  0.00     0.119 A 
HETATM   29  F   UNL     1      15.346  52.220  49.804  1.00  0.00    -0.206 F 
HETATM   30  C   UNL     1      16.687  50.336  49.343  1.00  0.00     0.050 A 
ENDBRANCH  12  23
TORSDOF 3
ENDMDL
MODEL 6
REMARK VINA RESULT:      -7.7      2.548      4.459
REMARK  3 active torsions:
REMARK  status: ('A' for Active; 'I' for Inactive)
REMARK    1  A    between atoms: C_4  and  C_5 
REMARK       I    between atoms: C_5  and  N_6 
REMARK    2  A    between atoms: C_16  and  C_17 
REMARK    3  A    between atoms: C_27  and  O_28 
ROOT
HETATM    1  C   UNL     1      28.902  46.914  39.713  1.00  0.00     0.275 C 
HETATM    2  N   UNL     1      29.687  48.073  39.638  1.00  0.00    -0.339 N 
HETATM    3  C   UNL     1      31.098  47.987  39.974  1.00  0.00     0.123 C 
HETATM    4  C   UNL     1      31.690  49.365  39.587  1.00  0.00     0.221 C 
HETATM    5  N   UNL     1      32.449  49.941  40.786  1.00  0.00    -0.064 N 
HETATM    6  H   UNL     1      32.842  50.858  40.536  1.00  0.00     0.280 HD
HETATM    7  C   UNL     1      31.638  50.101  42.064  1.00  0.00     0.236 C 
HETATM    8  C   UNL     1      30.911  48.794  42.355  1.00  0.00     0.034 C 
HETATM    9  C   UNL     1      31.443  47.675  41.447  1.00  0.00     0.014 C 
HETATM   10  C   UNL     1      32.985  47.651  41.571  1.00  0.00     0.034 C 
HETATM   11  C   UNL     1      33.598  48.983  41.110  1.00  0.00     0.236 C 
HETATM   12  C   UNL     1      30.539  50.193  38.948  1.00  0.00     0.070 C 
HETATM   13  C   UNL     1      29.494  49.108  38.625  1.00  0.00     0.138 C 
HETATM   14  O   UNL     1      29.391  45.845  40.091  1.00  0.00    -0.266 OA
ENDROOT
BRANCH   1  15
HETATM   15  C   UNL     1      27.454  46.932  39.324  1.00  0.00     0.157 A 
HETATM   16  N   UNL     1      27.122  46.354  38.138  1.00  0.00    -0.253 NA
HETATM   17  C   UNL     1      25.811  46.382  37.800  1.00  0.00     0.117 A 
HETATM   18  C   UNL     1      24.821  46.955  38.583  1.00  0.00     0.022 A 
HETATM   19  C   UNL     1      25.188  47.555  39.783  1.00  0.00     0.040 A 
HETATM   20  C   UNL     1      26.525  47.560  40.159  1.00  0.00     0.100 A 
BRANCH  20  21
HETATM   21  O   UNL     1      26.836  48.186  41.334  1.00  0.00    -0.358 OA
HETATM   22  H   UNL     1      26.021  48.245  41.880  1.00  0.00     0.218 HD
ENDBRANCH  20  21
ENDBRANCH   1  15
BRANCH  12  23
HETATM   23  C   UNL     1      29.998  51.402  39.683  1.00  0.00    -0.044 A 
HETATM   24  C   UNL     1      28.719  51.333  40.263  1.00  0.00     0.050 A 
HETATM   25  C   UNL     1      28.192  52.426  40.955  1.00  0.00     0.119 A 
HETATM   26  F   UNL     1      26.965  52.331  41.480  1.00  0.00    -0.206 F 
HETATM   27  C   UNL     1      28.908  53.604  41.094  1.00  0.00     0.084 A 
HETATM   28  C   UNL     1      30.175  53.675  40.537  1.00  0.00     0.119 A 
HETATM   29  F   UNL     1      30.881  54.806  40.648  1.00  0.00    -0.206 F 
HETATM   30  C   UNL     1      30.724  52.596  39.841  1.00  0.00     0.050 A 
ENDBRANCH  12  23
TORSDOF 3
ENDMDL
MODEL 7
REMARK VINA RESULT:      -7.6     13.724     15.747
REMARK  3 active torsions:
REMARK  status: ('A' for Active; 'I' for Inactive)
REMARK    1  A    between atoms: C_4  and  C_5 
REMARK       I    between atoms: C_5  and  N_6 
REMARK    2  A    between atoms: C_16  and  C_17 
REMARK    3  A    between atoms: C_27  and  O_28 
ROOT
HETATM    1  C   UNL     1      15.811  52.748  49.710  1.00  0.00     0.275 C 
HETATM    2  N   UNL     1      16.416  51.714  48.983  1.00  0.00    -0.339 N 
HETATM    3  C   UNL     1      17.529  50.995  49.580  1.00  0.00     0.123 C 
HETATM    4  C   UNL     1      17.810  49.814  48.619  1.00  0.00     0.221 C 
HETATM    5  N   UNL     1      19.293  49.816  48.240  1.00  0.00    -0.064 N 
HETATM    6  H   UNL     1      19.485  49.034  47.599  1.00  0.00     0.280 HD
HETATM    7  C   UNL     1      19.808  51.097  47.600  1.00  0.00     0.236 C 
HETATM    8  C   UNL     1      19.382  52.282  48.456  1.00  0.00     0.034 C 
HETATM    9  C   UNL     1      18.831  51.796  49.804  1.00  0.00     0.014 C 
HETATM   10  C   UNL     1      19.870  50.833  50.426  1.00  0.00     0.034 C 
HETATM   11  C   UNL     1      20.099  49.609  49.524  1.00  0.00     0.236 C 
HETATM   12  C   UNL     1      16.738  49.878  47.493  1.00  0.00     0.070 C 
HETATM   13  C   UNL     1      15.676  50.813  48.102  1.00  0.00     0.138 C 
HETATM   14  O   UNL     1      16.235  53.068  50.824  1.00  0.00    -0.266 OA
ENDROOT
BRANCH   1  15
HETATM   15  C   UNL     1      14.623  53.485  49.167  1.00  0.00     0.157 A 
HETATM   16  N   UNL     1      14.679  53.884  47.868  1.00  0.00    -0.253 NA
HETATM   17  C   UNL     1      13.601  54.551  47.393  1.00  0.00     0.117 A 
HETATM   18  C   UNL     1      12.475  54.839  48.148  1.00  0.00     0.022 A 
HETATM   19  C   UNL     1      12.447  54.437  49.480  1.00  0.00     0.040 A 
HETATM   20  C   UNL     1      13.541  53.761  50.008  1.00  0.00     0.100 A 
BRANCH  20  21
HETATM   21  O   UNL     1      13.475  53.413  51.328  1.00  0.00    -0.358 OA
HETATM   22  H   UNL     1      13.936  54.101  51.855  1.00  0.00     0.218 HD
ENDBRANCH  20  21
ENDBRANCH   1  15
BRANCH  12  23
HETATM   23  C   UNL     1      17.164  50.228  46.082  1.00  0.00    -0.044 A 
HETATM   24  C   UNL     1      17.021  51.553  45.634  1.00  0.00     0.050 A 
HETATM   25  C   UNL     1      17.410  51.913  44.342  1.00  0.00     0.119 A 
HETATM   26  F   UNL     1      17.243  53.179  43.944  1.00  0.00    -0.206 F 
HETATM   27  C   UNL     1      17.950  50.984  43.468  1.00  0.00     0.084 A 
HETATM   28  C   UNL     1      18.107  49.679  43.906  1.00  0.00     0.119 A 
HETATM   29  F   UNL     1      18.616  48.762  43.075  1.00  0.00    -0.206 F 
HETATM   30  C   UNL     1      17.726  49.294  45.193  1.00  0.00     0.050 A 
ENDBRANCH  12  23
TORSDOF 3
ENDMDL
MODEL 8
REMARK VINA RESULT:      -7.5     11.956     14.089
REMARK  3 active torsions:
REMARK  status: ('A' for Active; 'I' for Inactive)
REMARK    1  A    between atoms: C_4  and  C_5 
REMARK       I    between atoms: C_5  and  N_6 
REMARK    2  A    between atoms: C_16  and  C_17 
REMARK    3  A    between atoms: C_27  and  O_28 
ROOT
HETATM    1  C   UNL     1      16.199  50.255  48.083  1.00  0.00     0.275 C 
HETATM    2  N   UNL     1      17.483  49.934  47.622  1.00  0.00    -0.339 N 
HETATM    3  C   UNL     1      17.723  48.607  47.083  1.00  0.00     0.123 C 
HETATM    4  C   UNL     1      19.151  48.663  46.488  1.00  0.00     0.221 C 
HETATM    5  N   UNL     1      19.980  47.508  47.058  1.00  0.00    -0.064 N 
HETATM    6  H   UNL     1      20.931  47.543  46.668  1.00  0.00     0.280 HD
HETATM    7  C   UNL     1      20.086  47.460  48.575  1.00  0.00     0.236 C 
HETATM    8  C   UNL     1      18.690  47.580  49.172  1.00  0.00     0.034 C 
HETATM    9  C   UNL     1      17.626  47.427  48.075  1.00  0.00     0.014 C 
HETATM   10  C   UNL     1      17.933  46.129  47.290  1.00  0.00     0.034 C 
HETATM   11  C   UNL     1      19.315  46.201  46.620  1.00  0.00     0.236 C 
HETATM   12  C   UNL     1      19.661  50.122  46.663  1.00  0.00     0.070 C 
HETATM   13  C   UNL     1      18.358  50.893  46.952  1.00  0.00     0.138 C 
HETATM   14  O   UNL     1      15.294  49.416  48.064  1.00  0.00    -0.266 OA
ENDROOT
BRANCH   1  15
HETATM   15  C   UNL     1      15.881  51.628  48.598  1.00  0.00     0.157 A 
HETATM   16  N   UNL     1      16.289  51.929  49.860  1.00  0.00    -0.253 NA
HETATM   17  C   UNL     1      15.991  53.170  50.311  1.00  0.00     0.117 A 
HETATM   18  C   UNL     1      15.310  54.122  49.567  1.00  0.00     0.022 A 
HETATM   19  C   UNL     1      14.888  53.784  48.285  1.00  0.00     0.040 A 
HETATM   20  C   UNL     1      15.162  52.515  47.791  1.00  0.00     0.100 A 
BRANCH  20  21
HETATM   21  O   UNL     1      14.702  52.226  46.537  1.00  0.00    -0.358 OA
HETATM   22  H   UNL     1      15.180  52.792  45.892  1.00  0.00     0.218 HD
ENDBRANCH  20  21
ENDBRANCH   1  15
BRANCH  12  23
HETATM   23  C   UNL     1      20.795  50.402  47.628  1.00  0.00    -0.044 A 
HETATM   24  C   UNL     1      20.491  50.754  48.955  1.00  0.00     0.050 A 
HETATM   25  C   UNL     1      21.512  51.010  49.874  1.00  0.00     0.119 A 
HETATM   26  F   UNL     1      21.186  51.360  51.124  1.00  0.00    -0.206 F 
HETATM   27  C   UNL     1      22.846  50.923  49.512  1.00  0.00     0.084 A 
HETATM   28  C   UNL     1      23.153  50.563  48.210  1.00  0.00     0.119 A 
HETATM   29  F   UNL     1      24.435  50.483  47.833  1.00  0.00    -0.206 F 
HETATM   30  C   UNL     1      22.152  50.301  47.273  1.00  0.00     0.050 A 
ENDBRANCH  12  23
TORSDOF 3
ENDMDL
MODEL 9
REMARK VINA RESULT:      -7.3      3.529      7.110
REMARK  3 active torsions:
REMARK  status: ('A' for Active; 'I' for Inactive)
REMARK    1  A    between atoms: C_4  and  C_5 
REMARK       I    between atoms: C_5  and  N_6 
REMARK    2  A    between atoms: C_16  and  C_17 
REMARK    3  A    between atoms: C_27  and  O_28 
ROOT
HETATM    1  C   UNL     1      30.781  48.281  40.502  1.00  0.00     0.275 C 
HETATM    2  N   UNL     1      29.479  47.760  40.482  1.00  0.00    -0.339 N 
HETATM    3  C   UNL     1      29.291  46.357  40.156  1.00  0.00     0.123 C 
HETATM    4  C   UNL     1      27.792  46.077  40.427  1.00  0.00     0.221 C 
HETATM    5  N   UNL     1      27.167  45.435  39.186  1.00  0.00    -0.064 N 
HETATM    6  H   UNL     1      26.170  45.249  39.359  1.00  0.00     0.280 HD
HETATM    7  C   UNL     1      27.286  46.237  37.898  1.00  0.00     0.236 C 
HETATM    8  C   UNL     1      28.737  46.665  37.716  1.00  0.00     0.034 C 
HETATM    9  C   UNL     1      29.641  45.927  38.714  1.00  0.00     0.014 C 
HETATM   10  C   UNL     1      29.347  44.412  38.593  1.00  0.00     0.034 C 
HETATM   11  C   UNL     1      27.882  44.103  38.943  1.00  0.00     0.236 C 
HETATM   12  C   UNL     1      27.179  47.388  40.994  1.00  0.00     0.070 C 
HETATM   13  C   UNL     1      28.431  48.187  41.405  1.00  0.00     0.138 C 
HETATM   14  O   UNL     1      31.748  47.571  40.214  1.00  0.00    -0.266 OA
ENDROOT
BRANCH   1  15
HETATM   15  C   UNL     1      31.039  49.707  40.887  1.00  0.00     0.157 A 
HETATM   16  N   UNL     1      30.649  50.669  40.007  1.00  0.00    -0.253 NA
HETATM   17  C   UNL     1      30.893  51.951  40.368  1.00  0.00     0.117 A 
HETATM   18  C   UNL     1      31.503  52.319  41.557  1.00  0.00     0.022 A 
HETATM   19  C   UNL     1      31.909  51.316  42.432  1.00  0.00     0.040 A 
HETATM   20  C   UNL     1      31.689  49.987  42.092  1.00  0.00     0.100 A 
BRANCH  20  21
HETATM   21  O   UNL     1      32.132  49.041  42.974  1.00  0.00    -0.358 OA
HETATM   22  H   UNL     1      33.110  48.985  42.906  1.00  0.00     0.218 HD
ENDBRANCH  20  21
ENDBRANCH   1  15
BRANCH  12  23
HETATM   23  C   UNL     1      26.174  48.159  40.162  1.00  0.00    -0.044 A 
HETATM   24  C   UNL     1      26.627  49.216  39.352  1.00  0.00     0.050 A 
HETATM   25  C   UNL     1      25.730  49.943  38.566  1.00  0.00     0.119 A 
HETATM   26  F   UNL     1      26.193  50.954  37.821  1.00  0.00    -0.206 F 
HETATM   27  C   UNL     1      24.377  49.645  38.553  1.00  0.00     0.084 A 
HETATM   28  C   UNL     1      23.926  48.596  39.338  1.00  0.00     0.119 A 
HETATM   29  F   UNL     1      22.622  48.297  39.351  1.00  0.00    -0.206 F 
HETATM   30  C   UNL     1      24.802  47.854  40.133  1.00  0.00     0.050 A 
ENDBRANCH  12  23
TORSDOF 3
ENDMDL
MODEL 10
REMARK VINA RESULT:      -7.3     11.478     13.612
REMARK  3 active torsions:
REMARK  status: ('A' for Active; 'I' for Inactive)
REMARK    1  A    between atoms: C_4  and  C_5 
REMARK       I    between atoms: C_5  and  N_6 
REMARK    2  A    between atoms: C_16  and  C_17 
REMARK    3  A    between atoms: C_27  and  O_28 
ROOT
HETATM    1  C   UNL     1      20.574  45.943  47.594  1.00  0.00     0.275 C 
HETATM    2  N   UNL     1      19.494  46.784  47.897  1.00  0.00    -0.339 N 
HETATM    3  C   UNL     1      18.257  46.633  47.150  1.00  0.00     0.123 C 
HETATM    4  C   UNL     1      17.237  47.551  47.868  1.00  0.00     0.221 C 
HETATM    5  N   UNL     1      16.592  48.486  46.842  1.00  0.00    -0.064 N 
HETATM    6  H   UNL     1      15.915  49.100  47.314  1.00  0.00     0.280 HD
HETATM    7  C   UNL     1      17.555  49.358  46.048  1.00  0.00     0.236 C 
HETATM    8  C   UNL     1      18.663  48.479  45.481  1.00  0.00     0.034 C 
HETATM    9  C   UNL     1      18.305  46.995  45.649  1.00  0.00     0.014 C 
HETATM   10  C   UNL     1      16.887  46.777  45.070  1.00  0.00     0.034 C 
HETATM   11  C   UNL     1      15.845  47.617  45.827  1.00  0.00     0.236 C 
HETATM   12  C   UNL     1      17.961  48.160  49.101  1.00  0.00     0.070 C 
HETATM   13  C   UNL     1      19.188  47.240  49.250  1.00  0.00     0.138 C 
HETATM   14  O   UNL     1      20.490  45.112  46.686  1.00  0.00    -0.266 OA
ENDROOT
BRANCH   1  15
HETATM   15  C   UNL     1      21.855  46.016  48.371  1.00  0.00     0.157 A 
HETATM   16  N   UNL     1      22.448  47.235  48.479  1.00  0.00    -0.253 NA
HETATM   17  C   UNL     1      23.605  47.283  49.180  1.00  0.00     0.117 A 
HETATM   18  C   UNL     1      24.196  46.180  49.776  1.00  0.00     0.022 A 
HETATM   19  C   UNL     1      23.580  44.940  49.636  1.00  0.00     0.040 A 
HETATM   20  C   UNL     1      22.398  44.847  48.912  1.00  0.00     0.100 A 
BRANCH  20  21
HETATM   21  O   UNL     1      21.849  43.603  48.783  1.00  0.00    -0.358 OA
HETATM   22  H   UNL     1      20.882  43.702  48.636  1.00  0.00     0.218 HD
ENDBRANCH  20  21
ENDBRANCH   1  15
BRANCH  12  23
HETATM   23  C   UNL     1      18.269  49.644  49.124  1.00  0.00    -0.044 A 
HETATM   24  C   UNL     1      17.293  50.536  49.602  1.00  0.00     0.050 A 
HETATM   25  C   UNL     1      17.546  51.909  49.645  1.00  0.00     0.119 A 
HETATM   26  F   UNL     1      16.588  52.731  50.089  1.00  0.00    -0.206 F 
HETATM   27  C   UNL     1      18.759  52.432  49.226  1.00  0.00     0.084 A 
HETATM   28  C   UNL     1      19.731  51.557  48.768  1.00  0.00     0.119 A 
HETATM   29  F   UNL     1      20.906  52.040  48.347  1.00  0.00    -0.206 F 
HETATM   30  C   UNL     1      19.502  50.181  48.715  1.00  0.00     0.050 A 
ENDBRANCH  12  23
TORSDOF 3
ENDMDL
