MODEL 1
REMARK VINA RESULT:      -9.1      0.000      0.000
REMARK  5 active torsions:
REMARK  status: ('A' for Active; 'I' for Inactive)
REMARK    1  A    between atoms: C_5  and  C_6 
REMARK    2  A    between atoms: C_9  and  O_10 
REMARK    3  A    between atoms: O_10  and  C_11 
REMARK    4  A    between atoms: C_11  and  C_12 
REMARK       I    between atoms: C_12  and  N_13 
REMARK    5  A    between atoms: N_13  and  C_14 
ROOT
HETATM    1  C   UNL     1      26.441  43.813  51.499  1.00  0.00     0.278 C 
ENDROOT
BRANCH   1   2
HETATM    2  O   UNL     1      27.011  44.793  50.636  1.00  0.00    -0.342 OA
BRANCH   2   3
HETATM    3  C   UNL     1      26.158  45.768  50.187  1.00  0.00     0.069 A 
HETATM    4  C   UNL     1      24.788  45.618  49.968  1.00  0.00     0.038 A 
HETATM    5  C   UNL     1      24.024  46.696  49.506  1.00  0.00     0.018 A 
HETATM    6  C   UNL     1      24.613  47.943  49.256  1.00  0.00     0.015 A 
HETATM    7  C   UNL     1      25.988  48.088  49.481  1.00  0.00     0.018 A 
HETATM    8  C   UNL     1      26.752  47.008  49.943  1.00  0.00     0.038 A 
BRANCH   6   9
HETATM    9  C   UNL     1      23.802  49.055  48.776  1.00  0.00     0.198 A 
HETATM   10  N   UNL     1      24.167  49.830  47.696  1.00  0.00    -0.136 NA
HETATM   11  N   UNL     1      23.215  50.736  47.530  1.00  0.00     0.024 NA
HETATM   12  N   UNL     1      22.331  50.475  48.503  1.00  0.00    -0.196 N 
HETATM   13  C   UNL     1      21.121  51.236  48.655  1.00  0.00     0.200 C 
HETATM   14  N   UNL     1      22.632  49.445  49.313  1.00  0.00    -0.137 NA
ENDBRANCH   6   9
ENDBRANCH   2   3
ENDBRANCH   1   2
BRANCH   1  15
HETATM   15  C   UNL     1      26.913  43.942  52.949  1.00  0.00     0.246 C 
HETATM   16  N   UNL     1      28.289  43.998  53.075  1.00  0.00    -0.325 N 
HETATM   17  H   UNL     1      28.803  43.928  52.202  1.00  0.00     0.169 HD
HETATM   18  O   UNL     1      26.089  44.006  53.858  1.00  0.00    -0.271 OA
BRANCH  16  19
HETATM   19  C   UNL     1      29.045  44.135  54.257  1.00  0.00     0.036 A 
HETATM   20  C   UNL     1      28.875  45.192  55.160  1.00  0.00     0.059 A 
HETATM   21  C   UNL     1      29.686  45.224  56.305  1.00  0.00     0.044 A 
HETATM   22  C   UNL     1      30.646  44.253  56.577  1.00  0.00    -0.008 A 
HETATM   23  N   UNL     1      29.723  46.135  57.337  1.00  0.00    -0.365 N 
HETATM   24  C   UNL     1      30.811  43.196  55.665  1.00  0.00     0.016 A 
HETATM   25  C   UNL     1      31.265  44.611  57.807  1.00  0.00     0.030 A 
HETATM   26  C   UNL     1      30.005  43.150  54.516  1.00  0.00     0.030 A 
HETATM   27  C   UNL     1      30.676  45.773  58.252  1.00  0.00     0.089 A 
HETATM   28  H   UNL     1      29.128  46.950  57.400  1.00  0.00     0.165 HD
ENDBRANCH  16  19
ENDBRANCH   1  15
TORSDOF 5
ENDMDL
MODEL 2
REMARK VINA RESULT:      -9.0      1.918      2.817
REMARK  5 active torsions:
REMARK  status: ('A' for Active; 'I' for Inactive)
REMARK    1  A    between atoms: C_5  and  C_6 
REMARK    2  A    between atoms: C_9  and  O_10 
REMARK    3  A    between atoms: O_10  and  C_11 
REMARK    4  A    between atoms: C_11  and  C_12 
REMARK       I    between atoms: C_12  and  N_13 
REMARK    5  A    between atoms: N_13  and  C_14 
ROOT
HETATM    1  C   UNL     1      28.225  41.475  51.351  1.00  0.00     0.278 C 
ENDROOT
BRANCH   1   2
HETATM    2  O   UNL     1      26.864  41.498  50.926  1.00  0.00    -0.342 OA
BRANCH   2   3
HETATM    3  C   UNL     1      26.342  42.734  50.645  1.00  0.00     0.069 A 
HETATM    4  C   UNL     1      27.040  43.810  50.095  1.00  0.00     0.038 A 
HETATM    5  C   UNL     1      26.389  45.026  49.855  1.00  0.00     0.018 A 
HETATM    6  C   UNL     1      25.030  45.188  50.158  1.00  0.00     0.015 A 
HETATM    7  C   UNL     1      24.335  44.103  50.708  1.00  0.00     0.018 A 
HETATM    8  C   UNL     1      24.988  42.887  50.947  1.00  0.00     0.038 A 
BRANCH   6   9
HETATM    9  C   UNL     1      24.368  46.460  49.900  1.00  0.00     0.198 A 
HETATM   10  N   UNL     1      24.875  47.665  50.337  1.00  0.00    -0.136 NA
HETATM   11  N   UNL     1      24.038  48.608  49.932  1.00  0.00     0.024 NA
HETATM   12  N   UNL     1      23.074  47.943  49.280  1.00  0.00    -0.196 N 
HETATM   13  C   UNL     1      21.969  48.621  48.659  1.00  0.00     0.200 C 
HETATM   14  N   UNL     1      23.215  46.608  49.221  1.00  0.00    -0.137 NA
ENDBRANCH   6   9
ENDBRANCH   2   3
ENDBRANCH   1   2
BRANCH   1  15
HETATM   15  C   UNL     1      28.403  41.888  52.815  1.00  0.00     0.246 C 
HETATM   16  N   UNL     1      29.118  43.061  52.971  1.00  0.00    -0.325 N 
HETATM   17  H   UNL     1      29.445  43.483  52.106  1.00  0.00     0.169 HD
HETATM   18  O   UNL     1      27.912  41.203  53.709  1.00  0.00    -0.271 OA
BRANCH  16  19
HETATM   19  C   UNL     1      29.443  43.724  54.172  1.00  0.00     0.036 A 
HETATM   20  C   UNL     1      30.420  43.263  55.063  1.00  0.00     0.059 A 
HETATM   21  C   UNL     1      30.658  44.006  56.229  1.00  0.00     0.044 A 
HETATM   22  C   UNL     1      29.965  45.175  56.535  1.00  0.00    -0.008 A 
HETATM   23  N   UNL     1      31.550  43.781  57.255  1.00  0.00    -0.365 N 
HETATM   24  C   UNL     1      28.984  45.629  55.635  1.00  0.00     0.016 A 
HETATM   25  C   UNL     1      30.467  45.645  57.780  1.00  0.00     0.030 A 
HETATM   26  C   UNL     1      28.737  44.896  54.463  1.00  0.00     0.030 A 
HETATM   27  C   UNL     1      31.442  44.768  58.199  1.00  0.00     0.089 A 
HETATM   28  H   UNL     1      32.187  42.998  57.295  1.00  0.00     0.165 HD
ENDBRANCH  16  19
ENDBRANCH   1  15
TORSDOF 5
ENDMDL
MODEL 3
REMARK VINA RESULT:      -8.8      1.928     10.179
REMARK  5 active torsions:
REMARK  status: ('A' for Active; 'I' for Inactive)
REMARK    1  A    between atoms: C_5  and  C_6 
REMARK    2  A    between atoms: C_9  and  O_10 
REMARK    3  A    between atoms: O_10  and  C_11 
REMARK    4  A    between atoms: C_11  and  C_12 
REMARK       I    between atoms: C_12  and  N_13 
REMARK    5  A    between atoms: N_13  and  C_14 
ROOT
HETATM    1  C   UNL     1      25.664  45.878  50.162  1.00  0.00     0.278 C 
ENDROOT
BRANCH   1   2
HETATM    2  O   UNL     1      25.431  44.914  51.185  1.00  0.00    -0.342 OA
BRANCH   2   3
HETATM    3  C   UNL     1      26.424  44.776  52.120  1.00  0.00     0.069 A 
HETATM    4  C   UNL     1      27.514  43.909  52.031  1.00  0.00     0.038 A 
HETATM    5  C   UNL     1      28.465  43.861  53.058  1.00  0.00     0.018 A 
HETATM    6  C   UNL     1      28.345  44.680  54.189  1.00  0.00     0.015 A 
HETATM    7  C   UNL     1      27.251  45.550  54.270  1.00  0.00     0.018 A 
HETATM    8  C   UNL     1      26.300  45.597  53.242  1.00  0.00     0.038 A 
BRANCH   6   9
HETATM    9  C   UNL     1      29.345  44.619  55.248  1.00  0.00     0.198 A 
HETATM   10  N   UNL     1      29.441  45.575  56.236  1.00  0.00    -0.136 NA
HETATM   11  N   UNL     1      30.440  45.215  57.028  1.00  0.00     0.024 NA
HETATM   12  N   UNL     1      30.899  44.076  56.492  1.00  0.00    -0.196 N 
HETATM   13  C   UNL     1      31.987  43.343  57.079  1.00  0.00     0.200 C 
HETATM   14  N   UNL     1      30.266  43.647  55.386  1.00  0.00    -0.137 NA
ENDBRANCH   6   9
ENDBRANCH   2   3
ENDBRANCH   1   2
BRANCH   1  15
HETATM   15  C   UNL     1      24.803  47.135  50.315  1.00  0.00     0.246 C 
HETATM   16  N   UNL     1      24.039  47.416  49.197  1.00  0.00    -0.325 N 
HETATM   17  H   UNL     1      24.160  46.771  48.422  1.00  0.00     0.169 HD
HETATM   18  O   UNL     1      24.826  47.769  51.366  1.00  0.00    -0.271 OA
BRANCH  16  19
HETATM   19  C   UNL     1      23.131  48.479  49.013  1.00  0.00     0.036 A 
HETATM   20  C   UNL     1      21.741  48.313  49.029  1.00  0.00     0.059 A 
HETATM   21  C   UNL     1      20.935  49.445  48.835  1.00  0.00     0.044 A 
HETATM   22  C   UNL     1      21.459  50.718  48.628  1.00  0.00    -0.008 A 
HETATM   23  N   UNL     1      19.563  49.559  48.806  1.00  0.00    -0.365 N 
HETATM   24  C   UNL     1      22.857  50.876  48.612  1.00  0.00     0.016 A 
HETATM   25  C   UNL     1      20.357  51.604  48.471  1.00  0.00     0.030 A 
HETATM   26  C   UNL     1      23.676  49.752  48.807  1.00  0.00     0.030 A 
HETATM   27  C   UNL     1      19.203  50.863  48.586  1.00  0.00     0.089 A 
HETATM   28  H   UNL     1      18.923  48.787  48.930  1.00  0.00     0.165 HD
ENDBRANCH  16  19
ENDBRANCH   1  15
TORSDOF 5
ENDMDL
MODEL 4
REMARK VINA RESULT:      -8.6      2.433     10.821
REMARK  5 active torsions:
REMARK  status: ('A' for Active; 'I' for Inactive)
REMARK    1  A    between atoms: C_5  and  C_6 
REMARK    2  A    between atoms: C_9  and  O_10 
REMARK    3  A    between atoms: O_10  and  C_11 
REMARK    4  A    between atoms: C_11  and  C_12 
REMARK       I    between atoms: C_12  and  N_13 
REMARK    5  A    between atoms: N_13  and  C_14 
ROOT
HETATM    1  C   UNL     1      24.685  47.292  50.289  1.00  0.00     0.278 C 
ENDROOT
BRANCH   1   2
HETATM    2  O   UNL     1      24.753  47.409  51.708  1.00  0.00    -0.342 OA
BRANCH   2   3
HETATM    3  C   UNL     1      25.713  46.653  52.328  1.00  0.00     0.069 A 
HETATM    4  C   UNL     1      26.140  45.386  51.928  1.00  0.00     0.038 A 
HETATM    5  C   UNL     1      27.133  44.714  52.651  1.00  0.00     0.018 A 
HETATM    6  C   UNL     1      27.718  45.295  53.785  1.00  0.00     0.015 A 
HETATM    7  C   UNL     1      27.286  46.568  54.179  1.00  0.00     0.018 A 
HETATM    8  C   UNL     1      26.293  47.240  53.455  1.00  0.00     0.038 A 
BRANCH   6   9
HETATM    9  C   UNL     1      28.751  44.582  54.525  1.00  0.00     0.198 A 
HETATM   10  N   UNL     1      29.156  43.307  54.196  1.00  0.00    -0.136 NA
HETATM   11  N   UNL     1      30.102  42.966  55.058  1.00  0.00     0.024 NA
HETATM   12  N   UNL     1      30.225  44.032  55.860  1.00  0.00    -0.196 N 
HETATM   13  C   UNL     1      31.181  44.071  56.933  1.00  0.00     0.200 C 
HETATM   14  N   UNL     1      29.418  45.072  55.587  1.00  0.00    -0.137 NA
ENDBRANCH   6   9
ENDBRANCH   2   3
ENDBRANCH   1   2
BRANCH   1  15
HETATM   15  C   UNL     1      23.946  48.457  49.625  1.00  0.00     0.246 C 
HETATM   16  N   UNL     1      22.573  48.296  49.608  1.00  0.00    -0.325 N 
HETATM   17  H   UNL     1      22.237  47.429  50.015  1.00  0.00     0.169 HD
HETATM   18  O   UNL     1      24.579  49.417  49.193  1.00  0.00    -0.271 OA
BRANCH  16  19
HETATM   19  C   UNL     1      21.605  49.183  49.093  1.00  0.00     0.036 A 
HETATM   20  C   UNL     1      20.881  48.933  47.920  1.00  0.00     0.059 A 
HETATM   21  C   UNL     1      19.942  49.889  47.504  1.00  0.00     0.044 A 
HETATM   22  C   UNL     1      19.702  51.068  48.205  1.00  0.00    -0.008 A 
HETATM   23  N   UNL     1      19.108  49.890  46.407  1.00  0.00    -0.365 N 
HETATM   24  C   UNL     1      20.435  51.311  49.381  1.00  0.00     0.016 A 
HETATM   25  C   UNL     1      18.699  51.782  47.493  1.00  0.00     0.030 A 
HETATM   26  C   UNL     1      21.377  50.363  49.811  1.00  0.00     0.030 A 
HETATM   27  C   UNL     1      18.352  51.032  46.392  1.00  0.00     0.089 A 
HETATM   28  H   UNL     1      19.069  49.151  45.720  1.00  0.00     0.165 HD
ENDBRANCH  16  19
ENDBRANCH   1  15
TORSDOF 5
ENDMDL
MODEL 5
REMARK VINA RESULT:      -8.5      1.807      9.553
REMARK  5 active torsions:
REMARK  status: ('A' for Active; 'I' for Inactive)
REMARK    1  A    between atoms: C_5  and  C_6 
REMARK    2  A    between atoms: C_9  and  O_10 
REMARK    3  A    between atoms: O_10  and  C_11 
REMARK    4  A    between atoms: C_11  and  C_12 
REMARK       I    between atoms: C_12  and  N_13 
REMARK    5  A    between atoms: N_13  and  C_14 
ROOT
HETATM    1  C   UNL     1      26.595  44.129  50.026  1.00  0.00     0.278 C 
ENDROOT
BRANCH   1   2
HETATM    2  O   UNL     1      26.208  43.668  51.318  1.00  0.00    -0.342 OA
BRANCH   2   3
HETATM    3  C   UNL     1      27.170  43.730  52.292  1.00  0.00     0.069 A 
HETATM    4  C   UNL     1      28.504  43.347  52.148  1.00  0.00     0.038 A 
HETATM    5  C   UNL     1      29.392  43.460  53.225  1.00  0.00     0.018 A 
HETATM    6  C   UNL     1      28.964  43.959  54.463  1.00  0.00     0.015 A 
HETATM    7  C   UNL     1      27.624  44.344  54.599  1.00  0.00     0.018 A 
HETATM    8  C   UNL     1      26.737  44.231  53.522  1.00  0.00     0.038 A 
BRANCH   6   9
HETATM    9  C   UNL     1      29.901  44.071  55.573  1.00  0.00     0.198 A 
HETATM   10  N   UNL     1      30.987  43.235  55.717  1.00  0.00    -0.136 NA
HETATM   11  N   UNL     1      31.624  43.612  56.816  1.00  0.00     0.024 NA
HETATM   12  N   UNL     1      30.905  44.643  57.283  1.00  0.00    -0.196 N 
HETATM   13  C   UNL     1      31.284  45.358  58.471  1.00  0.00     0.200 C 
HETATM   14  N   UNL     1      29.823  44.982  56.561  1.00  0.00    -0.137 NA
ENDBRANCH   6   9
ENDBRANCH   2   3
ENDBRANCH   1   2
BRANCH   1  15
HETATM   15  C   UNL     1      25.626  45.161  49.442  1.00  0.00     0.246 C 
HETATM   16  N   UNL     1      25.850  46.445  49.904  1.00  0.00    -0.325 N 
HETATM   17  H   UNL     1      26.606  46.534  50.576  1.00  0.00     0.169 HD
HETATM   18  O   UNL     1      24.773  44.811  48.631  1.00  0.00    -0.271 OA
BRANCH  16  19
HETATM   19  C   UNL     1      25.157  47.623  49.556  1.00  0.00     0.036 A 
HETATM   20  C   UNL     1      23.790  47.809  49.796  1.00  0.00     0.059 A 
HETATM   21  C   UNL     1      23.207  49.024  49.406  1.00  0.00     0.044 A 
HETATM   22  C   UNL     1      23.928  50.045  48.793  1.00  0.00    -0.008 A 
HETATM   23  N   UNL     1      21.905  49.458  49.525  1.00  0.00    -0.365 N 
HETATM   24  C   UNL     1      25.300  49.850  48.555  1.00  0.00     0.016 A 
HETATM   25  C   UNL     1      23.017  51.109  48.544  1.00  0.00     0.030 A 
HETATM   26  C   UNL     1      25.897  48.639  48.941  1.00  0.00     0.030 A 
HETATM   27  C   UNL     1      21.780  50.720  49.006  1.00  0.00     0.089 A 
HETATM   28  H   UNL     1      21.158  48.917  49.937  1.00  0.00     0.165 HD
ENDBRANCH  16  19
ENDBRANCH   1  15
TORSDOF 5
ENDMDL
MODEL 6
REMARK VINA RESULT:      -8.5      2.970      4.681
REMARK  5 active torsions:
REMARK  status: ('A' for Active; 'I' for Inactive)
REMARK    1  A    between atoms: C_5  and  C_6 
REMARK    2  A    between atoms: C_9  and  O_10 
REMARK    3  A    between atoms: O_10  and  C_11 
REMARK    4  A    between atoms: C_11  and  C_12 
REMARK       I    between atoms: C_12  and  N_13 
REMARK    5  A    between atoms: N_13  and  C_14 
ROOT
HETATM    1  C   UNL     1      24.317  47.233  49.923  1.00  0.00     0.278 C 
ENDROOT
BRANCH   1   2
HETATM    2  O   UNL     1      24.409  48.400  49.110  1.00  0.00    -0.342 OA
BRANCH   2   3
HETATM    3  C   UNL     1      23.274  49.163  49.022  1.00  0.00     0.069 A 
HETATM    4  C   UNL     1      23.231  50.553  48.894  1.00  0.00     0.038 A 
HETATM    5  C   UNL     1      22.002  51.218  48.813  1.00  0.00     0.018 A 
HETATM    6  C   UNL     1      20.794  50.508  48.858  1.00  0.00     0.015 A 
HETATM    7  C   UNL     1      20.844  49.113  48.984  1.00  0.00     0.018 A 
HETATM    8  C   UNL     1      22.075  48.449  49.064  1.00  0.00     0.038 A 
BRANCH   6   9
HETATM    9  C   UNL     1      19.523  51.215  48.772  1.00  0.00     0.198 A 
HETATM   10  N   UNL     1      18.824  51.349  47.592  1.00  0.00    -0.136 NA
HETATM   11  N   UNL     1      17.725  52.034  47.868  1.00  0.00     0.024 NA
HETATM   12  N   UNL     1      17.805  52.283  49.182  1.00  0.00    -0.196 N 
HETATM   13  C   UNL     1      16.776  52.999  49.885  1.00  0.00     0.200 C 
HETATM   14  N   UNL     1      18.895  51.804  49.807  1.00  0.00    -0.137 NA
ENDBRANCH   6   9
ENDBRANCH   2   3
ENDBRANCH   1   2
BRANCH   1  15
HETATM   15  C   UNL     1      25.581  46.975  50.748  1.00  0.00     0.246 C 
HETATM   16  N   UNL     1      25.621  45.713  51.309  1.00  0.00    -0.325 N 
HETATM   17  H   UNL     1      24.808  45.133  51.121  1.00  0.00     0.169 HD
HETATM   18  O   UNL     1      26.442  47.847  50.837  1.00  0.00    -0.271 OA
BRANCH  16  19
HETATM   19  C   UNL     1      26.641  45.151  52.104  1.00  0.00     0.036 A 
HETATM   20  C   UNL     1      27.547  44.194  51.627  1.00  0.00     0.059 A 
HETATM   21  C   UNL     1      28.521  43.706  52.510  1.00  0.00     0.044 A 
HETATM   22  C   UNL     1      28.624  44.130  53.833  1.00  0.00    -0.008 A 
HETATM   23  N   UNL     1      29.518  42.778  52.302  1.00  0.00    -0.365 N 
HETATM   24  C   UNL     1      27.710  45.090  54.303  1.00  0.00     0.016 A 
HETATM   25  C   UNL     1      29.713  43.426  54.415  1.00  0.00     0.030 A 
HETATM   26  C   UNL     1      26.730  45.589  53.430  1.00  0.00     0.030 A 
HETATM   27  C   UNL     1      30.245  42.601  53.450  1.00  0.00     0.089 A 
HETATM   28  H   UNL     1      29.680  42.302  51.425  1.00  0.00     0.165 HD
ENDBRANCH  16  19
ENDBRANCH   1  15
TORSDOF 5
ENDMDL
MODEL 7
REMARK VINA RESULT:      -8.4      4.253      6.035
REMARK  5 active torsions:
REMARK  status: ('A' for Active; 'I' for Inactive)
REMARK    1  A    between atoms: C_5  and  C_6 
REMARK    2  A    between atoms: C_9  and  O_10 
REMARK    3  A    between atoms: O_10  and  C_11 
REMARK    4  A    between atoms: C_11  and  C_12 
REMARK       I    between atoms: C_12  and  N_13 
REMARK    5  A    between atoms: N_13  and  C_14 
ROOT
HETATM    1  C   UNL     1      25.221  45.590  52.732  1.00  0.00     0.278 C 
ENDROOT
BRANCH   1   2
HETATM    2  O   UNL     1      24.439  44.675  51.967  1.00  0.00    -0.342 OA
BRANCH   2   3
HETATM    3  C   UNL     1      25.132  43.870  51.101  1.00  0.00     0.069 A 
HETATM    4  C   UNL     1      26.283  44.226  50.397  1.00  0.00     0.038 A 
HETATM    5  C   UNL     1      26.899  43.307  49.539  1.00  0.00     0.018 A 
HETATM    6  C   UNL     1      26.379  42.017  49.371  1.00  0.00     0.015 A 
HETATM    7  C   UNL     1      25.225  41.665  50.083  1.00  0.00     0.018 A 
HETATM    8  C   UNL     1      24.609  42.585  50.941  1.00  0.00     0.038 A 
BRANCH   6   9
HETATM    9  C   UNL     1      27.034  41.072  48.474  1.00  0.00     0.198 A 
HETATM   10  N   UNL     1      27.884  41.471  47.466  1.00  0.00    -0.136 NA
HETATM   11  N   UNL     1      28.303  40.373  46.855  1.00  0.00     0.024 NA
HETATM   12  N   UNL     1      27.695  39.373  47.508  1.00  0.00    -0.196 N 
HETATM   13  C   UNL     1      27.908  37.995  47.158  1.00  0.00     0.200 C 
HETATM   14  N   UNL     1      26.893  39.734  48.525  1.00  0.00    -0.137 NA
ENDBRANCH   6   9
ENDBRANCH   2   3
ENDBRANCH   1   2
BRANCH   1  15
HETATM   15  C   UNL     1      26.104  44.899  53.774  1.00  0.00     0.246 C 
HETATM   16  N   UNL     1      27.441  45.234  53.669  1.00  0.00    -0.325 N 
HETATM   17  H   UNL     1      27.665  45.872  52.911  1.00  0.00     0.169 HD
HETATM   18  O   UNL     1      25.598  44.149  54.606  1.00  0.00    -0.271 OA
BRANCH  16  19
HETATM   19  C   UNL     1      28.510  44.794  54.476  1.00  0.00     0.036 A 
HETATM   20  C   UNL     1      28.873  45.418  55.677  1.00  0.00     0.059 A 
HETATM   21  C   UNL     1      29.955  44.891  56.397  1.00  0.00     0.044 A 
HETATM   22  C   UNL     1      30.679  43.780  55.970  1.00  0.00    -0.008 A 
HETATM   23  N   UNL     1      30.510  45.305  57.588  1.00  0.00    -0.365 N 
HETATM   24  C   UNL     1      30.308  43.161  54.763  1.00  0.00     0.016 A 
HETATM   25  C   UNL     1      31.690  43.540  56.941  1.00  0.00     0.030 A 
HETATM   26  C   UNL     1      29.226  43.676  54.032  1.00  0.00     0.030 A 
HETATM   27  C   UNL     1      31.561  44.493  57.926  1.00  0.00     0.089 A 
HETATM   28  H   UNL     1      30.182  46.094  58.127  1.00  0.00     0.165 HD
ENDBRANCH  16  19
ENDBRANCH   1  15
TORSDOF 5
ENDMDL
MODEL 8
REMARK VINA RESULT:      -8.4      2.185     10.479
REMARK  5 active torsions:
REMARK  status: ('A' for Active; 'I' for Inactive)
REMARK    1  A    between atoms: C_5  and  C_6 
REMARK    2  A    between atoms: C_9  and  O_10 
REMARK    3  A    between atoms: O_10  and  C_11 
REMARK    4  A    between atoms: C_11  and  C_12 
REMARK       I    between atoms: C_12  and  N_13 
REMARK    5  A    between atoms: N_13  and  C_14 
ROOT
HETATM    1  C   UNL     1      24.740  47.162  50.206  1.00  0.00     0.278 C 
ENDROOT
BRANCH   1   2
HETATM    2  O   UNL     1      24.543  46.159  51.199  1.00  0.00    -0.342 OA
BRANCH   2   3
HETATM    3  C   UNL     1      25.495  46.090  52.182  1.00  0.00     0.069 A 
HETATM    4  C   UNL     1      25.884  47.139  53.017  1.00  0.00     0.038 A 
HETATM    5  C   UNL     1      26.874  46.940  53.988  1.00  0.00     0.018 A 
HETATM    6  C   UNL     1      27.490  45.691  54.142  1.00  0.00     0.015 A 
HETATM    7  C   UNL     1      27.093  44.642  53.303  1.00  0.00     0.018 A 
HETATM    8  C   UNL     1      26.103  44.842  52.333  1.00  0.00     0.038 A 
BRANCH   6   9
HETATM    9  C   UNL     1      28.518  45.501  55.158  1.00  0.00     0.198 A 
HETATM   10  N   UNL     1      29.538  44.584  55.022  1.00  0.00    -0.136 NA
HETATM   11  N   UNL     1      30.287  44.674  56.111  1.00  0.00     0.024 NA
HETATM   12  N   UNL     1      29.696  45.624  56.848  1.00  0.00    -0.196 N 
HETATM   13  C   UNL     1      30.225  46.041  58.118  1.00  0.00     0.200 C 
HETATM   14  N   UNL     1      28.593  46.181  56.317  1.00  0.00    -0.137 NA
ENDBRANCH   6   9
ENDBRANCH   2   3
ENDBRANCH   1   2
BRANCH   1  15
HETATM   15  C   UNL     1      23.432  47.642  49.571  1.00  0.00     0.246 C 
HETATM   16  N   UNL     1      23.203  48.995  49.744  1.00  0.00    -0.325 N 
HETATM   17  H   UNL     1      23.913  49.485  50.280  1.00  0.00     0.169 HD
HETATM   18  O   UNL     1      22.718  46.849  48.963  1.00  0.00    -0.271 OA
BRANCH  16  19
HETATM   19  C   UNL     1      22.112  49.755  49.274  1.00  0.00     0.036 A 
HETATM   20  C   UNL     1      21.205  50.403  50.122  1.00  0.00     0.059 A 
HETATM   21  C   UNL     1      20.157  51.132  49.540  1.00  0.00     0.044 A 
HETATM   22  C   UNL     1      19.984  51.236  48.162  1.00  0.00    -0.008 A 
HETATM   23  N   UNL     1      19.145  51.852  50.134  1.00  0.00    -0.365 N 
HETATM   24  C   UNL     1      20.898  50.581  47.318  1.00  0.00     0.016 A 
HETATM   25  C   UNL     1      18.831  52.041  47.945  1.00  0.00     0.030 A 
HETATM   26  C   UNL     1      21.953  49.849  47.887  1.00  0.00     0.030 A 
HETATM   27  C   UNL     1      18.337  52.407  49.176  1.00  0.00     0.089 A 
HETATM   28  H   UNL     1      19.025  51.951  51.132  1.00  0.00     0.165 HD
ENDBRANCH  16  19
ENDBRANCH   1  15
TORSDOF 5
ENDMDL
MODEL 9
REMARK VINA RESULT:      -8.4      3.530      5.525
REMARK  5 active torsions:
REMARK  status: ('A' for Active; 'I' for Inactive)
REMARK    1  A    between atoms: C_5  and  C_6 
REMARK    2  A    between atoms: C_9  and  O_10 
REMARK    3  A    between atoms: O_10  and  C_11 
REMARK    4  A    between atoms: C_11  and  C_12 
REMARK       I    between atoms: C_12  and  N_13 
REMARK    5  A    between atoms: N_13  and  C_14 
ROOT
HETATM    1  C   UNL     1      23.383  47.724  49.199  1.00  0.00     0.278 C 
ENDROOT
BRANCH   1   2
HETATM    2  O   UNL     1      23.139  49.041  48.713  1.00  0.00    -0.342 OA
BRANCH   2   3
HETATM    3  C   UNL     1      21.864  49.517  48.879  1.00  0.00     0.069 A 
HETATM    4  C   UNL     1      20.753  48.764  49.261  1.00  0.00     0.038 A 
HETATM    5  C   UNL     1      19.499  49.371  49.396  1.00  0.00     0.018 A 
HETATM    6  C   UNL     1      19.332  50.741  49.152  1.00  0.00     0.015 A 
HETATM    7  C   UNL     1      20.452  51.492  48.772  1.00  0.00     0.018 A 
HETATM    8  C   UNL     1      21.706  50.884  48.637  1.00  0.00     0.038 A 
BRANCH   6   9
HETATM    9  C   UNL     1      18.020  51.358  49.299  1.00  0.00     0.198 A 
HETATM   10  N   UNL     1      16.866  50.774  48.821  1.00  0.00    -0.136 NA
HETATM   11  N   UNL     1      15.866  51.587  49.124  1.00  0.00     0.024 NA
HETATM   12  N   UNL     1      16.449  52.614  49.759  1.00  0.00    -0.196 N 
HETATM   13  C   UNL     1      15.688  53.718  50.278  1.00  0.00     0.200 C 
HETATM   14  N   UNL     1      17.783  52.537  49.903  1.00  0.00    -0.137 NA
ENDBRANCH   6   9
ENDBRANCH   2   3
ENDBRANCH   1   2
BRANCH   1  15
HETATM   15  C   UNL     1      24.620  47.635  50.096  1.00  0.00     0.246 C 
HETATM   16  N   UNL     1      24.513  46.675  51.085  1.00  0.00    -0.325 N 
HETATM   17  H   UNL     1      23.631  46.172  51.101  1.00  0.00     0.169 HD
HETATM   18  O   UNL     1      25.585  48.365  49.882  1.00  0.00    -0.271 OA
BRANCH  16  19
HETATM   19  C   UNL     1      25.471  46.325  52.059  1.00  0.00     0.036 A 
HETATM   20  C   UNL     1      25.762  47.124  53.172  1.00  0.00     0.059 A 
HETATM   21  C   UNL     1      26.736  46.673  54.076  1.00  0.00     0.044 A 
HETATM   22  C   UNL     1      27.420  45.472  53.912  1.00  0.00    -0.008 A 
HETATM   23  N   UNL     1      27.204  47.255  55.233  1.00  0.00    -0.365 N 
HETATM   24  C   UNL     1      27.123  44.676  52.791  1.00  0.00     0.016 A 
HETATM   25  C   UNL     1      28.319  45.349  55.008  1.00  0.00     0.030 A 
HETATM   26  C   UNL     1      26.149  45.114  51.879  1.00  0.00     0.030 A 
HETATM   27  C   UNL     1      28.163  46.460  55.805  1.00  0.00     0.089 A 
HETATM   28  H   UNL     1      26.881  48.139  55.599  1.00  0.00     0.165 HD
ENDBRANCH  16  19
ENDBRANCH   1  15
TORSDOF 5
ENDMDL
MODEL 10
REMARK VINA RESULT:      -8.2      2.504     10.670
REMARK  5 active torsions:
REMARK  status: ('A' for Active; 'I' for Inactive)
REMARK    1  A    between atoms: C_5  and  C_6 
REMARK    2  A    between atoms: C_9  and  O_10 
REMARK    3  A    between atoms: O_10  and  C_11 
REMARK    4  A    between atoms: C_11  and  C_12 
REMARK       I    between atoms: C_12  and  N_13 
REMARK    5  A    between atoms: N_13  and  C_14 
ROOT
HETATM    1  C   UNL     1      23.480  46.944  49.261  1.00  0.00     0.278 C 
ENDROOT
BRANCH   1   2
HETATM    2  O   UNL     1      24.856  47.278  49.419  1.00  0.00    -0.342 OA
BRANCH   2   3
HETATM    3  C   UNL     1      25.602  46.412  50.176  1.00  0.00     0.069 A 
HETATM    4  C   UNL     1      26.485  45.449  49.685  1.00  0.00     0.038 A 
HETATM    5  C   UNL     1      27.191  44.622  50.566  1.00  0.00     0.018 A 
HETATM    6  C   UNL     1      27.030  44.743  51.953  1.00  0.00     0.015 A 
HETATM    7  C   UNL     1      26.146  45.714  52.440  1.00  0.00     0.018 A 
HETATM    8  C   UNL     1      25.440  46.541  51.557  1.00  0.00     0.038 A 
BRANCH   6   9
HETATM    9  C   UNL     1      27.775  43.875  52.857  1.00  0.00     0.198 A 
HETATM   10  N   UNL     1      27.499  42.531  52.993  1.00  0.00    -0.136 NA
HETATM   11  N   UNL     1      28.356  42.048  53.879  1.00  0.00     0.024 NA
HETATM   12  N   UNL     1      29.099  43.104  54.238  1.00  0.00    -0.196 N 
HETATM   13  C   UNL     1      30.175  42.990  55.185  1.00  0.00     0.200 C 
HETATM   14  N   UNL     1      28.794  44.269  53.643  1.00  0.00    -0.137 NA
ENDBRANCH   6   9
ENDBRANCH   2   3
ENDBRANCH   1   2
BRANCH   1  15
HETATM   15  C   UNL     1      22.641  48.101  48.712  1.00  0.00     0.246 C 
HETATM   16  N   UNL     1      21.702  48.572  49.611  1.00  0.00    -0.325 N 
HETATM   17  H   UNL     1      21.677  48.084  50.501  1.00  0.00     0.169 HD
HETATM   18  O   UNL     1      22.854  48.529  47.581  1.00  0.00    -0.271 OA
BRANCH  16  19
HETATM   19  C   UNL     1      20.789  49.632  49.433  1.00  0.00     0.036 A 
HETATM   20  C   UNL     1      19.471  49.597  49.906  1.00  0.00     0.059 A 
HETATM   21  C   UNL     1      18.652  50.711  49.669  1.00  0.00     0.044 A 
HETATM   22  C   UNL     1      19.093  51.842  48.986  1.00  0.00    -0.008 A 
HETATM   23  N   UNL     1      17.339  50.935  50.022  1.00  0.00    -0.365 N 
HETATM   24  C   UNL     1      20.417  51.867  48.513  1.00  0.00     0.016 A 
HETATM   25  C   UNL     1      18.002  52.753  48.937  1.00  0.00     0.030 A 
HETATM   26  C   UNL     1      21.249  50.760  48.745  1.00  0.00     0.030 A 
HETATM   27  C   UNL     1      16.937  52.169  49.583  1.00  0.00     0.089 A 
HETATM   28  H   UNL     1      16.765  50.277  50.531  1.00  0.00     0.165 HD
ENDBRANCH  16  19
ENDBRANCH   1  15
TORSDOF 5
ENDMDL
