MODEL 1
REMARK VINA RESULT:      -8.6      0.000      0.000
REMARK  8 active torsions:
REMARK  status: ('A' for Active; 'I' for Inactive)
REMARK    1  A    between atoms: C_2  and  C_3 
REMARK    2  A    between atoms: C_3  and  N_4 
REMARK    3  A    between atoms: C_7  and  C_8 
REMARK       I    between atoms: C_8  and  N_9 
REMARK    4  A    between atoms: N_9  and  N_10 
REMARK       I    between atoms: N_10  and  C_11 
REMARK    5  A    between atoms: C_11  and  C_12 
REMARK    6  A    between atoms: C_12  and  O_13 
REMARK    7  A    between atoms: O_13  and  C_14 
REMARK    8  A    between atoms: C_23  and  C_24 
ROOT
HETATM    1  C   UNL     1      26.019  44.896  52.138  1.00  0.00     0.273 C 
HETATM    2  N   UNL     1      26.313  45.544  50.954  1.00  0.00    -0.263 N 
HETATM    3  O   UNL     1      24.874  44.613  52.481  1.00  0.00    -0.266 OA
HETATM    4  H   UNL     1      27.221  45.991  50.831  1.00  0.00     0.190 HD
ENDROOT
BRANCH   2   5
HETATM    5  N   UNL     1      25.252  46.088  50.212  1.00  0.00    -0.265 N 
HETATM    6  C   UNL     1      25.149  47.464  50.155  1.00  0.00     0.260 C 
HETATM    7  O   UNL     1      26.032  48.214  50.572  1.00  0.00    -0.269 OA
HETATM    8  H   UNL     1      24.403  45.524  50.138  1.00  0.00     0.190 HD
BRANCH   6   9
HETATM    9  C   UNL     1      23.867  47.984  49.511  1.00  0.00     0.280 C 
BRANCH   9  10
HETATM   10  O   UNL     1      23.904  49.397  49.333  1.00  0.00    -0.342 OA
BRANCH  10  11
HETATM   11  C   UNL     1      22.699  50.022  49.155  1.00  0.00     0.069 A 
HETATM   12  C   UNL     1      22.228  50.026  47.841  1.00  0.00     0.037 A 
HETATM   13  C   UNL     1      21.016  50.643  47.520  1.00  0.00     0.009 A 
HETATM   14  C   UNL     1      20.254  51.263  48.516  1.00  0.00    -0.062 A 
HETATM   15  C   UNL     1      18.951  51.931  48.191  1.00  0.00     0.048 C 
HETATM   16  C   UNL     1      20.720  51.241  49.835  1.00  0.00     0.009 A 
HETATM   17  C   UNL     1      21.934  50.623  50.155  1.00  0.00     0.037 A 
ENDBRANCH  10  11
ENDBRANCH   9  10
ENDBRANCH   6   9
ENDBRANCH   2   5
BRANCH   1  18
HETATM   18  C   UNL     1      27.198  44.554  52.900  1.00  0.00     0.077 A 
HETATM   19  C   UNL     1      28.145  43.575  52.530  1.00  0.00     0.158 A 
HETATM   20  N   UNL     1      29.143  43.462  53.401  1.00  0.00    -0.183 NA
HETATM   21  N   UNL     1      28.841  44.361  54.360  1.00  0.00    -0.268 N 
HETATM   22  C   UNL     1      27.683  45.068  54.094  1.00  0.00     0.052 A 
BRANCH  21  23
HETATM   23  C   UNL     1      29.706  44.477  55.534  1.00  0.00     0.106 C 
HETATM   24  C   UNL     1      30.431  45.827  55.630  1.00  0.00     0.034 C 
BRANCH  23  25
HETATM   25  C   UNL     1      30.674  43.283  55.652  1.00  0.00     0.022 C 
HETATM   26  C   UNL     1      31.529  43.267  56.914  1.00  0.00     0.007 C 
ENDBRANCH  23  25
ENDBRANCH  21  23
BRANCH  22  27
HETATM   27  C   UNL     1      27.131  46.186  54.979  1.00  0.00     0.038 A 
HETATM   28  C   UNL     1      27.614  47.607  54.784  1.00  0.00     0.011 A 
HETATM   29  C   UNL     1      26.218  47.244  54.408  1.00  0.00     0.011 A 
ENDBRANCH  22  27
ENDBRANCH   1  18
TORSDOF 8
ENDMDL
MODEL 2
REMARK VINA RESULT:      -8.6      1.986      2.975
REMARK  8 active torsions:
REMARK  status: ('A' for Active; 'I' for Inactive)
REMARK    1  A    between atoms: C_2  and  C_3 
REMARK    2  A    between atoms: C_3  and  N_4 
REMARK    3  A    between atoms: C_7  and  C_8 
REMARK       I    between atoms: C_8  and  N_9 
REMARK    4  A    between atoms: N_9  and  N_10 
REMARK       I    between atoms: N_10  and  C_11 
REMARK    5  A    between atoms: C_11  and  C_12 
REMARK    6  A    between atoms: C_12  and  O_13 
REMARK    7  A    between atoms: O_13  and  C_14 
REMARK    8  A    between atoms: C_23  and  C_24 
ROOT
HETATM    1  C   UNL     1      25.487  47.129  50.474  1.00  0.00     0.273 C 
HETATM    2  N   UNL     1      24.123  46.911  50.435  1.00  0.00    -0.263 N 
HETATM    3  O   UNL     1      26.001  48.214  50.217  1.00  0.00    -0.266 OA
HETATM    4  H   UNL     1      23.761  45.959  50.391  1.00  0.00     0.190 HD
ENDROOT
BRANCH   2   5
HETATM    5  N   UNL     1      23.307  47.908  49.877  1.00  0.00    -0.265 N 
HETATM    6  C   UNL     1      22.681  47.628  48.678  1.00  0.00     0.260 C 
HETATM    7  O   UNL     1      22.671  46.502  48.182  1.00  0.00    -0.269 OA
HETATM    8  H   UNL     1      23.545  48.877  50.097  1.00  0.00     0.190 HD
BRANCH   6   9
HETATM    9  C   UNL     1      21.979  48.818  48.028  1.00  0.00     0.280 C 
BRANCH   9  10
HETATM   10  O   UNL     1      21.962  49.952  48.889  1.00  0.00    -0.342 OA
BRANCH  10  11
HETATM   11  C   UNL     1      20.735  50.495  49.159  1.00  0.00     0.069 A 
HETATM   12  C   UNL     1      20.440  51.661  48.451  1.00  0.00     0.037 A 
HETATM   13  C   UNL     1      19.225  52.325  48.643  1.00  0.00     0.009 A 
HETATM   14  C   UNL     1      18.284  51.825  49.547  1.00  0.00    -0.062 A 
HETATM   15  C   UNL     1      16.975  52.522  49.768  1.00  0.00     0.048 C 
HETATM   16  C   UNL     1      18.574  50.645  50.242  1.00  0.00     0.009 A 
HETATM   17  C   UNL     1      19.791  49.982  50.048  1.00  0.00     0.037 A 
ENDBRANCH  10  11
ENDBRANCH   9  10
ENDBRANCH   6   9
ENDBRANCH   2   5
BRANCH   1  18
HETATM   18  C   UNL     1      26.231  45.961  50.886  1.00  0.00     0.077 A 
HETATM   19  C   UNL     1      26.904  45.080  50.012  1.00  0.00     0.158 A 
HETATM   20  N   UNL     1      27.520  44.087  50.647  1.00  0.00    -0.183 NA
HETATM   21  N   UNL     1      27.237  44.307  51.947  1.00  0.00    -0.268 N 
HETATM   22  C   UNL     1      26.477  45.445  52.150  1.00  0.00     0.052 A 
BRANCH  21  23
HETATM   23  C   UNL     1      27.713  43.362  52.957  1.00  0.00     0.106 C 
HETATM   24  C   UNL     1      29.092  43.720  53.529  1.00  0.00     0.034 C 
BRANCH  23  25
HETATM   25  C   UNL     1      27.649  41.906  52.454  1.00  0.00     0.022 C 
HETATM   26  C   UNL     1      28.665  40.960  53.082  1.00  0.00     0.007 C 
ENDBRANCH  23  25
ENDBRANCH  21  23
BRANCH  22  27
HETATM   27  C   UNL     1      26.055  45.967  53.524  1.00  0.00     0.038 A 
HETATM   28  C   UNL     1      27.039  46.747  54.368  1.00  0.00     0.011 A 
HETATM   29  C   UNL     1      25.869  47.446  53.764  1.00  0.00     0.011 A 
ENDBRANCH  22  27
ENDBRANCH   1  18
TORSDOF 8
ENDMDL
MODEL 3
REMARK VINA RESULT:      -8.5      1.474      2.371
REMARK  8 active torsions:
REMARK  status: ('A' for Active; 'I' for Inactive)
REMARK    1  A    between atoms: C_2  and  C_3 
REMARK    2  A    between atoms: C_3  and  N_4 
REMARK    3  A    between atoms: C_7  and  C_8 
REMARK       I    between atoms: C_8  and  N_9 
REMARK    4  A    between atoms: N_9  and  N_10 
REMARK       I    between atoms: N_10  and  C_11 
REMARK    5  A    between atoms: C_11  and  C_12 
REMARK    6  A    between atoms: C_12  and  O_13 
REMARK    7  A    between atoms: O_13  and  C_14 
REMARK    8  A    between atoms: C_23  and  C_24 
ROOT
HETATM    1  C   UNL     1      25.464  45.478  52.551  1.00  0.00     0.273 C 
HETATM    2  N   UNL     1      25.787  46.129  51.376  1.00  0.00    -0.263 N 
HETATM    3  O   UNL     1      24.532  44.684  52.642  1.00  0.00    -0.266 OA
HETATM    4  H   UNL     1      26.379  46.959  51.402  1.00  0.00     0.190 HD
ENDROOT
BRANCH   2   5
HETATM    5  N   UNL     1      24.890  46.045  50.300  1.00  0.00    -0.265 N 
HETATM    6  C   UNL     1      24.192  47.185  49.955  1.00  0.00     0.260 C 
HETATM    7  O   UNL     1      24.451  48.291  50.430  1.00  0.00    -0.269 OA
HETATM    8  H   UNL     1      24.465  45.132  50.123  1.00  0.00     0.190 HD
BRANCH   6   9
HETATM    9  C   UNL     1      23.091  46.975  48.920  1.00  0.00     0.280 C 
BRANCH   9  10
HETATM   10  O   UNL     1      23.078  48.015  47.947  1.00  0.00    -0.342 OA
BRANCH  10  11
HETATM   11  C   UNL     1      22.100  48.964  48.080  1.00  0.00     0.069 A 
HETATM   12  C   UNL     1      22.564  50.277  48.175  1.00  0.00     0.037 A 
HETATM   13  C   UNL     1      21.670  51.340  48.328  1.00  0.00     0.009 A 
HETATM   14  C   UNL     1      20.293  51.102  48.385  1.00  0.00    -0.062 A 
HETATM   15  C   UNL     1      19.318  52.229  48.550  1.00  0.00     0.048 C 
HETATM   16  C   UNL     1      19.830  49.786  48.270  1.00  0.00     0.009 A 
HETATM   17  C   UNL     1      20.727  48.723  48.117  1.00  0.00     0.037 A 
ENDBRANCH  10  11
ENDBRANCH   9  10
ENDBRANCH   6   9
ENDBRANCH   2   5
BRANCH   1  18
HETATM   18  C   UNL     1      26.362  45.798  53.637  1.00  0.00     0.077 A 
HETATM   19  C   UNL     1      26.624  47.101  54.112  1.00  0.00     0.158 A 
HETATM   20  N   UNL     1      27.483  47.121  55.127  1.00  0.00    -0.183 NA
HETATM   21  N   UNL     1      27.800  45.823  55.310  1.00  0.00    -0.268 N 
HETATM   22  C   UNL     1      27.130  44.975  54.448  1.00  0.00     0.052 A 
BRANCH  21  23
HETATM   23  C   UNL     1      28.785  45.462  56.330  1.00  0.00     0.106 C 
HETATM   24  C   UNL     1      28.653  46.275  57.625  1.00  0.00     0.034 C 
BRANCH  23  25
HETATM   25  C   UNL     1      30.221  45.481  55.771  1.00  0.00     0.022 C 
HETATM   26  C   UNL     1      31.100  44.315  56.207  1.00  0.00     0.007 C 
ENDBRANCH  23  25
ENDBRANCH  21  23
BRANCH  22  27
HETATM   27  C   UNL     1      27.254  43.451  54.466  1.00  0.00     0.038 A 
HETATM   28  C   UNL     1      27.420  42.694  53.167  1.00  0.00     0.011 A 
HETATM   29  C   UNL     1      28.562  42.778  54.122  1.00  0.00     0.011 A 
ENDBRANCH  22  27
ENDBRANCH   1  18
TORSDOF 8
ENDMDL
MODEL 4
REMARK VINA RESULT:      -8.4      2.177     10.361
REMARK  8 active torsions:
REMARK  status: ('A' for Active; 'I' for Inactive)
REMARK    1  A    between atoms: C_2  and  C_3 
REMARK    2  A    between atoms: C_3  and  N_4 
REMARK    3  A    between atoms: C_7  and  C_8 
REMARK       I    between atoms: C_8  and  N_9 
REMARK    4  A    between atoms: N_9  and  N_10 
REMARK       I    between atoms: N_10  and  C_11 
REMARK    5  A    between atoms: C_11  and  C_12 
REMARK    6  A    between atoms: C_12  and  O_13 
REMARK    7  A    between atoms: O_13  and  C_14 
REMARK    8  A    between atoms: C_23  and  C_24 
ROOT
HETATM    1  C   UNL     1      24.187  47.601  49.861  1.00  0.00     0.273 C 
HETATM    2  N   UNL     1      24.385  46.442  50.586  1.00  0.00    -0.263 N 
HETATM    3  O   UNL     1      25.028  48.491  49.777  1.00  0.00    -0.266 OA
HETATM    4  H   UNL     1      23.587  45.864  50.848  1.00  0.00     0.190 HD
ENDROOT
BRANCH   2   5
HETATM    5  N   UNL     1      25.504  46.369  51.430  1.00  0.00    -0.265 N 
HETATM    6  C   UNL     1      25.464  45.462  52.471  1.00  0.00     0.260 C 
HETATM    7  O   UNL     1      24.580  44.612  52.577  1.00  0.00    -0.269 OA
HETATM    8  H   UNL     1      26.059  47.220  51.536  1.00  0.00     0.190 HD
BRANCH   6   9
HETATM    9  C   UNL     1      26.616  45.576  53.466  1.00  0.00     0.280 C 
BRANCH   9  10
HETATM   10  O   UNL     1      27.675  44.678  53.149  1.00  0.00    -0.342 OA
BRANCH  10  11
HETATM   11  C   UNL     1      28.639  44.509  54.107  1.00  0.00     0.069 A 
HETATM   12  C   UNL     1      29.396  43.343  53.979  1.00  0.00     0.037 A 
HETATM   13  C   UNL     1      30.403  43.042  54.899  1.00  0.00     0.009 A 
HETATM   14  C   UNL     1      30.670  43.911  55.962  1.00  0.00    -0.062 A 
HETATM   15  C   UNL     1      31.747  43.605  56.961  1.00  0.00     0.048 C 
HETATM   16  C   UNL     1      29.922  45.088  56.077  1.00  0.00     0.009 A 
HETATM   17  C   UNL     1      28.914  45.388  55.155  1.00  0.00     0.037 A 
ENDBRANCH  10  11
ENDBRANCH   9  10
ENDBRANCH   6   9
ENDBRANCH   2   5
BRANCH   1  18
HETATM   18  C   UNL     1      22.910  47.631  49.186  1.00  0.00     0.077 A 
HETATM   19  C   UNL     1      22.292  46.519  48.574  1.00  0.00     0.158 A 
HETATM   20  N   UNL     1      21.115  46.812  48.030  1.00  0.00    -0.183 NA
HETATM   21  N   UNL     1      20.965  48.131  48.271  1.00  0.00    -0.268 N 
HETATM   22  C   UNL     1      22.015  48.673  48.989  1.00  0.00     0.052 A 
BRANCH  21  23
HETATM   23  C   UNL     1      19.785  48.826  47.756  1.00  0.00     0.106 C 
HETATM   24  C   UNL     1      18.636  48.917  48.770  1.00  0.00     0.034 C 
BRANCH  23  25
HETATM   25  C   UNL     1      19.325  48.249  46.402  1.00  0.00     0.022 C 
HETATM   26  C   UNL     1      17.910  47.684  46.388  1.00  0.00     0.007 C 
ENDBRANCH  23  25
ENDBRANCH  21  23
BRANCH  22  27
HETATM   27  C   UNL     1      22.085  50.129  49.450  1.00  0.00     0.038 A 
HETATM   28  C   UNL     1      23.031  51.091  48.765  1.00  0.00     0.011 A 
HETATM   29  C   UNL     1      21.560  51.242  48.575  1.00  0.00     0.011 A 
ENDBRANCH  22  27
ENDBRANCH   1  18
TORSDOF 8
ENDMDL
MODEL 5
REMARK VINA RESULT:      -8.3      1.246      2.361
REMARK  8 active torsions:
REMARK  status: ('A' for Active; 'I' for Inactive)
REMARK    1  A    between atoms: C_2  and  C_3 
REMARK    2  A    between atoms: C_3  and  N_4 
REMARK    3  A    between atoms: C_7  and  C_8 
REMARK       I    between atoms: C_8  and  N_9 
REMARK    4  A    between atoms: N_9  and  N_10 
REMARK       I    between atoms: N_10  and  C_11 
REMARK    5  A    between atoms: C_11  and  C_12 
REMARK    6  A    between atoms: C_12  and  O_13 
REMARK    7  A    between atoms: O_13  and  C_14 
REMARK    8  A    between atoms: C_23  and  C_24 
ROOT
HETATM    1  C   UNL     1      25.132  45.552  52.171  1.00  0.00     0.273 C 
HETATM    2  N   UNL     1      25.301  46.803  51.610  1.00  0.00    -0.263 N 
HETATM    3  O   UNL     1      24.178  44.824  51.910  1.00  0.00    -0.266 OA
HETATM    4  H   UNL     1      25.940  47.471  52.040  1.00  0.00     0.190 HD
ENDROOT
BRANCH   2   5
HETATM    5  N   UNL     1      24.237  47.352  50.876  1.00  0.00    -0.265 N 
HETATM    6  C   UNL     1      24.538  47.980  49.684  1.00  0.00     0.260 C 
HETATM    7  O   UNL     1      25.654  47.923  49.166  1.00  0.00    -0.269 OA
HETATM    8  H   UNL     1      23.421  47.662  51.407  1.00  0.00     0.190 HD
BRANCH   6   9
HETATM    9  C   UNL     1      23.374  48.730  49.042  1.00  0.00     0.280 C 
BRANCH   9  10
HETATM   10  O   UNL     1      22.869  49.750  49.899  1.00  0.00    -0.342 OA
BRANCH  10  11
HETATM   11  C   UNL     1      21.714  50.366  49.499  1.00  0.00     0.069 A 
HETATM   12  C   UNL     1      21.467  50.317  48.126  1.00  0.00     0.037 A 
HETATM   13  C   UNL     1      20.329  50.920  47.584  1.00  0.00     0.009 A 
HETATM   14  C   UNL     1      19.416  51.579  48.414  1.00  0.00    -0.062 A 
HETATM   15  C   UNL     1      18.190  52.233  47.851  1.00  0.00     0.048 C 
HETATM   16  C   UNL     1      19.657  51.610  49.792  1.00  0.00     0.009 A 
HETATM   17  C   UNL     1      20.797  51.006  50.333  1.00  0.00     0.037 A 
ENDBRANCH  10  11
ENDBRANCH   9  10
ENDBRANCH   6   9
ENDBRANCH   2   5
BRANCH   1  18
HETATM   18  C   UNL     1      26.211  45.182  53.057  1.00  0.00     0.077 A 
HETATM   19  C   UNL     1      26.262  45.477  54.437  1.00  0.00     0.158 A 
HETATM   20  N   UNL     1      27.362  45.017  55.026  1.00  0.00    -0.183 NA
HETATM   21  N   UNL     1      28.047  44.430  54.024  1.00  0.00    -0.268 N 
HETATM   22  C   UNL     1      27.383  44.481  52.812  1.00  0.00     0.052 A 
BRANCH  21  23
HETATM   23  C   UNL     1      29.363  43.851  54.295  1.00  0.00     0.106 C 
HETATM   24  C   UNL     1      29.367  42.316  54.302  1.00  0.00     0.034 C 
BRANCH  23  25
HETATM   25  C   UNL     1      29.997  44.443  55.569  1.00  0.00     0.022 C 
HETATM   26  C   UNL     1      31.029  43.552  56.250  1.00  0.00     0.007 C 
ENDBRANCH  23  25
ENDBRANCH  21  23
BRANCH  22  27
HETATM   27  C   UNL     1      27.898  43.850  51.518  1.00  0.00     0.038 A 
HETATM   28  C   UNL     1      27.220  42.617  50.961  1.00  0.00     0.011 A 
HETATM   29  C   UNL     1      27.085  43.919  50.248  1.00  0.00     0.011 A 
ENDBRANCH  22  27
ENDBRANCH   1  18
TORSDOF 8
ENDMDL
MODEL 6
REMARK VINA RESULT:      -8.2      2.528     10.324
REMARK  8 active torsions:
REMARK  status: ('A' for Active; 'I' for Inactive)
REMARK    1  A    between atoms: C_2  and  C_3 
REMARK    2  A    between atoms: C_3  and  N_4 
REMARK    3  A    between atoms: C_7  and  C_8 
REMARK       I    between atoms: C_8  and  N_9 
REMARK    4  A    between atoms: N_9  and  N_10 
REMARK       I    between atoms: N_10  and  C_11 
REMARK    5  A    between atoms: C_11  and  C_12 
REMARK    6  A    between atoms: C_12  and  O_13 
REMARK    7  A    between atoms: O_13  and  C_14 
REMARK    8  A    between atoms: C_23  and  C_24 
ROOT
HETATM    1  C   UNL     1      22.336  46.955  48.458  1.00  0.00     0.273 C 
HETATM    2  N   UNL     1      23.058  46.990  49.636  1.00  0.00    -0.263 N 
HETATM    3  O   UNL     1      22.532  46.123  47.577  1.00  0.00    -0.266 OA
HETATM    4  H   UNL     1      23.054  47.833  50.209  1.00  0.00     0.190 HD
ENDROOT
BRANCH   2   5
HETATM    5  N   UNL     1      24.197  46.177  49.742  1.00  0.00    -0.265 N 
HETATM    6  C   UNL     1      25.182  46.566  50.628  1.00  0.00     0.260 C 
HETATM    7  O   UNL     1      25.024  47.480  51.437  1.00  0.00    -0.269 OA
HETATM    8  H   UNL     1      24.460  45.640  48.913  1.00  0.00     0.190 HD
BRANCH   6   9
HETATM    9  C   UNL     1      26.474  45.758  50.546  1.00  0.00     0.280 C 
BRANCH   9  10
HETATM   10  O   UNL     1      26.376  44.533  51.266  1.00  0.00    -0.342 OA
BRANCH  10  11
HETATM   11  C   UNL     1      27.297  44.333  52.258  1.00  0.00     0.069 A 
HETATM   12  C   UNL     1      28.333  43.457  51.930  1.00  0.00     0.037 A 
HETATM   13  C   UNL     1      29.333  43.155  52.858  1.00  0.00     0.009 A 
HETATM   14  C   UNL     1      29.312  43.731  54.131  1.00  0.00    -0.062 A 
HETATM   15  C   UNL     1      30.376  43.419  55.141  1.00  0.00     0.048 C 
HETATM   16  C   UNL     1      28.283  44.624  54.452  1.00  0.00     0.009 A 
HETATM   17  C   UNL     1      27.282  44.926  53.521  1.00  0.00     0.037 A 
ENDBRANCH  10  11
ENDBRANCH   9  10
ENDBRANCH   6   9
ENDBRANCH   2   5
BRANCH   1  18
HETATM   18  C   UNL     1      21.310  47.970  48.397  1.00  0.00     0.077 A 
HETATM   19  C   UNL     1      19.959  47.777  48.758  1.00  0.00     0.158 A 
HETATM   20  N   UNL     1      19.221  48.874  48.617  1.00  0.00    -0.183 NA
HETATM   21  N   UNL     1      20.090  49.792  48.144  1.00  0.00    -0.268 N 
HETATM   22  C   UNL     1      21.376  49.302  48.014  1.00  0.00     0.052 A 
BRANCH  21  23
HETATM   23  C   UNL     1      19.608  51.132  47.811  1.00  0.00     0.106 C 
HETATM   24  C   UNL     1      19.345  52.012  49.041  1.00  0.00     0.034 C 
BRANCH  23  25
HETATM   25  C   UNL     1      18.400  51.086  46.856  1.00  0.00     0.022 C 
HETATM   26  C   UNL     1      18.692  50.521  45.471  1.00  0.00     0.007 C 
ENDBRANCH  23  25
ENDBRANCH  21  23
BRANCH  22  27
HETATM   27  C   UNL     1      22.574  50.134  47.553  1.00  0.00     0.038 A 
HETATM   28  C   UNL     1      23.152  51.191  48.468  1.00  0.00     0.011 A 
HETATM   29  C   UNL     1      23.931  49.951  48.189  1.00  0.00     0.011 A 
ENDBRANCH  22  27
ENDBRANCH   1  18
TORSDOF 8
ENDMDL
MODEL 7
REMARK VINA RESULT:      -8.1      2.965     10.758
REMARK  8 active torsions:
REMARK  status: ('A' for Active; 'I' for Inactive)
REMARK    1  A    between atoms: C_2  and  C_3 
REMARK    2  A    between atoms: C_3  and  N_4 
REMARK    3  A    between atoms: C_7  and  C_8 
REMARK       I    between atoms: C_8  and  N_9 
REMARK    4  A    between atoms: N_9  and  N_10 
REMARK       I    between atoms: N_10  and  C_11 
REMARK    5  A    between atoms: C_11  and  C_12 
REMARK    6  A    between atoms: C_12  and  O_13 
REMARK    7  A    between atoms: O_13  and  C_14 
REMARK    8  A    between atoms: C_23  and  C_24 
ROOT
HETATM    1  C   UNL     1      22.006  48.793  48.181  1.00  0.00     0.273 C 
HETATM    2  N   UNL     1      22.181  48.155  49.394  1.00  0.00    -0.263 N 
HETATM    3  O   UNL     1      22.939  49.235  47.516  1.00  0.00    -0.266 OA
HETATM    4  H   UNL     1      21.391  48.045  50.029  1.00  0.00     0.190 HD
ENDROOT
BRANCH   2   5
HETATM    5  N   UNL     1      23.451  48.199  49.992  1.00  0.00    -0.265 N 
HETATM    6  C   UNL     1      24.182  47.028  50.030  1.00  0.00     0.260 C 
HETATM    7  O   UNL     1      23.846  46.016  49.416  1.00  0.00    -0.269 OA
HETATM    8  H   UNL     1      23.591  48.894  50.728  1.00  0.00     0.190 HD
BRANCH   6   9
HETATM    9  C   UNL     1      25.455  47.094  50.869  1.00  0.00     0.280 C 
BRANCH   9  10
HETATM   10  O   UNL     1      25.166  47.316  52.246  1.00  0.00    -0.342 OA
BRANCH  10  11
HETATM   11  C   UNL     1      26.088  46.853  53.145  1.00  0.00     0.069 A 
HETATM   12  C   UNL     1      26.397  47.739  54.179  1.00  0.00     0.037 A 
HETATM   13  C   UNL     1      27.334  47.396  55.157  1.00  0.00     0.009 A 
HETATM   14  C   UNL     1      27.975  46.154  55.115  1.00  0.00    -0.062 A 
HETATM   15  C   UNL     1      28.984  45.767  56.155  1.00  0.00     0.048 C 
HETATM   16  C   UNL     1      27.650  45.260  54.089  1.00  0.00     0.009 A 
HETATM   17  C   UNL     1      26.711  45.605  53.110  1.00  0.00     0.037 A 
ENDBRANCH  10  11
ENDBRANCH   9  10
ENDBRANCH   6   9
ENDBRANCH   2   5
BRANCH   1  18
HETATM   18  C   UNL     1      20.623  48.845  47.767  1.00  0.00     0.077 A 
HETATM   19  C   UNL     1      19.946  47.814  47.079  1.00  0.00     0.158 A 
HETATM   20  N   UNL     1      18.675  48.110  46.822  1.00  0.00    -0.183 NA
HETATM   21  N   UNL     1      18.520  49.349  47.329  1.00  0.00    -0.268 N 
HETATM   22  C   UNL     1      19.665  49.834  47.935  1.00  0.00     0.052 A 
BRANCH  21  23
HETATM   23  C   UNL     1      17.235  50.033  47.177  1.00  0.00     0.106 C 
HETATM   24  C   UNL     1      16.029  49.159  47.550  1.00  0.00     0.034 C 
BRANCH  23  25
HETATM   25  C   UNL     1      17.087  50.669  45.781  1.00  0.00     0.022 C 
HETATM   26  C   UNL     1      17.586  52.104  45.669  1.00  0.00     0.007 C 
ENDBRANCH  23  25
ENDBRANCH  21  23
BRANCH  22  27
HETATM   27  C   UNL     1      19.762  51.187  48.641  1.00  0.00     0.038 A 
HETATM   28  C   UNL     1      18.888  51.472  49.843  1.00  0.00     0.011 A 
HETATM   29  C   UNL     1      20.357  51.294  50.025  1.00  0.00     0.011 A 
ENDBRANCH  22  27
ENDBRANCH   1  18
TORSDOF 8
ENDMDL
MODEL 8
REMARK VINA RESULT:      -8.1      2.418     10.266
REMARK  8 active torsions:
REMARK  status: ('A' for Active; 'I' for Inactive)
REMARK    1  A    between atoms: C_2  and  C_3 
REMARK    2  A    between atoms: C_3  and  N_4 
REMARK    3  A    between atoms: C_7  and  C_8 
REMARK       I    between atoms: C_8  and  N_9 
REMARK    4  A    between atoms: N_9  and  N_10 
REMARK       I    between atoms: N_10  and  C_11 
REMARK    5  A    between atoms: C_11  and  C_12 
REMARK    6  A    between atoms: C_12  and  O_13 
REMARK    7  A    between atoms: O_13  and  C_14 
REMARK    8  A    between atoms: C_23  and  C_24 
ROOT
HETATM    1  C   UNL     1      23.990  48.553  49.437  1.00  0.00     0.273 C 
HETATM    2  N   UNL     1      23.997  47.568  50.405  1.00  0.00    -0.263 N 
HETATM    3  O   UNL     1      24.964  48.810  48.735  1.00  0.00    -0.266 OA
HETATM    4  H   UNL     1      23.281  47.563  51.131  1.00  0.00     0.190 HD
ENDROOT
BRANCH   2   5
HETATM    5  N   UNL     1      25.226  46.980  50.748  1.00  0.00    -0.265 N 
HETATM    6  C   UNL     1      25.208  45.681  51.214  1.00  0.00     0.260 C 
HETATM    7  O   UNL     1      24.200  44.975  51.174  1.00  0.00    -0.269 OA
HETATM    8  H   UNL     1      25.966  47.610  51.064  1.00  0.00     0.190 HD
BRANCH   6   9
HETATM    9  C   UNL     1      26.541  45.177  51.759  1.00  0.00     0.280 C 
BRANCH   9  10
HETATM   10  O   UNL     1      26.373  44.455  52.975  1.00  0.00    -0.342 OA
BRANCH  10  11
HETATM   11  C   UNL     1      27.514  44.155  53.670  1.00  0.00     0.069 A 
HETATM   12  C   UNL     1      27.985  45.177  54.495  1.00  0.00     0.037 A 
HETATM   13  C   UNL     1      29.149  45.006  55.248  1.00  0.00     0.009 A 
HETATM   14  C   UNL     1      29.858  43.802  55.189  1.00  0.00    -0.062 A 
HETATM   15  C   UNL     1      31.110  43.600  55.990  1.00  0.00     0.048 C 
HETATM   16  C   UNL     1      29.373  42.772  54.376  1.00  0.00     0.009 A 
HETATM   17  C   UNL     1      28.207  42.945  53.622  1.00  0.00     0.037 A 
ENDBRANCH  10  11
ENDBRANCH   9  10
ENDBRANCH   6   9
ENDBRANCH   2   5
BRANCH   1  18
HETATM   18  C   UNL     1      22.709  49.210  49.313  1.00  0.00     0.077 A 
HETATM   19  C   UNL     1      22.466  50.569  49.612  1.00  0.00     0.158 A 
HETATM   20  N   UNL     1      21.202  50.927  49.405  1.00  0.00    -0.183 NA
HETATM   21  N   UNL     1      20.607  49.793  48.983  1.00  0.00    -0.268 N 
HETATM   22  C   UNL     1      21.481  48.726  48.887  1.00  0.00     0.052 A 
BRANCH  21  23
HETATM   23  C   UNL     1      19.170  49.795  48.707  1.00  0.00     0.106 C 
HETATM   24  C   UNL     1      18.751  50.826  47.649  1.00  0.00     0.034 C 
BRANCH  23  25
HETATM   25  C   UNL     1      18.339  49.914  50.000  1.00  0.00     0.022 C 
HETATM   26  C   UNL     1      18.624  48.849  51.051  1.00  0.00     0.007 C 
ENDBRANCH  23  25
ENDBRANCH  21  23
BRANCH  22  27
HETATM   27  C   UNL     1      21.094  47.335  48.384  1.00  0.00     0.038 A 
HETATM   28  C   UNL     1      20.785  47.124  46.918  1.00  0.00     0.011 A 
HETATM   29  C   UNL     1      22.029  46.545  47.501  1.00  0.00     0.011 A 
ENDBRANCH  22  27
ENDBRANCH   1  18
TORSDOF 8
ENDMDL
MODEL 9
REMARK VINA RESULT:      -8.0      1.924      2.396
REMARK  8 active torsions:
REMARK  status: ('A' for Active; 'I' for Inactive)
REMARK    1  A    between atoms: C_2  and  C_3 
REMARK    2  A    between atoms: C_3  and  N_4 
REMARK    3  A    between atoms: C_7  and  C_8 
REMARK       I    between atoms: C_8  and  N_9 
REMARK    4  A    between atoms: N_9  and  N_10 
REMARK       I    between atoms: N_10  and  C_11 
REMARK    5  A    between atoms: C_11  and  C_12 
REMARK    6  A    between atoms: C_12  and  O_13 
REMARK    7  A    between atoms: O_13  and  C_14 
REMARK    8  A    between atoms: C_23  and  C_24 
ROOT
HETATM    1  C   UNL     1      25.361  46.120  50.392  1.00  0.00     0.273 C 
HETATM    2  N   UNL     1      25.898  47.274  49.855  1.00  0.00    -0.263 N 
HETATM    3  O   UNL     1      24.169  45.838  50.317  1.00  0.00    -0.266 OA
HETATM    4  H   UNL     1      26.815  47.598  50.161  1.00  0.00     0.190 HD
ENDROOT
BRANCH   2   5
HETATM    5  N   UNL     1      25.018  48.264  49.389  1.00  0.00    -0.265 N 
HETATM    6  C   UNL     1      25.553  49.304  48.656  1.00  0.00     0.260 C 
HETATM    7  O   UNL     1      26.716  49.304  48.254  1.00  0.00    -0.269 OA
HETATM    8  H   UNL     1      24.176  48.430  49.943  1.00  0.00     0.190 HD
BRANCH   6   9
HETATM    9  C   UNL     1      24.583  50.444  48.358  1.00  0.00     0.280 C 
BRANCH   9  10
HETATM   10  O   UNL     1      23.586  50.054  47.419  1.00  0.00    -0.342 OA
BRANCH  10  11
HETATM   11  C   UNL     1      22.285  50.144  47.837  1.00  0.00     0.069 A 
HETATM   12  C   UNL     1      21.526  48.988  47.649  1.00  0.00     0.037 A 
HETATM   13  C   UNL     1      20.180  48.950  48.019  1.00  0.00     0.009 A 
HETATM   14  C   UNL     1      19.573  50.073  48.589  1.00  0.00    -0.062 A 
HETATM   15  C   UNL     1      18.128  50.052  48.993  1.00  0.00     0.048 C 
HETATM   16  C   UNL     1      20.341  51.225  48.794  1.00  0.00     0.009 A 
HETATM   17  C   UNL     1      21.689  51.261  48.423  1.00  0.00     0.037 A 
ENDBRANCH  10  11
ENDBRANCH   9  10
ENDBRANCH   6   9
ENDBRANCH   2   5
BRANCH   1  18
HETATM   18  C   UNL     1      26.355  45.271  51.009  1.00  0.00     0.077 A 
HETATM   19  C   UNL     1      27.210  44.390  50.313  1.00  0.00     0.158 A 
HETATM   20  N   UNL     1      28.039  43.729  51.115  1.00  0.00    -0.183 NA
HETATM   21  N   UNL     1      27.715  44.166  52.349  1.00  0.00    -0.268 N 
HETATM   22  C   UNL     1      26.714  45.120  52.340  1.00  0.00     0.052 A 
BRANCH  21  23
HETATM   23  C   UNL     1      28.398  43.602  53.514  1.00  0.00     0.106 C 
HETATM   24  C   UNL     1      29.899  43.371  53.291  1.00  0.00     0.034 C 
BRANCH  23  25
HETATM   25  C   UNL     1      27.684  42.342  54.041  1.00  0.00     0.022 C 
HETATM   26  C   UNL     1      28.264  41.019  53.554  1.00  0.00     0.007 C 
ENDBRANCH  23  25
ENDBRANCH  21  23
BRANCH  22  27
HETATM   27  C   UNL     1      26.185  45.829  53.588  1.00  0.00     0.038 A 
HETATM   28  C   UNL     1      27.062  46.824  54.316  1.00  0.00     0.011 A 
HETATM   29  C   UNL     1      25.869  47.305  53.561  1.00  0.00     0.011 A 
ENDBRANCH  22  27
ENDBRANCH   1  18
TORSDOF 8
ENDMDL
MODEL 10
REMARK VINA RESULT:      -7.9      2.011      3.518
REMARK  8 active torsions:
REMARK  status: ('A' for Active; 'I' for Inactive)
REMARK    1  A    between atoms: C_2  and  C_3 
REMARK    2  A    between atoms: C_3  and  N_4 
REMARK    3  A    between atoms: C_7  and  C_8 
REMARK       I    between atoms: C_8  and  N_9 
REMARK    4  A    between atoms: N_9  and  N_10 
REMARK       I    between atoms: N_10  and  C_11 
REMARK    5  A    between atoms: C_11  and  C_12 
REMARK    6  A    between atoms: C_12  and  O_13 
REMARK    7  A    between atoms: O_13  and  C_14 
REMARK    8  A    between atoms: C_23  and  C_24 
ROOT
HETATM    1  C   UNL     1      25.012  46.569  50.290  1.00  0.00     0.273 C 
HETATM    2  N   UNL     1      24.005  47.471  50.578  1.00  0.00    -0.263 N 
HETATM    3  O   UNL     1      25.320  46.251  49.145  1.00  0.00    -0.266 OA
HETATM    4  H   UNL     1      23.607  47.506  51.516  1.00  0.00     0.190 HD
ENDROOT
BRANCH   2   5
HETATM    5  N   UNL     1      23.162  47.882  49.533  1.00  0.00    -0.265 N 
HETATM    6  C   UNL     1      23.384  49.128  48.982  1.00  0.00     0.260 C 
HETATM    7  O   UNL     1      24.380  49.802  49.244  1.00  0.00    -0.269 OA
HETATM    8  H   UNL     1      22.214  47.500  49.528  1.00  0.00     0.190 HD
BRANCH   6   9
HETATM    9  C   UNL     1      22.313  49.595  48.000  1.00  0.00     0.280 C 
BRANCH   9  10
HETATM   10  O   UNL     1      21.015  49.154  48.389  1.00  0.00    -0.342 OA
BRANCH  10  11
HETATM   11  C   UNL     1      20.105  50.130  48.693  1.00  0.00     0.069 A 
HETATM   12  C   UNL     1      19.083  49.731  49.557  1.00  0.00     0.037 A 
HETATM   13  C   UNL     1      18.080  50.626  49.937  1.00  0.00     0.009 A 
HETATM   14  C   UNL     1      18.090  51.941  49.460  1.00  0.00    -0.062 A 
HETATM   15  C   UNL     1      17.022  52.916  49.856  1.00  0.00     0.048 C 
HETATM   16  C   UNL     1      19.125  52.343  48.609  1.00  0.00     0.009 A 
HETATM   17  C   UNL     1      20.129  51.445  48.229  1.00  0.00     0.037 A 
ENDBRANCH  10  11
ENDBRANCH   9  10
ENDBRANCH   6   9
ENDBRANCH   2   5
BRANCH   1  18
HETATM   18  C   UNL     1      25.682  46.078  51.473  1.00  0.00     0.077 A 
HETATM   19  C   UNL     1      26.137  46.885  52.538  1.00  0.00     0.158 A 
HETATM   20  N   UNL     1      26.714  46.185  53.510  1.00  0.00    -0.183 NA
HETATM   21  N   UNL     1      26.652  44.910  53.074  1.00  0.00    -0.268 N 
HETATM   22  C   UNL     1      26.015  44.786  51.853  1.00  0.00     0.052 A 
BRANCH  21  23
HETATM   23  C   UNL     1      27.253  43.846  53.877  1.00  0.00     0.106 C 
HETATM   24  C   UNL     1      26.365  43.380  55.040  1.00  0.00     0.034 C 
BRANCH  23  25
HETATM   25  C   UNL     1      28.677  44.212  54.340  1.00  0.00     0.022 C 
HETATM   26  C   UNL     1      29.755  43.198  53.977  1.00  0.00     0.007 C 
ENDBRANCH  23  25
ENDBRANCH  21  23
BRANCH  22  27
HETATM   27  C   UNL     1      25.754  43.456  51.146  1.00  0.00     0.038 A 
HETATM   28  C   UNL     1      26.544  43.095  49.907  1.00  0.00     0.011 A 
HETATM   29  C   UNL     1      26.783  42.351  51.176  1.00  0.00     0.011 A 
ENDBRANCH  22  27
ENDBRANCH   1  18
TORSDOF 8
ENDMDL
