MODEL 1
REMARK VINA RESULT:      -8.8      0.000      0.000
REMARK  4 active torsions:
REMARK  status: ('A' for Active; 'I' for Inactive)
REMARK    1  A    between atoms: C_7  and  C_8 
REMARK    2  A    between atoms: N_9  and  C_10 
REMARK    3  A    between atoms: C_10  and  C_11 
REMARK       I    between atoms: C_11  and  N_12 
REMARK    4  A    between atoms: N_12  and  C_13 
ROOT
HETATM    1  C   UNL     1      28.631  44.772  53.491  1.00  0.00     0.158 A 
HETATM    2  N   UNL     1      29.499  43.659  53.839  1.00  0.00    -0.326 N 
HETATM    3  C   UNL     1      29.977  43.746  55.129  1.00  0.00     0.255 A 
HETATM    4  O   UNL     1      30.820  43.050  55.660  1.00  0.00    -0.267 OA
HETATM    5  C   UNL     1      29.314  44.897  55.753  1.00  0.00     0.040 A 
HETATM    6  C   UNL     1      28.503  45.509  54.793  1.00  0.00    -0.015 A 
HETATM    7  C   UNL     1      29.412  45.353  57.055  1.00  0.00     0.017 A 
HETATM    8  C   UNL     1      28.659  46.476  57.398  1.00  0.00     0.001 A 
HETATM    9  C   UNL     1      27.844  47.112  56.441  1.00  0.00     0.001 A 
HETATM   10  C   UNL     1      27.766  46.634  55.129  1.00  0.00     0.011 A 
ENDROOT
BRANCH   1  11
HETATM   11  C   UNL     1      27.259  44.328  53.086  1.00  0.00     0.004 A 
HETATM   12  C   UNL     1      26.270  43.706  53.847  1.00  0.00     0.015 A 
HETATM   13  C   UNL     1      26.237  43.296  55.277  1.00  0.00     0.069 C 
HETATM   14  N   UNL     1      25.189  43.482  53.030  1.00  0.00    -0.359 N 
HETATM   15  H   UNL     1      24.328  43.040  53.316  1.00  0.00     0.166 HD
HETATM   16  C   UNL     1      25.435  43.942  51.760  1.00  0.00     0.043 A 
HETATM   17  C   UNL     1      26.720  44.478  51.759  1.00  0.00     0.001 A 
HETATM   18  C   UNL     1      24.617  43.920  50.623  1.00  0.00     0.030 A 
HETATM   19  C   UNL     1      27.213  45.023  50.554  1.00  0.00     0.014 A 
HETATM   20  C   UNL     1      26.409  45.011  49.407  1.00  0.00     0.001 A 
HETATM   21  C   UNL     1      25.129  44.465  49.444  1.00  0.00     0.002 A 
ENDBRANCH   1  11
BRANCH   2  22
HETATM   22  C   UNL     1      29.928  42.667  52.864  1.00  0.00     0.229 C 
BRANCH  22  23
HETATM   23  C   UNL     1      28.905  41.563  52.584  1.00  0.00     0.235 C 
HETATM   24  N   UNL     1      28.605  41.374  51.250  1.00  0.00    -0.355 N 
HETATM   25  H   UNL     1      29.226  41.840  50.595  1.00  0.00     0.162 HD
HETATM   26  O   UNL     1      28.498  40.832  53.483  1.00  0.00    -0.272 OA
BRANCH  24  27
HETATM   27  C   UNL     1      27.826  40.254  50.730  1.00  0.00     0.084 C 
HETATM   28  C   UNL     1      26.320  40.566  50.653  1.00  0.00     0.025 C 
HETATM   29  C   UNL     1      25.807  40.717  49.223  1.00  0.00     0.002 C 
HETATM   30  C   UNL     1      26.113  39.497  48.354  1.00  0.00     0.000 C 
HETATM   31  C   UNL     1      27.391  38.756  48.750  1.00  0.00     0.002 C 
HETATM   32  C   UNL     1      28.401  39.674  49.428  1.00  0.00     0.025 C 
ENDBRANCH  24  27
ENDBRANCH  22  23
ENDBRANCH   2  22
TORSDOF 4
ENDMDL
MODEL 2
REMARK VINA RESULT:      -8.7      1.930      6.129
REMARK  4 active torsions:
REMARK  status: ('A' for Active; 'I' for Inactive)
REMARK    1  A    between atoms: C_7  and  C_8 
REMARK    2  A    between atoms: N_9  and  C_10 
REMARK    3  A    between atoms: C_10  and  C_11 
REMARK       I    between atoms: C_11  and  N_12 
REMARK    4  A    between atoms: N_12  and  C_13 
ROOT
HETATM    1  C   UNL     1      27.158  43.598  50.931  1.00  0.00     0.158 A 
HETATM    2  N   UNL     1      27.167  43.548  52.384  1.00  0.00    -0.326 N 
HETATM    3  C   UNL     1      26.575  44.655  52.953  1.00  0.00     0.255 A 
HETATM    4  O   UNL     1      26.551  44.966  54.128  1.00  0.00    -0.267 OA
HETATM    5  C   UNL     1      26.013  45.451  51.855  1.00  0.00     0.040 A 
HETATM    6  C   UNL     1      26.343  44.826  50.649  1.00  0.00    -0.015 A 
HETATM    7  C   UNL     1      25.268  46.613  51.921  1.00  0.00     0.017 A 
HETATM    8  C   UNL     1      24.841  47.168  50.714  1.00  0.00     0.001 A 
HETATM    9  C   UNL     1      25.173  46.559  49.488  1.00  0.00     0.001 A 
HETATM   10  C   UNL     1      25.932  45.385  49.448  1.00  0.00     0.011 A 
ENDROOT
BRANCH   1  11
HETATM   11  C   UNL     1      26.444  42.431  50.319  1.00  0.00     0.004 A 
HETATM   12  C   UNL     1      25.082  42.133  50.311  1.00  0.00     0.015 A 
HETATM   13  C   UNL     1      23.911  42.855  50.877  1.00  0.00     0.069 C 
HETATM   14  N   UNL     1      24.915  40.949  49.637  1.00  0.00    -0.359 N 
HETATM   15  H   UNL     1      24.028  40.490  49.482  1.00  0.00     0.166 HD
HETATM   16  C   UNL     1      26.121  40.463  49.198  1.00  0.00     0.043 A 
HETATM   17  C   UNL     1      27.099  41.365  49.607  1.00  0.00     0.001 A 
HETATM   18  C   UNL     1      26.411  39.298  48.476  1.00  0.00     0.030 A 
HETATM   19  C   UNL     1      28.443  41.087  49.273  1.00  0.00     0.014 A 
HETATM   20  C   UNL     1      28.752  39.928  48.550  1.00  0.00     0.001 A 
HETATM   21  C   UNL     1      27.748  39.047  48.160  1.00  0.00     0.002 A 
ENDBRANCH   1  11
BRANCH   2  22
HETATM   22  C   UNL     1      27.873  42.514  53.127  1.00  0.00     0.229 C 
BRANCH  22  23
HETATM   23  C   UNL     1      29.264  42.920  53.621  1.00  0.00     0.235 C 
HETATM   24  N   UNL     1      29.268  43.804  54.681  1.00  0.00    -0.355 N 
HETATM   25  H   UNL     1      28.372  43.935  55.140  1.00  0.00     0.162 HD
HETATM   26  O   UNL     1      30.276  42.385  53.176  1.00  0.00    -0.272 OA
BRANCH  24  27
HETATM   27  C   UNL     1      30.457  44.166  55.448  1.00  0.00     0.084 C 
HETATM   28  C   UNL     1      30.347  45.566  56.081  1.00  0.00     0.025 C 
HETATM   29  C   UNL     1      30.196  45.532  57.600  1.00  0.00     0.002 C 
HETATM   30  C   UNL     1      31.319  44.756  58.287  1.00  0.00     0.000 C 
HETATM   31  C   UNL     1      31.899  43.621  57.442  1.00  0.00     0.002 C 
HETATM   32  C   UNL     1      30.888  43.075  56.441  1.00  0.00     0.025 C 
ENDBRANCH  24  27
ENDBRANCH  22  23
ENDBRANCH   2  22
TORSDOF 4
ENDMDL
MODEL 3
REMARK VINA RESULT:      -8.2     13.397     16.086
REMARK  4 active torsions:
REMARK  status: ('A' for Active; 'I' for Inactive)
REMARK    1  A    between atoms: C_7  and  C_8 
REMARK    2  A    between atoms: N_9  and  C_10 
REMARK    3  A    between atoms: C_10  and  C_11 
REMARK       I    between atoms: C_11  and  N_12 
REMARK    4  A    between atoms: N_12  and  C_13 
ROOT
HETATM    1  C   UNL     1      30.736  49.435  39.422  1.00  0.00     0.158 A 
HETATM    2  N   UNL     1      30.987  50.563  38.540  1.00  0.00    -0.326 N 
HETATM    3  C   UNL     1      29.825  51.183  38.133  1.00  0.00     0.255 A 
HETATM    4  O   UNL     1      29.701  52.057  37.298  1.00  0.00    -0.267 OA
HETATM    5  C   UNL     1      28.722  50.545  38.862  1.00  0.00     0.040 A 
HETATM    6  C   UNL     1      29.253  49.512  39.640  1.00  0.00    -0.015 A 
HETATM    7  C   UNL     1      27.377  50.859  38.846  1.00  0.00     0.017 A 
HETATM    8  C   UNL     1      26.531  50.094  39.650  1.00  0.00     0.001 A 
HETATM    9  C   UNL     1      27.045  49.042  40.432  1.00  0.00     0.001 A 
HETATM   10  C   UNL     1      28.412  48.741  40.428  1.00  0.00     0.011 A 
ENDROOT
BRANCH   1  11
HETATM   11  C   UNL     1      31.398  49.590  40.758  1.00  0.00     0.004 A 
HETATM   12  C   UNL     1      32.263  48.721  41.422  1.00  0.00     0.015 A 
HETATM   13  C   UNL     1      32.816  47.395  41.038  1.00  0.00     0.069 C 
HETATM   14  N   UNL     1      32.593  49.295  42.625  1.00  0.00    -0.359 N 
HETATM   15  H   UNL     1      33.204  48.884  43.316  1.00  0.00     0.166 HD
HETATM   16  C   UNL     1      31.977  50.514  42.769  1.00  0.00     0.043 A 
HETATM   17  C   UNL     1      31.222  50.730  41.620  1.00  0.00     0.001 A 
HETATM   18  C   UNL     1      32.035  51.429  43.827  1.00  0.00     0.030 A 
HETATM   19  C   UNL     1      30.485  51.930  41.524  1.00  0.00     0.014 A 
HETATM   20  C   UNL     1      30.531  52.859  42.571  1.00  0.00     0.001 A 
HETATM   21  C   UNL     1      31.296  52.608  43.707  1.00  0.00     0.002 A 
ENDBRANCH   1  11
BRANCH   2  22
HETATM   22  C   UNL     1      32.315  50.878  38.032  1.00  0.00     0.229 C 
BRANCH  22  23
HETATM   23  C   UNL     1      33.212  51.637  39.014  1.00  0.00     0.235 C 
HETATM   24  N   UNL     1      34.357  50.966  39.390  1.00  0.00    -0.355 N 
HETATM   25  H   UNL     1      34.580  50.144  38.837  1.00  0.00     0.162 HD
HETATM   26  O   UNL     1      32.971  52.801  39.324  1.00  0.00    -0.272 OA
BRANCH  24  27
HETATM   27  C   UNL     1      35.455  51.566  40.143  1.00  0.00     0.084 C 
HETATM   28  C   UNL     1      35.228  51.509  41.666  1.00  0.00     0.025 C 
HETATM   29  C   UNL     1      36.160  50.532  42.378  1.00  0.00     0.002 C 
HETATM   30  C   UNL     1      37.636  50.815  42.100  1.00  0.00     0.000 C 
HETATM   31  C   UNL     1      37.903  51.432  40.727  1.00  0.00     0.002 C 
HETATM   32  C   UNL     1      36.836  51.051  39.708  1.00  0.00     0.025 C 
ENDBRANCH  24  27
ENDBRANCH  22  23
ENDBRANCH   2  22
TORSDOF 4
ENDMDL
MODEL 4
REMARK VINA RESULT:      -8.1      7.631     11.034
REMARK  4 active torsions:
REMARK  status: ('A' for Active; 'I' for Inactive)
REMARK    1  A    between atoms: C_7  and  C_8 
REMARK    2  A    between atoms: N_9  and  C_10 
REMARK    3  A    between atoms: C_10  and  C_11 
REMARK       I    between atoms: C_11  and  N_12 
REMARK    4  A    between atoms: N_12  and  C_13 
ROOT
HETATM    1  C   UNL     1      20.250  49.453  47.290  1.00  0.00     0.158 A 
HETATM    2  N   UNL     1      20.447  50.607  48.153  1.00  0.00    -0.326 N 
HETATM    3  C   UNL     1      19.461  51.557  47.994  1.00  0.00     0.255 A 
HETATM    4  O   UNL     1      19.423  52.676  48.467  1.00  0.00    -0.267 OA
HETATM    5  C   UNL     1      18.463  50.990  47.079  1.00  0.00     0.040 A 
HETATM    6  C   UNL     1      18.915  49.735  46.663  1.00  0.00    -0.015 A 
HETATM    7  C   UNL     1      17.261  51.532  46.665  1.00  0.00     0.017 A 
HETATM    8  C   UNL     1      16.485  50.771  45.790  1.00  0.00     0.001 A 
HETATM    9  C   UNL     1      16.928  49.509  45.351  1.00  0.00     0.001 A 
HETATM   10  C   UNL     1      18.152  48.985  45.782  1.00  0.00     0.011 A 
ENDROOT
BRANCH   1  11
HETATM   11  C   UNL     1      20.126  48.173  48.059  1.00  0.00     0.004 A 
HETATM   12  C   UNL     1      19.397  47.903  49.216  1.00  0.00     0.015 A 
HETATM   13  C   UNL     1      18.510  48.762  50.046  1.00  0.00     0.069 C 
HETATM   14  N   UNL     1      19.610  46.589  49.551  1.00  0.00    -0.359 N 
HETATM   15  H   UNL     1      19.208  46.121  50.351  1.00  0.00     0.166 HD
HETATM   16  C   UNL     1      20.452  45.986  48.649  1.00  0.00     0.043 A 
HETATM   17  C   UNL     1      20.794  46.948  47.702  1.00  0.00     0.001 A 
HETATM   18  C   UNL     1      20.931  44.671  48.607  1.00  0.00     0.030 A 
HETATM   19  C   UNL     1      21.662  46.571  46.655  1.00  0.00     0.014 A 
HETATM   20  C   UNL     1      22.150  45.260  46.595  1.00  0.00     0.001 A 
HETATM   21  C   UNL     1      21.788  44.325  47.561  1.00  0.00     0.002 A 
ENDBRANCH   1  11
BRANCH   2  22
HETATM   22  C   UNL     1      21.645  50.784  48.961  1.00  0.00     0.229 C 
BRANCH  22  23
HETATM   23  C   UNL     1      22.861  49.985  48.484  1.00  0.00     0.235 C 
HETATM   24  N   UNL     1      23.296  49.013  49.360  1.00  0.00    -0.355 N 
HETATM   25  H   UNL     1      22.661  48.800  50.123  1.00  0.00     0.162 HD
HETATM   26  O   UNL     1      23.310  50.131  47.350  1.00  0.00    -0.272 OA
BRANCH  24  27
HETATM   27  C   UNL     1      24.295  47.997  49.037  1.00  0.00     0.084 C 
HETATM   28  C   UNL     1      25.732  48.465  49.333  1.00  0.00     0.025 C 
HETATM   29  C   UNL     1      26.366  47.751  50.523  1.00  0.00     0.002 C 
HETATM   30  C   UNL     1      26.353  46.229  50.373  1.00  0.00     0.000 C 
HETATM   31  C   UNL     1      25.174  45.694  49.561  1.00  0.00     0.002 C 
HETATM   32  C   UNL     1      23.964  46.617  49.628  1.00  0.00     0.025 C 
ENDBRANCH  24  27
ENDBRANCH  22  23
ENDBRANCH   2  22
TORSDOF 4
ENDMDL
MODEL 5
REMARK VINA RESULT:      -8.0      8.496     11.632
REMARK  4 active torsions:
REMARK  status: ('A' for Active; 'I' for Inactive)
REMARK    1  A    between atoms: C_7  and  C_8 
REMARK    2  A    between atoms: N_9  and  C_10 
REMARK    3  A    between atoms: C_10  and  C_11 
REMARK       I    between atoms: C_11  and  N_12 
REMARK    4  A    between atoms: N_12  and  C_13 
ROOT
HETATM    1  C   UNL     1      19.462  49.615  48.559  1.00  0.00     0.158 A 
HETATM    2  N   UNL     1      20.675  49.278  47.832  1.00  0.00    -0.326 N 
HETATM    3  C   UNL     1      20.686  47.968  47.402  1.00  0.00     0.255 A 
HETATM    4  O   UNL     1      21.606  47.358  46.894  1.00  0.00    -0.267 OA
HETATM    5  C   UNL     1      19.371  47.401  47.727  1.00  0.00     0.040 A 
HETATM    6  C   UNL     1      18.631  48.374  48.405  1.00  0.00    -0.015 A 
HETATM    7  C   UNL     1      18.874  46.144  47.439  1.00  0.00     0.017 A 
HETATM    8  C   UNL     1      17.574  45.859  47.856  1.00  0.00     0.001 A 
HETATM    9  C   UNL     1      16.816  46.823  48.549  1.00  0.00     0.001 A 
HETATM   10  C   UNL     1      17.344  48.087  48.833  1.00  0.00     0.011 A 
ENDROOT
BRANCH   1  11
HETATM   11  C   UNL     1      18.708  50.745  47.928  1.00  0.00     0.004 A 
HETATM   12  C   UNL     1      18.144  51.873  48.522  1.00  0.00     0.015 A 
HETATM   13  C   UNL     1      18.111  52.331  49.938  1.00  0.00     0.069 C 
HETATM   14  N   UNL     1      17.544  52.614  47.534  1.00  0.00    -0.359 N 
HETATM   15  H   UNL     1      17.051  53.483  47.679  1.00  0.00     0.166 HD
HETATM   16  C   UNL     1      17.700  52.011  46.310  1.00  0.00     0.043 A 
HETATM   17  C   UNL     1      18.424  50.841  46.519  1.00  0.00     0.001 A 
HETATM   18  C   UNL     1      17.254  52.417  45.046  1.00  0.00     0.030 A 
HETATM   19  C   UNL     1      18.719  50.032  45.400  1.00  0.00     0.014 A 
HETATM   20  C   UNL     1      18.283  50.422  44.128  1.00  0.00     0.001 A 
HETATM   21  C   UNL     1      17.559  51.599  43.957  1.00  0.00     0.002 A 
ENDBRANCH   1  11
BRANCH   2  22
HETATM   22  C   UNL     1      21.804  50.192  47.727  1.00  0.00     0.229 C 
BRANCH  22  23
HETATM   23  C   UNL     1      22.866  50.021  48.817  1.00  0.00     0.235 C 
HETATM   24  N   UNL     1      23.423  48.761  48.892  1.00  0.00    -0.355 N 
HETATM   25  H   UNL     1      23.219  48.148  48.108  1.00  0.00     0.162 HD
HETATM   26  O   UNL     1      23.265  50.981  49.470  1.00  0.00    -0.272 OA
BRANCH  24  27
HETATM   27  C   UNL     1      24.590  48.421  49.702  1.00  0.00     0.084 C 
HETATM   28  C   UNL     1      24.517  46.993  50.274  1.00  0.00     0.025 C 
HETATM   29  C   UNL     1      25.517  46.034  49.633  1.00  0.00     0.002 C 
HETATM   30  C   UNL     1      26.957  46.538  49.721  1.00  0.00     0.000 C 
HETATM   31  C   UNL     1      27.085  48.062  49.719  1.00  0.00     0.002 C 
HETATM   32  C   UNL     1      25.921  48.734  49.001  1.00  0.00     0.025 C 
ENDBRANCH  24  27
ENDBRANCH  22  23
ENDBRANCH   2  22
TORSDOF 4
ENDMDL
MODEL 6
REMARK VINA RESULT:      -8.0      5.882      8.909
REMARK  4 active torsions:
REMARK  status: ('A' for Active; 'I' for Inactive)
REMARK    1  A    between atoms: C_7  and  C_8 
REMARK    2  A    between atoms: N_9  and  C_10 
REMARK    3  A    between atoms: C_10  and  C_11 
REMARK       I    between atoms: C_11  and  N_12 
REMARK    4  A    between atoms: N_12  and  C_13 
ROOT
HETATM    1  C   UNL     1      22.111  48.164  49.162  1.00  0.00     0.158 A 
HETATM    2  N   UNL     1      21.591  47.245  48.162  1.00  0.00    -0.326 N 
HETATM    3  C   UNL     1      20.248  47.436  47.918  1.00  0.00     0.255 A 
HETATM    4  O   UNL     1      19.508  46.745  47.246  1.00  0.00    -0.267 OA
HETATM    5  C   UNL     1      19.839  48.622  48.680  1.00  0.00     0.040 A 
HETATM    6  C   UNL     1      20.941  49.071  49.414  1.00  0.00    -0.015 A 
HETATM    7  C   UNL     1      18.609  49.251  48.710  1.00  0.00     0.017 A 
HETATM    8  C   UNL     1      18.488  50.381  49.519  1.00  0.00     0.001 A 
HETATM    9  C   UNL     1      19.583  50.842  50.274  1.00  0.00     0.001 A 
HETATM   10  C   UNL     1      20.817  50.185  50.231  1.00  0.00     0.011 A 
ENDROOT
BRANCH   1  11
HETATM   11  C   UNL     1      23.232  49.009  48.639  1.00  0.00     0.004 A 
HETATM   12  C   UNL     1      23.191  50.086  47.755  1.00  0.00     0.015 A 
HETATM   13  C   UNL     1      22.054  50.750  47.062  1.00  0.00     0.069 C 
HETATM   14  N   UNL     1      24.478  50.526  47.568  1.00  0.00    -0.359 N 
HETATM   15  H   UNL     1      24.747  51.295  46.970  1.00  0.00     0.166 HD
HETATM   16  C   UNL     1      25.361  49.777  48.304  1.00  0.00     0.043 A 
HETATM   17  C   UNL     1      24.617  48.819  48.986  1.00  0.00     0.001 A 
HETATM   18  C   UNL     1      26.754  49.879  48.410  1.00  0.00     0.030 A 
HETATM   19  C   UNL     1      25.305  47.914  49.823  1.00  0.00     0.014 A 
HETATM   20  C   UNL     1      26.697  48.001  49.944  1.00  0.00     0.001 A 
HETATM   21  C   UNL     1      27.409  48.971  49.244  1.00  0.00     0.002 A 
ENDBRANCH   1  11
BRANCH   2  22
HETATM   22  C   UNL     1      22.383  46.150  47.620  1.00  0.00     0.229 C 
BRANCH  22  23
HETATM   23  C   UNL     1      22.767  45.074  48.639  1.00  0.00     0.235 C 
HETATM   24  N   UNL     1      24.122  44.937  48.855  1.00  0.00    -0.355 N 
HETATM   25  H   UNL     1      24.700  45.680  48.475  1.00  0.00     0.162 HD
HETATM   26  O   UNL     1      21.910  44.485  49.292  1.00  0.00    -0.272 OA
BRANCH  24  27
HETATM   27  C   UNL     1      24.711  44.132  49.923  1.00  0.00     0.084 C 
HETATM   28  C   UNL     1      26.146  43.676  49.597  1.00  0.00     0.025 C 
HETATM   29  C   UNL     1      27.206  44.370  50.448  1.00  0.00     0.002 C 
HETATM   30  C   UNL     1      26.957  44.212  51.947  1.00  0.00     0.000 C 
HETATM   31  C   UNL     1      25.479  44.090  52.323  1.00  0.00     0.002 C 
HETATM   32  C   UNL     1      24.571  44.777  51.311  1.00  0.00     0.025 C 
ENDBRANCH  24  27
ENDBRANCH  22  23
ENDBRANCH   2  22
TORSDOF 4
ENDMDL
MODEL 7
REMARK VINA RESULT:      -7.9     12.684     15.932
REMARK  4 active torsions:
REMARK  status: ('A' for Active; 'I' for Inactive)
REMARK    1  A    between atoms: C_7  and  C_8 
REMARK    2  A    between atoms: N_9  and  C_10 
REMARK    3  A    between atoms: C_10  and  C_11 
REMARK       I    between atoms: C_11  and  N_12 
REMARK    4  A    between atoms: N_12  and  C_13 
ROOT
HETATM    1  C   UNL     1      28.500  48.352  38.473  1.00  0.00     0.158 A 
HETATM    2  N   UNL     1      27.167  48.800  38.104  1.00  0.00    -0.326 N 
HETATM    3  C   UNL     1      26.471  47.850  37.390  1.00  0.00     0.255 A 
HETATM    4  O   UNL     1      25.399  47.975  36.830  1.00  0.00    -0.267 OA
HETATM    5  C   UNL     1      27.300  46.638  37.369  1.00  0.00     0.040 A 
HETATM    6  C   UNL     1      28.504  46.921  38.019  1.00  0.00    -0.015 A 
HETATM    7  C   UNL     1      27.008  45.398  36.833  1.00  0.00     0.017 A 
HETATM    8  C   UNL     1      27.977  44.403  36.960  1.00  0.00     0.001 A 
HETATM    9  C   UNL     1      29.201  44.671  37.603  1.00  0.00     0.001 A 
HETATM   10  C   UNL     1      29.474  45.937  38.133  1.00  0.00     0.011 A 
ENDROOT
BRANCH   1  11
HETATM   11  C   UNL     1      28.720  48.357  39.955  1.00  0.00     0.004 A 
HETATM   12  C   UNL     1      27.808  48.132  40.985  1.00  0.00     0.015 A 
HETATM   13  C   UNL     1      26.356  47.809  40.964  1.00  0.00     0.069 C 
HETATM   14  N   UNL     1      28.480  48.257  42.176  1.00  0.00    -0.359 N 
HETATM   15  H   UNL     1      28.064  48.150  43.091  1.00  0.00     0.166 HD
HETATM   16  C   UNL     1      29.803  48.551  41.961  1.00  0.00     0.043 A 
HETATM   17  C   UNL     1      29.989  48.621  40.583  1.00  0.00     0.001 A 
HETATM   18  C   UNL     1      30.838  48.760  42.882  1.00  0.00     0.030 A 
HETATM   19  C   UNL     1      31.283  48.914  40.100  1.00  0.00     0.014 A 
HETATM   20  C   UNL     1      32.330  49.124  41.005  1.00  0.00     0.001 A 
HETATM   21  C   UNL     1      32.108  49.048  42.377  1.00  0.00     0.002 A 
ENDBRANCH   1  11
BRANCH   2  22
HETATM   22  C   UNL     1      26.708  50.163  38.335  1.00  0.00     0.229 C 
BRANCH  22  23
HETATM   23  C   UNL     1      27.827  51.198  38.480  1.00  0.00     0.235 C 
HETATM   24  N   UNL     1      27.868  51.841  39.699  1.00  0.00    -0.355 N 
HETATM   25  H   UNL     1      27.290  51.431  40.426  1.00  0.00     0.162 HD
HETATM   26  O   UNL     1      28.686  51.329  37.611  1.00  0.00    -0.272 OA
BRANCH  24  27
HETATM   27  C   UNL     1      28.960  52.705  40.141  1.00  0.00     0.084 C 
HETATM   28  C   UNL     1      28.945  52.946  41.662  1.00  0.00     0.025 C 
HETATM   29  C   UNL     1      30.090  52.251  42.394  1.00  0.00     0.002 C 
HETATM   30  C   UNL     1      31.462  52.631  41.839  1.00  0.00     0.000 C 
HETATM   31  C   UNL     1      31.457  52.970  40.347  1.00  0.00     0.002 C 
HETATM   32  C   UNL     1      30.330  52.267  39.602  1.00  0.00     0.025 C 
ENDBRANCH  24  27
ENDBRANCH  22  23
ENDBRANCH   2  22
TORSDOF 4
ENDMDL
MODEL 8
REMARK VINA RESULT:      -7.8     15.482     18.688
REMARK  4 active torsions:
REMARK  status: ('A' for Active; 'I' for Inactive)
REMARK    1  A    between atoms: C_7  and  C_8 
REMARK    2  A    between atoms: N_9  and  C_10 
REMARK    3  A    between atoms: C_10  and  C_11 
REMARK       I    between atoms: C_11  and  N_12 
REMARK    4  A    between atoms: N_12  and  C_13 
ROOT
HETATM    1  C   UNL     1      40.347  43.078  63.892  1.00  0.00     0.158 A 
HETATM    2  N   UNL     1      38.968  43.386  63.552  1.00  0.00    -0.326 N 
HETATM    3  C   UNL     1      38.133  42.300  63.699  1.00  0.00     0.255 A 
HETATM    4  O   UNL     1      36.968  42.206  63.366  1.00  0.00    -0.267 OA
HETATM    5  C   UNL     1      38.935  41.221  64.289  1.00  0.00     0.040 A 
HETATM    6  C   UNL     1      40.250  41.675  64.420  1.00  0.00    -0.015 A 
HETATM    7  C   UNL     1      38.532  39.959  64.685  1.00  0.00     0.017 A 
HETATM    8  C   UNL     1      39.503  39.121  65.234  1.00  0.00     0.001 A 
HETATM    9  C   UNL     1      40.836  39.557  65.364  1.00  0.00     0.001 A 
HETATM   10  C   UNL     1      41.219  40.838  64.951  1.00  0.00     0.011 A 
ENDROOT
BRANCH   1  11
HETATM   11  C   UNL     1      40.875  43.941  64.998  1.00  0.00     0.004 A 
HETATM   12  C   UNL     1      40.432  44.061  66.314  1.00  0.00     0.015 A 
HETATM   13  C   UNL     1      39.328  43.387  67.049  1.00  0.00     0.069 C 
HETATM   14  N   UNL     1      41.226  44.989  66.941  1.00  0.00    -0.359 N 
HETATM   15  H   UNL     1      41.128  45.281  67.904  1.00  0.00     0.166 HD
HETATM   16  C   UNL     1      42.178  45.477  66.082  1.00  0.00     0.043 A 
HETATM   17  C   UNL     1      41.989  44.843  64.857  1.00  0.00     0.001 A 
HETATM   18  C   UNL     1      43.183  46.428  66.301  1.00  0.00     0.030 A 
HETATM   19  C   UNL     1      42.854  45.177  63.793  1.00  0.00     0.014 A 
HETATM   20  C   UNL     1      43.866  46.124  63.993  1.00  0.00     0.001 A 
HETATM   21  C   UNL     1      44.025  46.740  65.231  1.00  0.00     0.002 A 
ENDBRANCH   1  11
BRANCH   2  22
HETATM   22  C   UNL     1      38.572  44.661  62.970  1.00  0.00     0.229 C 
BRANCH  22  23
HETATM   23  C   UNL     1      37.864  45.613  63.938  1.00  0.00     0.235 C 
HETATM   24  N   UNL     1      38.701  46.467  64.626  1.00  0.00    -0.355 N 
HETATM   25  H   UNL     1      39.655  46.511  64.283  1.00  0.00     0.162 HD
HETATM   26  O   UNL     1      36.639  45.678  63.981  1.00  0.00    -0.272 OA
BRANCH  24  27
HETATM   27  C   UNL     1      38.244  47.593  65.438  1.00  0.00     0.084 C 
HETATM   28  C   UNL     1      39.128  47.824  66.678  1.00  0.00     0.025 C 
HETATM   29  C   UNL     1      39.970  49.094  66.591  1.00  0.00     0.002 C 
HETATM   30  C   UNL     1      39.129  50.343  66.332  1.00  0.00     0.000 C 
HETATM   31  C   UNL     1      37.858  50.082  65.523  1.00  0.00     0.002 C 
HETATM   32  C   UNL     1      37.995  48.867  64.615  1.00  0.00     0.025 C 
ENDBRANCH  24  27
ENDBRANCH  22  23
ENDBRANCH   2  22
TORSDOF 4
ENDMDL
MODEL 9
REMARK VINA RESULT:      -7.8     15.171     17.822
REMARK  4 active torsions:
REMARK  status: ('A' for Active; 'I' for Inactive)
REMARK    1  A    between atoms: C_7  and  C_8 
REMARK    2  A    between atoms: N_9  and  C_10 
REMARK    3  A    between atoms: C_10  and  C_11 
REMARK       I    between atoms: C_11  and  N_12 
REMARK    4  A    between atoms: N_12  and  C_13 
ROOT
HETATM    1  C   UNL     1      37.702  42.569  63.936  1.00  0.00     0.158 A 
HETATM    2  N   UNL     1      37.909  43.993  63.731  1.00  0.00    -0.326 N 
HETATM    3  C   UNL     1      36.856  44.751  64.198  1.00  0.00     0.255 A 
HETATM    4  O   UNL     1      36.674  45.944  64.050  1.00  0.00    -0.267 OA
HETATM    5  C   UNL     1      35.934  43.831  64.874  1.00  0.00     0.040 A 
HETATM    6  C   UNL     1      36.432  42.532  64.735  1.00  0.00    -0.015 A 
HETATM    7  C   UNL     1      34.768  44.120  65.559  1.00  0.00     0.017 A 
HETATM    8  C   UNL     1      34.077  43.048  66.125  1.00  0.00     0.001 A 
HETATM    9  C   UNL     1      34.557  41.732  65.987  1.00  0.00     0.001 A 
HETATM   10  C   UNL     1      35.738  41.465  65.285  1.00  0.00     0.011 A 
ENDROOT
BRANCH   1  11
HETATM   11  C   UNL     1      38.779  41.945  64.771  1.00  0.00     0.004 A 
HETATM   12  C   UNL     1      39.318  42.373  65.983  1.00  0.00     0.015 A 
HETATM   13  C   UNL     1      39.009  43.549  66.840  1.00  0.00     0.069 C 
HETATM   14  N   UNL     1      40.291  41.476  66.350  1.00  0.00    -0.359 N 
HETATM   15  H   UNL     1      40.853  41.540  67.187  1.00  0.00     0.166 HD
HETATM   16  C   UNL     1      40.404  40.472  65.421  1.00  0.00     0.043 A 
HETATM   17  C   UNL     1      39.473  40.733  64.420  1.00  0.00     0.001 A 
HETATM   18  C   UNL     1      41.259  39.363  65.398  1.00  0.00     0.030 A 
HETATM   19  C   UNL     1      39.392  39.833  63.335  1.00  0.00     0.014 A 
HETATM   20  C   UNL     1      40.237  38.717  63.295  1.00  0.00     0.001 A 
HETATM   21  C   UNL     1      41.158  38.488  64.313  1.00  0.00     0.002 A 
ENDBRANCH   1  11
BRANCH   2  22
HETATM   22  C   UNL     1      39.033  44.519  62.970  1.00  0.00     0.229 C 
BRANCH  22  23
HETATM   23  C   UNL     1      40.023  45.354  63.788  1.00  0.00     0.235 C 
HETATM   24  N   UNL     1      39.554  46.590  64.179  1.00  0.00    -0.355 N 
HETATM   25  H   UNL     1      38.556  46.735  64.058  1.00  0.00     0.162 HD
HETATM   26  O   UNL     1      41.093  44.881  64.161  1.00  0.00    -0.272 OA
BRANCH  24  27
HETATM   27  C   UNL     1      40.231  47.465  65.133  1.00  0.00     0.084 C 
HETATM   28  C   UNL     1      40.127  48.953  64.747  1.00  0.00     0.025 C 
HETATM   29  C   UNL     1      39.220  49.755  65.676  1.00  0.00     0.002 C 
HETATM   30  C   UNL     1      39.632  49.644  67.144  1.00  0.00     0.000 C 
HETATM   31  C   UNL     1      40.294  48.314  67.505  1.00  0.00     0.002 C 
HETATM   32  C   UNL     1      39.843  47.181  66.593  1.00  0.00     0.025 C 
ENDBRANCH  24  27
ENDBRANCH  22  23
ENDBRANCH   2  22
TORSDOF 4
ENDMDL
MODEL 10
REMARK VINA RESULT:      -7.6     15.516     17.946
REMARK  4 active torsions:
REMARK  status: ('A' for Active; 'I' for Inactive)
REMARK    1  A    between atoms: C_7  and  C_8 
REMARK    2  A    between atoms: N_9  and  C_10 
REMARK    3  A    between atoms: C_10  and  C_11 
REMARK       I    between atoms: C_11  and  N_12 
REMARK    4  A    between atoms: N_12  and  C_13 
ROOT
HETATM    1  C   UNL     1      37.101  44.552  64.512  1.00  0.00     0.158 A 
HETATM    2  N   UNL     1      36.208  43.757  65.339  1.00  0.00    -0.326 N 
HETATM    3  C   UNL     1      36.387  42.402  65.155  1.00  0.00     0.255 A 
HETATM    4  O   UNL     1      35.707  41.495  65.594  1.00  0.00    -0.267 OA
HETATM    5  C   UNL     1      37.540  42.241  64.261  1.00  0.00     0.040 A 
HETATM    6  C   UNL     1      37.980  43.512  63.881  1.00  0.00    -0.015 A 
HETATM    7  C   UNL     1      38.149  41.075  63.834  1.00  0.00     0.017 A 
HETATM    8  C   UNL     1      39.249  41.202  62.985  1.00  0.00     0.001 A 
HETATM    9  C   UNL     1      39.701  42.474  62.583  1.00  0.00     0.001 A 
HETATM   10  C   UNL     1      39.064  43.639  63.025  1.00  0.00     0.011 A 
ENDROOT
BRANCH   1  11
HETATM   11  C   UNL     1      37.981  45.457  65.320  1.00  0.00     0.004 A 
HETATM   12  C   UNL     1      38.941  45.133  66.277  1.00  0.00     0.015 A 
HETATM   13  C   UNL     1      39.414  43.822  66.796  1.00  0.00     0.069 C 
HETATM   14  N   UNL     1      39.474  46.307  66.752  1.00  0.00    -0.359 N 
HETATM   15  H   UNL     1      40.191  46.374  67.460  1.00  0.00     0.166 HD
HETATM   16  C   UNL     1      38.898  47.389  66.134  1.00  0.00     0.043 A 
HETATM   17  C   UNL     1      37.960  46.894  65.232  1.00  0.00     0.001 A 
HETATM   18  C   UNL     1      39.140  48.757  66.310  1.00  0.00     0.030 A 
HETATM   19  C   UNL     1      37.224  47.821  64.462  1.00  0.00     0.014 A 
HETATM   20  C   UNL     1      37.452  49.193  64.623  1.00  0.00     0.001 A 
HETATM   21  C   UNL     1      38.397  49.652  65.537  1.00  0.00     0.002 A 
ENDBRANCH   1  11
BRANCH   2  22
HETATM   22  C   UNL     1      35.145  44.350  66.137  1.00  0.00     0.229 C 
BRANCH  22  23
HETATM   23  C   UNL     1      35.614  45.004  67.439  1.00  0.00     0.235 C 
HETATM   24  N   UNL     1      35.241  46.324  67.592  1.00  0.00    -0.355 N 
HETATM   25  H   UNL     1      34.543  46.657  66.934  1.00  0.00     0.162 HD
HETATM   26  O   UNL     1      36.165  44.346  68.318  1.00  0.00    -0.272 OA
BRANCH  24  27
HETATM   27  C   UNL     1      35.391  47.086  68.829  1.00  0.00     0.084 C 
HETATM   28  C   UNL     1      36.685  47.921  68.857  1.00  0.00     0.025 C 
HETATM   29  C   UNL     1      36.436  49.423  68.749  1.00  0.00     0.002 C 
HETATM   30  C   UNL     1      35.480  49.941  69.823  1.00  0.00     0.000 C 
HETATM   31  C   UNL     1      34.442  48.915  70.281  1.00  0.00     0.002 C 
HETATM   32  C   UNL     1      34.133  47.889  69.198  1.00  0.00     0.025 C 
ENDBRANCH  24  27
ENDBRANCH  22  23
ENDBRANCH   2  22
TORSDOF 4
ENDMDL
