MODEL 1
REMARK VINA RESULT:      -9.3      0.000      0.000
REMARK  6 active torsions:
REMARK  status: ('A' for Active; 'I' for Inactive)
REMARK    1  A    between atoms: C_2  and  O_3 
REMARK    2  A    between atoms: O_3  and  C_4 
REMARK    3  A    between atoms: C_7  and  C_8 
REMARK    4  A    between atoms: C_8  and  C_9 
REMARK       I    between atoms: C_9  and  N_10 
REMARK    5  A    between atoms: N_13  and  C_14 
REMARK    6  A    between atoms: C_18  and  C_19 
ROOT
HETATM    1  C   UNL     1      21.813  45.169  48.580  1.00  0.00     0.224 C 
HETATM    2  N   UNL     1      23.002  44.789  49.190  1.00  0.00    -0.349 N 
HETATM    3  C   UNL     1      22.942  43.732  50.212  1.00  0.00     0.145 C 
HETATM    4  C   UNL     1      24.235  42.901  50.287  1.00  0.00     0.144 C 
HETATM    5  N   UNL     1      25.411  43.782  50.420  1.00  0.00    -0.363 N 
HETATM    6  C   UNL     1      25.513  44.751  49.314  1.00  0.00     0.144 C 
HETATM    7  C   UNL     1      24.229  45.601  49.205  1.00  0.00     0.145 C 
HETATM    8  O   UNL     1      20.768  44.531  48.747  1.00  0.00    -0.273 OA
ENDROOT
BRANCH   5   9
HETATM    9  C   UNL     1      26.024  43.956  51.629  1.00  0.00     0.122 A 
HETATM   10  N   UNL     1      25.454  44.628  52.678  1.00  0.00    -0.262 N 
HETATM   11  H   UNL     1      24.547  45.073  52.707  1.00  0.00     0.191 HD
HETATM   12  N   UNL     1      26.223  44.717  53.772  1.00  0.00    -0.173 NA
HETATM   13  C   UNL     1      27.374  44.120  53.426  1.00  0.00     0.090 A 
HETATM   14  C   UNL     1      27.279  43.619  52.095  1.00  0.00     0.084 A 
BRANCH  13  15
HETATM   15  C   UNL     1      28.518  44.063  54.347  1.00  0.00    -0.005 A 
HETATM   16  C   UNL     1      28.789  45.140  55.208  1.00  0.00     0.015 A 
HETATM   17  C   UNL     1      29.886  45.113  56.076  1.00  0.00     0.024 A 
HETATM   18  C   UNL     1      30.725  44.003  56.091  1.00  0.00     0.034 A 
HETATM   19 CL   UNL     1      32.080  43.967  57.151  1.00  0.00    -0.084 Cl
HETATM   20  C   UNL     1      30.474  42.922  55.250  1.00  0.00     0.024 A 
HETATM   21  C   UNL     1      29.375  42.952  54.382  1.00  0.00     0.015 A 
ENDBRANCH  13  15
ENDBRANCH   5   9
BRANCH   1  22
HETATM   22  C   UNL     1      21.807  46.390  47.673  1.00  0.00     0.141 C 
BRANCH  22  23
HETATM   23  C   UNL     1      21.472  47.689  48.370  1.00  0.00    -0.049 A 
HETATM   24  C   UNL     1      22.382  48.755  48.397  1.00  0.00     0.010 A 
HETATM   25  C   UNL     1      22.037  49.981  48.979  1.00  0.00     0.037 A 
HETATM   26  C   UNL     1      20.770  50.166  49.526  1.00  0.00     0.068 A 
HETATM   27  C   UNL     1      19.862  49.106  49.512  1.00  0.00     0.037 A 
HETATM   28  C   UNL     1      20.202  47.881  48.930  1.00  0.00     0.010 A 
BRANCH  26  29
HETATM   29  O   UNL     1      20.302  51.316  50.098  1.00  0.00    -0.352 OA
BRANCH  29  30
HETATM   30  C   UNL     1      18.968  51.702  49.766  1.00  0.00     0.171 C 
HETATM   31  C   UNL     1      19.014  52.474  48.460  1.00  0.00     0.034 C 
ENDBRANCH  29  30
ENDBRANCH  26  29
ENDBRANCH  22  23
ENDBRANCH   1  22
TORSDOF 6
ENDMDL
MODEL 2
REMARK VINA RESULT:      -9.0      1.373      2.043
REMARK  6 active torsions:
REMARK  status: ('A' for Active; 'I' for Inactive)
REMARK    1  A    between atoms: C_2  and  O_3 
REMARK    2  A    between atoms: O_3  and  C_4 
REMARK    3  A    between atoms: C_7  and  C_8 
REMARK    4  A    between atoms: C_8  and  C_9 
REMARK       I    between atoms: C_9  and  N_10 
REMARK    5  A    between atoms: N_13  and  C_14 
REMARK    6  A    between atoms: C_18  and  C_19 
ROOT
HETATM    1  C   UNL     1      22.698  47.519  48.730  1.00  0.00     0.224 C 
HETATM    2  N   UNL     1      23.797  46.862  49.270  1.00  0.00    -0.349 N 
HETATM    3  C   UNL     1      23.575  45.539  49.878  1.00  0.00     0.145 C 
HETATM    4  C   UNL     1      24.804  44.621  49.773  1.00  0.00     0.144 C 
HETATM    5  N   UNL     1      26.009  45.307  50.280  1.00  0.00    -0.363 N 
HETATM    6  C   UNL     1      26.276  46.569  49.568  1.00  0.00     0.144 C 
HETATM    7  C   UNL     1      25.059  47.516  49.647  1.00  0.00     0.145 C 
HETATM    8  O   UNL     1      21.608  46.953  48.596  1.00  0.00    -0.273 OA
ENDROOT
BRANCH   5   9
HETATM    9  C   UNL     1      26.505  45.026  51.522  1.00  0.00     0.122 A 
HETATM   10  N   UNL     1      25.738  45.005  52.658  1.00  0.00    -0.262 N 
HETATM   11  H   UNL     1      24.748  45.189  52.737  1.00  0.00     0.191 HD
HETATM   12  N   UNL     1      26.411  44.737  53.785  1.00  0.00    -0.173 NA
HETATM   13  C   UNL     1      27.690  44.619  53.395  1.00  0.00     0.090 A 
HETATM   14  C   UNL     1      27.783  44.779  51.982  1.00  0.00     0.084 A 
BRANCH  13  15
HETATM   15  C   UNL     1      28.770  44.380  54.363  1.00  0.00    -0.005 A 
HETATM   16  C   UNL     1      29.525  43.196  54.307  1.00  0.00     0.015 A 
HETATM   17  C   UNL     1      30.541  42.942  55.234  1.00  0.00     0.024 A 
HETATM   18  C   UNL     1      30.814  43.873  56.230  1.00  0.00     0.034 A 
HETATM   19 CL   UNL     1      32.057  43.563  57.378  1.00  0.00    -0.084 Cl
HETATM   20  C   UNL     1      30.082  45.056  56.304  1.00  0.00     0.024 A 
HETATM   21  C   UNL     1      29.065  45.308  55.374  1.00  0.00     0.015 A 
ENDBRANCH  13  15
ENDBRANCH   5   9
BRANCH   1  22
HETATM   22  C   UNL     1      22.852  48.964  48.279  1.00  0.00     0.141 C 
BRANCH  22  23
HETATM   23  C   UNL     1      21.676  49.854  48.610  1.00  0.00    -0.049 A 
HETATM   24  C   UNL     1      21.489  50.361  49.904  1.00  0.00     0.010 A 
HETATM   25  C   UNL     1      20.441  51.245  50.186  1.00  0.00     0.037 A 
HETATM   26  C   UNL     1      19.574  51.650  49.174  1.00  0.00     0.068 A 
HETATM   27  C   UNL     1      19.747  51.142  47.886  1.00  0.00     0.037 A 
HETATM   28  C   UNL     1      20.794  50.261  47.600  1.00  0.00     0.010 A 
BRANCH  26  29
HETATM   29  O   UNL     1      18.531  52.524  49.312  1.00  0.00    -0.352 OA
BRANCH  29  30
HETATM   30  C   UNL     1      17.339  52.221  48.587  1.00  0.00     0.171 C 
HETATM   31  C   UNL     1      16.221  52.007  49.591  1.00  0.00     0.034 C 
ENDBRANCH  29  30
ENDBRANCH  26  29
ENDBRANCH  22  23
ENDBRANCH   1  22
TORSDOF 6
ENDMDL
MODEL 3
REMARK VINA RESULT:      -9.0      2.605      4.090
REMARK  6 active torsions:
REMARK  status: ('A' for Active; 'I' for Inactive)
REMARK    1  A    between atoms: C_2  and  O_3 
REMARK    2  A    between atoms: O_3  and  C_4 
REMARK    3  A    between atoms: C_7  and  C_8 
REMARK    4  A    between atoms: C_8  and  C_9 
REMARK       I    between atoms: C_9  and  N_10 
REMARK    5  A    between atoms: N_13  and  C_14 
REMARK    6  A    between atoms: C_18  and  C_19 
ROOT
HETATM    1  C   UNL     1      20.603  49.472  48.277  1.00  0.00     0.224 C 
HETATM    2  N   UNL     1      21.775  48.836  48.667  1.00  0.00    -0.349 N 
HETATM    3  C   UNL     1      21.738  47.375  48.843  1.00  0.00     0.145 C 
HETATM    4  C   UNL     1      23.091  46.705  48.550  1.00  0.00     0.144 C 
HETATM    5  N   UNL     1      24.172  47.362  49.311  1.00  0.00    -0.363 N 
HETATM    6  C   UNL     1      24.264  48.804  49.020  1.00  0.00     0.144 C 
HETATM    7  C   UNL     1      22.920  49.510  49.299  1.00  0.00     0.145 C 
HETATM    8  O   UNL     1      19.610  48.832  47.915  1.00  0.00    -0.273 OA
ENDROOT
BRANCH   5   9
HETATM    9  C   UNL     1      24.680  46.790  50.443  1.00  0.00     0.122 A 
HETATM   10  N   UNL     1      24.164  45.657  51.017  1.00  0.00    -0.262 N 
HETATM   11  H   UNL     1      23.372  45.112  50.704  1.00  0.00     0.191 HD
HETATM   12  N   UNL     1      24.781  45.265  52.140  1.00  0.00    -0.173 NA
HETATM   13  C   UNL     1      25.720  46.201  52.353  1.00  0.00     0.090 A 
HETATM   14  C   UNL     1      25.695  47.163  51.302  1.00  0.00     0.084 A 
BRANCH  13  15
HETATM   15  C   UNL     1      26.586  46.164  53.540  1.00  0.00    -0.005 A 
HETATM   16  C   UNL     1      26.718  47.299  54.358  1.00  0.00     0.015 A 
HETATM   17  C   UNL     1      27.555  47.289  55.479  1.00  0.00     0.024 A 
HETATM   18  C   UNL     1      28.271  46.139  55.794  1.00  0.00     0.034 A 
HETATM   19 CL   UNL     1      29.308  46.124  57.166  1.00  0.00    -0.084 Cl
HETATM   20  C   UNL     1      28.154  45.001  55.000  1.00  0.00     0.024 A 
HETATM   21  C   UNL     1      27.316  45.013  53.879  1.00  0.00     0.015 A 
ENDBRANCH  13  15
ENDBRANCH   5   9
BRANCH   1  22
HETATM   22  C   UNL     1      20.552  50.993  48.283  1.00  0.00     0.141 C 
BRANCH  22  23
HETATM   23  C   UNL     1      19.175  51.575  48.514  1.00  0.00    -0.049 A 
HETATM   24  C   UNL     1      18.327  51.883  47.441  1.00  0.00     0.010 A 
HETATM   25  C   UNL     1      17.027  52.351  47.664  1.00  0.00     0.037 A 
HETATM   26  C   UNL     1      16.548  52.500  48.964  1.00  0.00     0.068 A 
HETATM   27  C   UNL     1      17.390  52.205  50.037  1.00  0.00     0.037 A 
HETATM   28  C   UNL     1      18.688  51.735  49.818  1.00  0.00     0.010 A 
BRANCH  26  29
HETATM   29  O   UNL     1      15.295  52.921  49.314  1.00  0.00    -0.352 OA
BRANCH  29  30
HETATM   30  C   UNL     1      15.188  54.241  49.849  1.00  0.00     0.171 C 
HETATM   31  C   UNL     1      14.414  54.159  51.152  1.00  0.00     0.034 C 
ENDBRANCH  29  30
ENDBRANCH  26  29
ENDBRANCH  22  23
ENDBRANCH   1  22
TORSDOF 6
ENDMDL
MODEL 4
REMARK VINA RESULT:      -8.9      4.593     10.401
REMARK  6 active torsions:
REMARK  status: ('A' for Active; 'I' for Inactive)
REMARK    1  A    between atoms: C_2  and  O_3 
REMARK    2  A    between atoms: O_3  and  C_4 
REMARK    3  A    between atoms: C_7  and  C_8 
REMARK    4  A    between atoms: C_8  and  C_9 
REMARK       I    between atoms: C_9  and  N_10 
REMARK    5  A    between atoms: N_13  and  C_14 
REMARK    6  A    between atoms: C_18  and  C_19 
ROOT
HETATM    1  C   UNL     1      27.445  42.854  51.460  1.00  0.00     0.224 C 
HETATM    2  N   UNL     1      26.341  43.546  50.979  1.00  0.00    -0.349 N 
HETATM    3  C   UNL     1      26.438  44.143  49.636  1.00  0.00     0.145 C 
HETATM    4  C   UNL     1      25.080  44.219  48.918  1.00  0.00     0.144 C 
HETATM    5  N   UNL     1      24.072  44.866  49.780  1.00  0.00    -0.363 N 
HETATM    6  C   UNL     1      23.908  44.172  51.069  1.00  0.00     0.144 C 
HETATM    7  C   UNL     1      25.254  44.074  51.818  1.00  0.00     0.145 C 
HETATM    8  O   UNL     1      28.409  42.588  50.735  1.00  0.00    -0.273 OA
ENDROOT
BRANCH   5   9
HETATM    9  C   UNL     1      23.708  46.168  49.576  1.00  0.00     0.122 A 
HETATM   10  N   UNL     1      24.478  47.238  49.951  1.00  0.00    -0.262 N 
HETATM   11  H   UNL     1      25.377  47.220  50.412  1.00  0.00     0.191 HD
HETATM   12  N   UNL     1      23.938  48.437  49.691  1.00  0.00    -0.173 NA
HETATM   13  C   UNL     1      22.735  48.158  49.163  1.00  0.00     0.090 A 
HETATM   14  C   UNL     1      22.565  46.747  49.062  1.00  0.00     0.084 A 
BRANCH  13  15
HETATM   15  C   UNL     1      21.793  49.224  48.793  1.00  0.00    -0.005 A 
HETATM   16  C   UNL     1      21.725  50.405  49.552  1.00  0.00     0.015 A 
HETATM   17  C   UNL     1      20.819  51.421  49.229  1.00  0.00     0.024 A 
HETATM   18  C   UNL     1      19.968  51.264  48.140  1.00  0.00     0.034 A 
HETATM   19 CL   UNL     1      18.846  52.506  47.743  1.00  0.00    -0.084 Cl
HETATM   20  C   UNL     1      20.020  50.104  47.371  1.00  0.00     0.024 A 
HETATM   21  C   UNL     1      20.928  49.089  47.696  1.00  0.00     0.015 A 
ENDBRANCH  13  15
ENDBRANCH   5   9
BRANCH   1  22
HETATM   22  C   UNL     1      27.455  42.401  52.913  1.00  0.00     0.141 C 
BRANCH  22  23
HETATM   23  C   UNL     1      28.425  43.150  53.799  1.00  0.00    -0.049 A 
HETATM   24  C   UNL     1      28.096  44.400  54.343  1.00  0.00     0.010 A 
HETATM   25  C   UNL     1      28.968  45.053  55.222  1.00  0.00     0.037 A 
HETATM   26  C   UNL     1      30.174  44.458  55.586  1.00  0.00     0.068 A 
HETATM   27  C   UNL     1      30.512  43.219  55.041  1.00  0.00     0.037 A 
HETATM   28  C   UNL     1      29.643  42.563  54.164  1.00  0.00     0.010 A 
BRANCH  26  29
HETATM   29  O   UNL     1      31.097  44.977  56.451  1.00  0.00    -0.352 OA
BRANCH  29  30
HETATM   30  C   UNL     1      31.074  44.479  57.788  1.00  0.00     0.171 C 
HETATM   31  C   UNL     1      30.245  45.432  58.630  1.00  0.00     0.034 C 
ENDBRANCH  29  30
ENDBRANCH  26  29
ENDBRANCH  22  23
ENDBRANCH   1  22
TORSDOF 6
ENDMDL
MODEL 5
REMARK VINA RESULT:      -8.7      4.878     11.202
REMARK  6 active torsions:
REMARK  status: ('A' for Active; 'I' for Inactive)
REMARK    1  A    between atoms: C_2  and  O_3 
REMARK    2  A    between atoms: O_3  and  C_4 
REMARK    3  A    between atoms: C_7  and  C_8 
REMARK    4  A    between atoms: C_8  and  C_9 
REMARK       I    between atoms: C_9  and  N_10 
REMARK    5  A    between atoms: N_13  and  C_14 
REMARK    6  A    between atoms: C_18  and  C_19 
ROOT
HETATM    1  C   UNL     1      25.908  46.011  51.141  1.00  0.00     0.224 C 
HETATM    2  N   UNL     1      24.826  46.423  50.373  1.00  0.00    -0.349 N 
HETATM    3  C   UNL     1      24.548  47.867  50.298  1.00  0.00     0.145 C 
HETATM    4  C   UNL     1      23.896  48.281  48.968  1.00  0.00     0.144 C 
HETATM    5  N   UNL     1      22.717  47.439  48.684  1.00  0.00    -0.363 N 
HETATM    6  C   UNL     1      23.051  46.004  48.643  1.00  0.00     0.144 C 
HETATM    7  C   UNL     1      23.713  45.554  49.962  1.00  0.00     0.145 C 
HETATM    8  O   UNL     1      26.720  46.820  51.601  1.00  0.00    -0.273 OA
ENDROOT
BRANCH   5   9
HETATM    9  C   UNL     1      21.452  47.910  48.896  1.00  0.00     0.122 A 
HETATM   10  N   UNL     1      20.359  47.100  49.062  1.00  0.00    -0.262 N 
HETATM   11  H   UNL     1      20.332  46.089  49.048  1.00  0.00     0.191 HD
HETATM   12  N   UNL     1      19.199  47.749  49.230  1.00  0.00    -0.173 NA
HETATM   13  C   UNL     1      19.521  49.048  49.126  1.00  0.00     0.090 A 
HETATM   14  C   UNL     1      20.926  49.186  48.931  1.00  0.00     0.084 A 
BRANCH  13  15
HETATM   15  C   UNL     1      18.497  50.101  49.194  1.00  0.00    -0.005 A 
HETATM   16  C   UNL     1      17.215  49.878  48.663  1.00  0.00     0.015 A 
HETATM   17  C   UNL     1      16.235  50.877  48.698  1.00  0.00     0.024 A 
HETATM   18  C   UNL     1      16.530  52.111  49.267  1.00  0.00     0.034 A 
HETATM   19 CL   UNL     1      15.332  53.345  49.306  1.00  0.00    -0.084 Cl
HETATM   20  C   UNL     1      17.793  52.354  49.803  1.00  0.00     0.024 A 
HETATM   21  C   UNL     1      18.772  51.353  49.766  1.00  0.00     0.015 A 
ENDBRANCH  13  15
ENDBRANCH   5   9
BRANCH   1  22
HETATM   22  C   UNL     1      26.101  44.524  51.404  1.00  0.00     0.141 C 
BRANCH  22  23
HETATM   23  C   UNL     1      27.182  44.199  52.410  1.00  0.00    -0.049 A 
HETATM   24  C   UNL     1      26.970  44.371  53.785  1.00  0.00     0.010 A 
HETATM   25  C   UNL     1      27.947  43.998  54.716  1.00  0.00     0.037 A 
HETATM   26  C   UNL     1      29.144  43.428  54.286  1.00  0.00     0.068 A 
HETATM   27  C   UNL     1      29.365  43.263  52.918  1.00  0.00     0.037 A 
HETATM   28  C   UNL     1      28.392  43.633  51.986  1.00  0.00     0.010 A 
BRANCH  26  29
HETATM   29  O   UNL     1      30.163  42.999  55.090  1.00  0.00    -0.352 OA
BRANCH  29  30
HETATM   30  C   UNL     1      30.831  43.994  55.866  1.00  0.00     0.171 C 
HETATM   31  C   UNL     1      31.628  43.289  56.948  1.00  0.00     0.034 C 
ENDBRANCH  29  30
ENDBRANCH  26  29
ENDBRANCH  22  23
ENDBRANCH   1  22
TORSDOF 6
ENDMDL
MODEL 6
REMARK VINA RESULT:      -8.5      3.407      4.325
REMARK  6 active torsions:
REMARK  status: ('A' for Active; 'I' for Inactive)
REMARK    1  A    between atoms: C_2  and  O_3 
REMARK    2  A    between atoms: O_3  and  C_4 
REMARK    3  A    between atoms: C_7  and  C_8 
REMARK    4  A    between atoms: C_8  and  C_9 
REMARK       I    between atoms: C_9  and  N_10 
REMARK    5  A    between atoms: N_13  and  C_14 
REMARK    6  A    between atoms: C_18  and  C_19 
ROOT
HETATM    1  C   UNL     1      23.458  48.864  49.024  1.00  0.00     0.224 C 
HETATM    2  N   UNL     1      23.802  47.591  49.462  1.00  0.00    -0.349 N 
HETATM    3  C   UNL     1      25.020  47.451  50.277  1.00  0.00     0.145 C 
HETATM    4  C   UNL     1      24.941  46.281  51.272  1.00  0.00     0.144 C 
HETATM    5  N   UNL     1      24.550  45.037  50.580  1.00  0.00    -0.363 N 
HETATM    6  C   UNL     1      23.263  45.170  49.873  1.00  0.00     0.144 C 
HETATM    7  C   UNL     1      23.304  46.340  48.868  1.00  0.00     0.145 C 
HETATM    8  O   UNL     1      24.039  49.870  49.443  1.00  0.00    -0.273 OA
ENDROOT
BRANCH   5   9
HETATM    9  C   UNL     1      25.479  44.083  50.274  1.00  0.00     0.122 A 
HETATM   10  N   UNL     1      26.062  43.961  49.040  1.00  0.00    -0.262 N 
HETATM   11  H   UNL     1      25.895  44.526  48.219  1.00  0.00     0.191 HD
HETATM   12  N   UNL     1      26.930  42.946  48.926  1.00  0.00    -0.173 NA
HETATM   13  C   UNL     1      26.892  42.334  50.121  1.00  0.00     0.090 A 
HETATM   14  C   UNL     1      26.005  43.029  50.994  1.00  0.00     0.084 A 
BRANCH  13  15
HETATM   15  C   UNL     1      27.672  41.117  50.386  1.00  0.00    -0.005 A 
HETATM   16  C   UNL     1      28.307  40.938  51.626  1.00  0.00     0.015 A 
HETATM   17  C   UNL     1      29.072  39.796  51.888  1.00  0.00     0.024 A 
HETATM   18  C   UNL     1      29.210  38.819  50.908  1.00  0.00     0.034 A 
HETATM   19 CL   UNL     1      30.156  37.417  51.221  1.00  0.00    -0.084 Cl
HETATM   20  C   UNL     1      28.586  38.972  49.672  1.00  0.00     0.024 A 
HETATM   21  C   UNL     1      27.821  40.116  49.412  1.00  0.00     0.015 A 
ENDBRANCH  13  15
ENDBRANCH   5   9
BRANCH   1  22
HETATM   22  C   UNL     1      22.327  49.016  48.017  1.00  0.00     0.141 C 
BRANCH  22  23
HETATM   23  C   UNL     1      21.053  49.599  48.586  1.00  0.00    -0.049 A 
HETATM   24  C   UNL     1      20.221  48.845  49.426  1.00  0.00     0.010 A 
HETATM   25  C   UNL     1      19.083  49.414  50.010  1.00  0.00     0.037 A 
HETATM   26  C   UNL     1      18.769  50.751  49.776  1.00  0.00     0.068 A 
HETATM   27  C   UNL     1      19.587  51.504  48.933  1.00  0.00     0.037 A 
HETATM   28  C   UNL     1      20.725  50.940  48.351  1.00  0.00     0.010 A 
BRANCH  26  29
HETATM   29  O   UNL     1      17.706  51.430  50.304  1.00  0.00    -0.352 OA
BRANCH  29  30
HETATM   30  C   UNL     1      17.354  52.661  49.673  1.00  0.00     0.171 C 
HETATM   31  C   UNL     1      15.840  52.772  49.670  1.00  0.00     0.034 C 
ENDBRANCH  29  30
ENDBRANCH  26  29
ENDBRANCH  22  23
ENDBRANCH   1  22
TORSDOF 6
ENDMDL
MODEL 7
REMARK VINA RESULT:      -8.4     18.981     20.955
REMARK  6 active torsions:
REMARK  status: ('A' for Active; 'I' for Inactive)
REMARK    1  A    between atoms: C_2  and  O_3 
REMARK    2  A    between atoms: O_3  and  C_4 
REMARK    3  A    between atoms: C_7  and  C_8 
REMARK    4  A    between atoms: C_8  and  C_9 
REMARK       I    between atoms: C_9  and  N_10 
REMARK    5  A    between atoms: N_13  and  C_14 
REMARK    6  A    between atoms: C_18  and  C_19 
ROOT
HETATM    1  C   UNL     1      37.128  46.220  64.496  1.00  0.00     0.224 C 
HETATM    2  N   UNL     1      38.085  45.225  64.337  1.00  0.00    -0.349 N 
HETATM    3  C   UNL     1      38.092  44.477  63.069  1.00  0.00     0.145 C 
HETATM    4  C   UNL     1      39.494  43.980  62.678  1.00  0.00     0.144 C 
HETATM    5  N   UNL     1      40.117  43.247  63.798  1.00  0.00    -0.363 N 
HETATM    6  C   UNL     1      40.208  44.065  65.020  1.00  0.00     0.144 C 
HETATM    7  C   UNL     1      38.818  44.586  65.441  1.00  0.00     0.145 C 
HETATM    8  O   UNL     1      36.423  46.595  63.554  1.00  0.00    -0.273 OA
ENDROOT
BRANCH   5   9
HETATM    9  C   UNL     1      40.161  41.881  63.803  1.00  0.00     0.122 A 
HETATM   10  N   UNL     1      39.513  41.098  62.883  1.00  0.00    -0.262 N 
HETATM   11  H   UNL     1      38.936  41.402  62.111  1.00  0.00     0.191 HD
HETATM   12  N   UNL     1      39.653  39.779  63.070  1.00  0.00    -0.173 NA
HETATM   13  C   UNL     1      40.388  39.673  64.189  1.00  0.00     0.090 A 
HETATM   14  C   UNL     1      40.736  40.970  64.666  1.00  0.00     0.084 A 
BRANCH  13  15
HETATM   15  C   UNL     1      40.714  38.364  64.773  1.00  0.00    -0.005 A 
HETATM   16  C   UNL     1      39.900  37.812  65.777  1.00  0.00     0.015 A 
HETATM   17  C   UNL     1      40.208  36.577  66.359  1.00  0.00     0.024 A 
HETATM   18  C   UNL     1      41.338  35.881  65.942  1.00  0.00     0.034 A 
HETATM   19 CL   UNL     1      41.726  34.367  66.660  1.00  0.00    -0.084 Cl
HETATM   20  C   UNL     1      42.158  36.407  64.946  1.00  0.00     0.024 A 
HETATM   21  C   UNL     1      41.847  37.642  64.364  1.00  0.00     0.015 A 
ENDBRANCH  13  15
ENDBRANCH   5   9
BRANCH   1  22
HETATM   22  C   UNL     1      36.962  46.871  65.862  1.00  0.00     0.141 C 
BRANCH  22  23
HETATM   23  C   UNL     1      37.633  48.218  66.002  1.00  0.00    -0.049 A 
HETATM   24  C   UNL     1      38.708  48.584  65.179  1.00  0.00     0.010 A 
HETATM   25  C   UNL     1      39.276  49.861  65.263  1.00  0.00     0.037 A 
HETATM   26  C   UNL     1      38.766  50.798  66.159  1.00  0.00     0.068 A 
HETATM   27  C   UNL     1      37.703  50.438  66.988  1.00  0.00     0.037 A 
HETATM   28  C   UNL     1      37.132  49.164  66.906  1.00  0.00     0.010 A 
BRANCH  26  29
HETATM   29  O   UNL     1      39.212  52.081  66.319  1.00  0.00    -0.352 OA
BRANCH  29  30
HETATM   30  C   UNL     1      38.437  52.928  67.168  1.00  0.00     0.171 C 
HETATM   31  C   UNL     1      37.793  53.996  66.302  1.00  0.00     0.034 C 
ENDBRANCH  29  30
ENDBRANCH  26  29
ENDBRANCH  22  23
ENDBRANCH   1  22
TORSDOF 6
ENDMDL
MODEL 8
REMARK VINA RESULT:      -8.4      5.368     11.419
REMARK  6 active torsions:
REMARK  status: ('A' for Active; 'I' for Inactive)
REMARK    1  A    between atoms: C_2  and  O_3 
REMARK    2  A    between atoms: O_3  and  C_4 
REMARK    3  A    between atoms: C_7  and  C_8 
REMARK    4  A    between atoms: C_8  and  C_9 
REMARK       I    between atoms: C_9  and  N_10 
REMARK    5  A    between atoms: N_13  and  C_14 
REMARK    6  A    between atoms: C_18  and  C_19 
ROOT
HETATM    1  C   UNL     1      25.411  47.792  49.606  1.00  0.00     0.224 C 
HETATM    2  N   UNL     1      24.180  48.238  49.139  1.00  0.00    -0.349 N 
HETATM    3  C   UNL     1      23.972  49.691  49.034  1.00  0.00     0.145 C 
HETATM    4  C   UNL     1      22.996  50.074  47.909  1.00  0.00     0.144 C 
HETATM    5  N   UNL     1      21.740  49.307  48.028  1.00  0.00    -0.363 N 
HETATM    6  C   UNL     1      21.970  47.852  48.006  1.00  0.00     0.144 C 
HETATM    7  C   UNL     1      22.951  47.431  49.120  1.00  0.00     0.145 C 
HETATM    8  O   UNL     1      26.362  48.563  49.760  1.00  0.00    -0.273 OA
ENDROOT
BRANCH   5   9
HETATM    9  C   UNL     1      20.614  49.882  48.545  1.00  0.00     0.122 A 
HETATM   10  N   UNL     1      20.111  49.583  49.784  1.00  0.00    -0.262 N 
HETATM   11  H   UNL     1      20.478  48.925  50.458  1.00  0.00     0.191 HD
HETATM   12  N   UNL     1      18.981  50.230  50.104  1.00  0.00    -0.173 NA
HETATM   13  C   UNL     1      18.691  50.959  49.014  1.00  0.00     0.090 A 
HETATM   14  C   UNL     1      19.700  50.777  48.025  1.00  0.00     0.084 A 
BRANCH  13  15
HETATM   15  C   UNL     1      17.472  51.778  48.940  1.00  0.00    -0.005 A 
HETATM   16  C   UNL     1      17.162  52.682  49.970  1.00  0.00     0.015 A 
HETATM   17  C   UNL     1      15.996  53.454  49.928  1.00  0.00     0.024 A 
HETATM   18  C   UNL     1      15.125  53.326  48.851  1.00  0.00     0.034 A 
HETATM   19 CL   UNL     1      13.685  54.266  48.798  1.00  0.00    -0.084 Cl
HETATM   20  C   UNL     1      15.412  52.439  47.817  1.00  0.00     0.024 A 
HETATM   21  C   UNL     1      16.581  51.668  47.861  1.00  0.00     0.015 A 
ENDBRANCH  13  15
ENDBRANCH   5   9
BRANCH   1  22
HETATM   22  C   UNL     1      25.588  46.313  49.918  1.00  0.00     0.141 C 
BRANCH  22  23
HETATM   23  C   UNL     1      26.143  46.022  51.294  1.00  0.00    -0.049 A 
HETATM   24  C   UNL     1      25.776  46.798  52.404  1.00  0.00     0.010 A 
HETATM   25  C   UNL     1      26.235  46.478  53.688  1.00  0.00     0.037 A 
HETATM   26  C   UNL     1      27.052  45.367  53.884  1.00  0.00     0.068 A 
HETATM   27  C   UNL     1      27.429  44.597  52.783  1.00  0.00     0.037 A 
HETATM   28  C   UNL     1      26.972  44.912  51.500  1.00  0.00     0.010 A 
BRANCH  26  29
HETATM   29  O   UNL     1      27.544  44.934  55.084  1.00  0.00    -0.352 OA
BRANCH  29  30
HETATM   30  C   UNL     1      28.958  44.757  55.172  1.00  0.00     0.171 C 
HETATM   31  C   UNL     1      29.522  45.891  56.009  1.00  0.00     0.034 C 
ENDBRANCH  29  30
ENDBRANCH  26  29
ENDBRANCH  22  23
ENDBRANCH   1  22
TORSDOF 6
ENDMDL
MODEL 9
REMARK VINA RESULT:      -7.9     19.219     22.180
REMARK  6 active torsions:
REMARK  status: ('A' for Active; 'I' for Inactive)
REMARK    1  A    between atoms: C_2  and  O_3 
REMARK    2  A    between atoms: O_3  and  C_4 
REMARK    3  A    between atoms: C_7  and  C_8 
REMARK    4  A    between atoms: C_8  and  C_9 
REMARK       I    between atoms: C_9  and  N_10 
REMARK    5  A    between atoms: N_13  and  C_14 
REMARK    6  A    between atoms: C_18  and  C_19 
ROOT
HETATM    1  C   UNL     1      38.028  44.202  63.462  1.00  0.00     0.224 C 
HETATM    2  N   UNL     1      38.234  45.248  64.353  1.00  0.00    -0.349 N 
HETATM    3  C   UNL     1      37.052  45.982  64.835  1.00  0.00     0.145 C 
HETATM    4  C   UNL     1      37.241  46.553  66.251  1.00  0.00     0.144 C 
HETATM    5  N   UNL     1      38.492  47.332  66.334  1.00  0.00    -0.363 N 
HETATM    6  C   UNL     1      39.674  46.533  65.963  1.00  0.00     0.144 C 
HETATM    7  C   UNL     1      39.518  45.939  64.548  1.00  0.00     0.145 C 
HETATM    8  O   UNL     1      36.895  43.778  63.214  1.00  0.00    -0.273 OA
ENDROOT
BRANCH   5   9
HETATM    9  C   UNL     1      38.470  48.697  66.308  1.00  0.00     0.122 A 
HETATM   10  N   UNL     1      39.337  49.456  65.564  1.00  0.00    -0.262 N 
HETATM   11  H   UNL     1      40.082  49.131  64.963  1.00  0.00     0.191 HD
HETATM   12  N   UNL     1      39.177  50.780  65.691  1.00  0.00    -0.173 NA
HETATM   13  C   UNL     1      38.192  50.915  66.593  1.00  0.00     0.090 A 
HETATM   14  C   UNL     1      37.716  49.632  66.989  1.00  0.00     0.084 A 
BRANCH  13  15
HETATM   15  C   UNL     1      37.753  52.239  67.059  1.00  0.00    -0.005 A 
HETATM   16  C   UNL     1      37.191  52.390  68.338  1.00  0.00     0.015 A 
HETATM   17  C   UNL     1      36.747  53.638  68.789  1.00  0.00     0.024 A 
HETATM   18  C   UNL     1      36.862  54.750  67.962  1.00  0.00     0.034 A 
HETATM   19 CL   UNL     1      36.310  56.285  68.508  1.00  0.00    -0.084 Cl
HETATM   20  C   UNL     1      37.419  54.626  66.692  1.00  0.00     0.024 A 
HETATM   21  C   UNL     1      37.863  53.375  66.242  1.00  0.00     0.015 A 
ENDBRANCH  13  15
ENDBRANCH   5   9
BRANCH   1  22
HETATM   22  C   UNL     1      39.232  43.558  62.791  1.00  0.00     0.141 C 
BRANCH  22  23
HETATM   23  C   UNL     1      39.596  42.193  63.328  1.00  0.00    -0.049 A 
HETATM   24  C   UNL     1      39.107  41.022  62.731  1.00  0.00     0.010 A 
HETATM   25  C   UNL     1      39.507  39.760  63.187  1.00  0.00     0.037 A 
HETATM   26  C   UNL     1      40.417  39.650  64.236  1.00  0.00     0.068 A 
HETATM   27  C   UNL     1      40.901  40.810  64.842  1.00  0.00     0.037 A 
HETATM   28  C   UNL     1      40.505  42.072  64.388  1.00  0.00     0.010 A 
BRANCH  26  29
HETATM   29  O   UNL     1      40.906  38.483  64.756  1.00  0.00    -0.352 OA
BRANCH  29  30
HETATM   30  C   UNL     1      40.644  38.238  66.138  1.00  0.00     0.171 C 
HETATM   31  C   UNL     1      40.095  36.828  66.268  1.00  0.00     0.034 C 
ENDBRANCH  29  30
ENDBRANCH  26  29
ENDBRANCH  22  23
ENDBRANCH   1  22
TORSDOF 6
ENDMDL
MODEL 10
REMARK VINA RESULT:      -7.9      4.182      5.456
REMARK  6 active torsions:
REMARK  status: ('A' for Active; 'I' for Inactive)
REMARK    1  A    between atoms: C_2  and  O_3 
REMARK    2  A    between atoms: O_3  and  C_4 
REMARK    3  A    between atoms: C_7  and  C_8 
REMARK    4  A    between atoms: C_8  and  C_9 
REMARK       I    between atoms: C_9  and  N_10 
REMARK    5  A    between atoms: N_13  and  C_14 
REMARK    6  A    between atoms: C_18  and  C_19 
ROOT
HETATM    1  C   UNL     1      23.853  47.364  49.536  1.00  0.00     0.224 C 
HETATM    2  N   UNL     1      23.959  46.020  49.876  1.00  0.00    -0.349 N 
HETATM    3  C   UNL     1      25.006  45.636  50.837  1.00  0.00     0.145 C 
HETATM    4  C   UNL     1      24.622  44.405  51.675  1.00  0.00     0.144 C 
HETATM    5  N   UNL     1      24.189  43.296  50.802  1.00  0.00    -0.363 N 
HETATM    6  C   UNL     1      23.058  43.674  49.937  1.00  0.00     0.144 C 
HETATM    7  C   UNL     1      23.405  44.912  49.083  1.00  0.00     0.145 C 
HETATM    8  O   UNL     1      24.484  48.235  50.143  1.00  0.00    -0.273 OA
ENDROOT
BRANCH   5   9
HETATM    9  C   UNL     1      25.026  42.251  50.530  1.00  0.00     0.122 A 
HETATM   10  N   UNL     1      25.923  41.743  51.433  1.00  0.00    -0.262 N 
HETATM   11  H   UNL     1      26.090  42.055  52.380  1.00  0.00     0.191 HD
HETATM   12  N   UNL     1      26.677  40.735  50.972  1.00  0.00    -0.173 NA
HETATM   13  C   UNL     1      26.300  40.593  49.691  1.00  0.00     0.090 A 
HETATM   14  C   UNL     1      25.258  41.515  49.385  1.00  0.00     0.084 A 
BRANCH  13  15
HETATM   15  C   UNL     1      26.946  39.613  48.805  1.00  0.00    -0.005 A 
HETATM   16  C   UNL     1      28.138  38.980  49.197  1.00  0.00     0.015 A 
HETATM   17  C   UNL     1      28.779  38.062  48.358  1.00  0.00     0.024 A 
HETATM   18  C   UNL     1      28.231  37.767  47.114  1.00  0.00     0.034 A 
HETATM   19 CL   UNL     1      29.018  36.645  46.075  1.00  0.00    -0.084 Cl
HETATM   20  C   UNL     1      27.048  38.378  46.706  1.00  0.00     0.024 A 
HETATM   21  C   UNL     1      26.409  39.297  47.547  1.00  0.00     0.015 A 
ENDBRANCH  13  15
ENDBRANCH   5   9
BRANCH   1  22
HETATM   22  C   UNL     1      22.924  47.765  48.400  1.00  0.00     0.141 C 
BRANCH  22  23
HETATM   23  C   UNL     1      22.019  48.936  48.712  1.00  0.00    -0.049 A 
HETATM   24  C   UNL     1      22.412  50.253  48.433  1.00  0.00     0.010 A 
HETATM   25  C   UNL     1      21.540  51.325  48.655  1.00  0.00     0.037 A 
HETATM   26  C   UNL     1      20.256  51.096  49.142  1.00  0.00     0.068 A 
HETATM   27  C   UNL     1      19.861  49.789  49.432  1.00  0.00     0.037 A 
HETATM   28  C   UNL     1      20.728  48.716  49.210  1.00  0.00     0.010 A 
BRANCH  26  29
HETATM   29  O   UNL     1      19.304  52.050  49.376  1.00  0.00    -0.352 OA
BRANCH  29  30
HETATM   30  C   UNL     1      18.041  51.590  49.858  1.00  0.00     0.171 C 
HETATM   31  C   UNL     1      17.049  52.733  49.738  1.00  0.00     0.034 C 
ENDBRANCH  29  30
ENDBRANCH  26  29
ENDBRANCH  22  23
ENDBRANCH   1  22
TORSDOF 6
ENDMDL
