MODEL 1
REMARK VINA RESULT:      -9.7      0.000      0.000
REMARK  5 active torsions:
REMARK  status: ('A' for Active; 'I' for Inactive)
REMARK    1  A    between atoms: C_11  and  N_12 
REMARK    2  A    between atoms: N_12  and  N_13 
REMARK       I    between atoms: N_13  and  C_14 
REMARK    3  A    between atoms: C_14  and  C_15 
REMARK    4  A    between atoms: C_15  and  C_16 
REMARK    5  A    between atoms: N_23  and  C_24 
ROOT
HETATM    1  C   UNL     1      26.460  39.168  47.224  1.00  0.00     0.046 C 
HETATM    2  C   UNL     1      27.245  39.875  48.337  1.00  0.00     0.058 C 
HETATM    3  C   UNL     1      28.686  40.096  47.846  1.00  0.00     0.046 C 
HETATM    4  O   UNL     1      27.211  38.981  49.473  1.00  0.00    -0.376 OA
HETATM    5  C   UNL     1      27.917  39.429  50.647  1.00  0.00     0.215 C 
HETATM    6  C   UNL     1      27.583  40.859  50.917  1.00  0.00     0.016 A 
HETATM    7  C   UNL     1      26.963  41.713  50.027  1.00  0.00    -0.021 A 
HETATM    8  C   UNL     1      26.793  43.017  50.588  1.00  0.00     0.077 A 
HETATM    9  C   UNL     1      27.317  43.109  51.854  1.00  0.00     0.133 A 
HETATM   10  N   UNL     1      27.302  44.194  52.659  1.00  0.00    -0.054 NA
HETATM   11  C   UNL     1      26.730  45.271  52.169  1.00  0.00     0.730 A 
HETATM   12  N   UNL     1      26.211  45.334  50.852  1.00  0.00    -0.107 N 
HETATM   13  C   UNL     1      26.179  44.199  50.015  1.00  0.00     0.280 A 
HETATM   14  O   UNL     1      25.716  44.167  48.877  1.00  0.00    -0.266 OA
HETATM   15  S   UNL     1      27.995  41.630  52.376  1.00  0.00    -0.071 SA
HETATM   16  C   UNL     1      26.535  41.214  48.682  1.00  0.00     0.078 C 
ENDROOT
BRANCH  11  17
HETATM   17  N   UNL     1      26.584  46.349  53.028  1.00  0.00    -0.127 N 
HETATM   18  H   UNL     1      26.778  47.301  52.720  1.00  0.00     0.206 HD
BRANCH  17  19
HETATM   19  N   UNL     1      26.874  46.122  54.383  1.00  0.00    -0.255 N 
HETATM   20  C   UNL     1      27.858  46.917  54.938  1.00  0.00     0.240 C 
HETATM   21  O   UNL     1      28.367  47.854  54.321  1.00  0.00    -0.272 OA
HETATM   22  H   UNL     1      26.675  45.176  54.711  1.00  0.00     0.190 HD
BRANCH  20  23
HETATM   23  C   UNL     1      28.223  46.560  56.367  1.00  0.00     0.143 C 
BRANCH  23  24
HETATM   24  C   UNL     1      29.357  45.569  56.490  1.00  0.00    -0.049 A 
HETATM   25  C   UNL     1      30.083  45.445  57.683  1.00  0.00     0.007 A 
HETATM   26  C   UNL     1      31.099  44.495  57.803  1.00  0.00     0.001 A 
HETATM   27  C   UNL     1      31.392  43.647  56.738  1.00  0.00     0.000 A 
HETATM   28  C   UNL     1      30.671  43.752  55.551  1.00  0.00     0.001 A 
HETATM   29  C   UNL     1      29.658  44.706  55.427  1.00  0.00     0.007 A 
ENDBRANCH  23  24
ENDBRANCH  20  23
ENDBRANCH  17  19
ENDBRANCH  11  17
BRANCH  12  30
HETATM   30  C   UNL     1      25.746  46.573  50.298  1.00  0.00     0.060 A 
HETATM   31  C   UNL     1      26.647  47.499  49.753  1.00  0.00     0.030 A 
HETATM   32  C   UNL     1      26.190  48.702  49.210  1.00  0.00     0.002 A 
HETATM   33  C   UNL     1      24.829  49.000  49.217  1.00  0.00     0.000 A 
HETATM   34  C   UNL     1      23.924  48.100  49.775  1.00  0.00     0.002 A 
HETATM   35  C   UNL     1      24.380  46.898  50.320  1.00  0.00     0.030 A 
ENDBRANCH  12  30
TORSDOF 5
ENDMDL
MODEL 2
REMARK VINA RESULT:      -9.5      3.767      7.184
REMARK  5 active torsions:
REMARK  status: ('A' for Active; 'I' for Inactive)
REMARK    1  A    between atoms: C_11  and  N_12 
REMARK    2  A    between atoms: N_12  and  N_13 
REMARK       I    between atoms: N_13  and  C_14 
REMARK    3  A    between atoms: C_14  and  C_15 
REMARK    4  A    between atoms: C_15  and  C_16 
REMARK    5  A    between atoms: N_23  and  C_24 
ROOT
HETATM    1  C   UNL     1      18.197  48.412  46.016  1.00  0.00     0.046 C 
HETATM    2  C   UNL     1      19.075  48.857  47.193  1.00  0.00     0.058 C 
HETATM    3  C   UNL     1      18.201  48.904  48.457  1.00  0.00     0.046 C 
HETATM    4  O   UNL     1      19.562  50.173  46.846  1.00  0.00    -0.376 OA
HETATM    5  C   UNL     1      20.400  50.814  47.827  1.00  0.00     0.215 C 
HETATM    6  C   UNL     1      21.415  49.841  48.331  1.00  0.00     0.016 A 
HETATM    7  C   UNL     1      21.371  48.475  48.139  1.00  0.00    -0.021 A 
HETATM    8  C   UNL     1      22.488  47.826  48.753  1.00  0.00     0.077 A 
HETATM    9  C   UNL     1      23.307  48.712  49.407  1.00  0.00     0.133 A 
HETATM   10  N   UNL     1      24.449  48.422  50.068  1.00  0.00    -0.054 NA
HETATM   11  C   UNL     1      24.803  47.156  50.087  1.00  0.00     0.730 A 
HETATM   12  N   UNL     1      24.014  46.130  49.510  1.00  0.00    -0.107 N 
HETATM   13  C   UNL     1      22.843  46.420  48.779  1.00  0.00     0.280 A 
HETATM   14  O   UNL     1      22.127  45.589  48.223  1.00  0.00    -0.266 OA
HETATM   15  S   UNL     1      22.749  50.321  49.272  1.00  0.00    -0.071 SA
HETATM   16  C   UNL     1      20.261  47.864  47.341  1.00  0.00     0.078 C 
ENDROOT
BRANCH  11  17
HETATM   17  N   UNL     1      26.038  46.858  50.640  1.00  0.00    -0.127 N 
HETATM   18  H   UNL     1      26.737  46.330  50.118  1.00  0.00     0.206 HD
BRANCH  17  19
HETATM   19  N   UNL     1      26.072  46.629  52.025  1.00  0.00    -0.255 N 
HETATM   20  C   UNL     1      26.673  45.454  52.435  1.00  0.00     0.240 C 
HETATM   21  O   UNL     1      27.257  44.709  51.646  1.00  0.00    -0.272 OA
HETATM   22  H   UNL     1      25.326  47.083  52.553  1.00  0.00     0.190 HD
BRANCH  20  23
HETATM   23  C   UNL     1      26.584  45.190  53.926  1.00  0.00     0.143 C 
BRANCH  23  24
HETATM   24  C   UNL     1      27.909  44.880  54.583  1.00  0.00    -0.049 A 
HETATM   25  C   UNL     1      28.544  43.646  54.381  1.00  0.00     0.007 A 
HETATM   26  C   UNL     1      29.791  43.385  54.954  1.00  0.00     0.001 A 
HETATM   27  C   UNL     1      30.424  44.358  55.723  1.00  0.00     0.000 A 
HETATM   28  C   UNL     1      29.809  45.592  55.921  1.00  0.00     0.001 A 
HETATM   29  C   UNL     1      28.559  45.853  55.354  1.00  0.00     0.007 A 
ENDBRANCH  23  24
ENDBRANCH  20  23
ENDBRANCH  17  19
ENDBRANCH  11  17
BRANCH  12  30
HETATM   30  C   UNL     1      24.349  44.747  49.694  1.00  0.00     0.060 A 
HETATM   31  C   UNL     1      25.219  44.095  48.809  1.00  0.00     0.030 A 
HETATM   32  C   UNL     1      25.548  42.751  48.995  1.00  0.00     0.002 A 
HETATM   33  C   UNL     1      25.001  42.038  50.059  1.00  0.00     0.000 A 
HETATM   34  C   UNL     1      24.117  42.665  50.933  1.00  0.00     0.002 A 
HETATM   35  C   UNL     1      23.786  44.009  50.749  1.00  0.00     0.030 A 
ENDBRANCH  12  30
TORSDOF 5
ENDMDL
MODEL 3
REMARK VINA RESULT:      -9.4      4.126      8.861
REMARK  5 active torsions:
REMARK  status: ('A' for Active; 'I' for Inactive)
REMARK    1  A    between atoms: C_11  and  N_12 
REMARK    2  A    between atoms: N_12  and  N_13 
REMARK       I    between atoms: N_13  and  C_14 
REMARK    3  A    between atoms: C_14  and  C_15 
REMARK    4  A    between atoms: C_15  and  C_16 
REMARK    5  A    between atoms: N_23  and  C_24 
ROOT
HETATM    1  C   UNL     1      28.372  44.893  54.004  1.00  0.00     0.046 C 
HETATM    2  C   UNL     1      27.023  44.458  53.416  1.00  0.00     0.058 C 
HETATM    3  C   UNL     1      26.010  44.341  54.567  1.00  0.00     0.046 C 
HETATM    4  O   UNL     1      27.259  43.174  52.795  1.00  0.00    -0.376 OA
HETATM    5  C   UNL     1      26.112  42.548  52.189  1.00  0.00     0.215 C 
HETATM    6  C   UNL     1      25.365  43.552  51.375  1.00  0.00     0.016 A 
HETATM    7  C   UNL     1      25.543  44.919  51.439  1.00  0.00    -0.021 A 
HETATM    8  C   UNL     1      24.669  45.603  50.537  1.00  0.00     0.077 A 
HETATM    9  C   UNL     1      23.846  44.738  49.858  1.00  0.00     0.133 A 
HETATM   10  N   UNL     1      22.924  45.062  48.925  1.00  0.00    -0.054 NA
HETATM   11  C   UNL     1      22.804  46.342  48.650  1.00  0.00     0.730 A 
HETATM   12  N   UNL     1      23.541  47.345  49.325  1.00  0.00    -0.107 N 
HETATM   13  C   UNL     1      24.539  47.022  50.269  1.00  0.00     0.280 A 
HETATM   14  O   UNL     1      25.241  47.833  50.869  1.00  0.00    -0.266 OA
HETATM   15  S   UNL     1      24.134  43.109  50.287  1.00  0.00    -0.071 SA
HETATM   16  C   UNL     1      26.579  45.500  52.351  1.00  0.00     0.078 C 
ENDROOT
BRANCH  11  17
HETATM   17  N   UNL     1      21.963  46.681  47.601  1.00  0.00    -0.127 N 
HETATM   18  H   UNL     1      22.330  47.083  46.739  1.00  0.00     0.206 HD
BRANCH  17  19
HETATM   19  N   UNL     1      20.681  47.142  47.942  1.00  0.00    -0.255 N 
HETATM   20  C   UNL     1      19.821  47.387  46.888  1.00  0.00     0.240 C 
HETATM   21  O   UNL     1      20.113  47.101  45.726  1.00  0.00    -0.272 OA
HETATM   22  H   UNL     1      20.629  47.645  48.828  1.00  0.00     0.190 HD
BRANCH  20  23
HETATM   23  C   UNL     1      18.491  47.995  47.291  1.00  0.00     0.143 C 
BRANCH  23  24
HETATM   24  C   UNL     1      18.604  49.333  47.984  1.00  0.00    -0.049 A 
HETATM   25  C   UNL     1      19.018  50.476  47.285  1.00  0.00     0.007 A 
HETATM   26  C   UNL     1      19.076  51.718  47.921  1.00  0.00     0.001 A 
HETATM   27  C   UNL     1      18.706  51.836  49.258  1.00  0.00     0.000 A 
HETATM   28  C   UNL     1      18.282  50.710  49.961  1.00  0.00     0.001 A 
HETATM   29  C   UNL     1      18.230  49.466  49.328  1.00  0.00     0.007 A 
ENDBRANCH  23  24
ENDBRANCH  20  23
ENDBRANCH  17  19
ENDBRANCH  11  17
BRANCH  12  30
HETATM   30  C   UNL     1      23.263  48.737  49.113  1.00  0.00     0.060 A 
HETATM   31  C   UNL     1      22.289  49.398  49.875  1.00  0.00     0.030 A 
HETATM   32  C   UNL     1      22.025  50.754  49.670  1.00  0.00     0.002 A 
HETATM   33  C   UNL     1      22.721  51.462  48.693  1.00  0.00     0.000 A 
HETATM   34  C   UNL     1      23.675  50.814  47.913  1.00  0.00     0.002 A 
HETATM   35  C   UNL     1      23.940  49.458  48.116  1.00  0.00     0.030 A 
ENDBRANCH  12  30
TORSDOF 5
ENDMDL
MODEL 4
REMARK VINA RESULT:      -9.4      1.990      7.578
REMARK  5 active torsions:
REMARK  status: ('A' for Active; 'I' for Inactive)
REMARK    1  A    between atoms: C_11  and  N_12 
REMARK    2  A    between atoms: N_12  and  N_13 
REMARK       I    between atoms: N_13  and  C_14 
REMARK    3  A    between atoms: C_14  and  C_15 
REMARK    4  A    between atoms: C_15  and  C_16 
REMARK    5  A    between atoms: N_23  and  C_24 
ROOT
HETATM    1  C   UNL     1      31.974  43.176  57.038  1.00  0.00     0.046 C 
HETATM    2  C   UNL     1      31.056  44.162  56.304  1.00  0.00     0.058 C 
HETATM    3  C   UNL     1      31.937  45.147  55.516  1.00  0.00     0.046 C 
HETATM    4  O   UNL     1      30.304  44.843  57.334  1.00  0.00    -0.376 OA
HETATM    5  C   UNL     1      29.381  45.851  56.877  1.00  0.00     0.215 C 
HETATM    6  C   UNL     1      28.597  45.324  55.720  1.00  0.00     0.016 A 
HETATM    7  C   UNL     1      28.911  44.192  54.996  1.00  0.00    -0.021 A 
HETATM    8  C   UNL     1      27.965  43.964  53.948  1.00  0.00     0.077 A 
HETATM    9  C   UNL     1      27.002  44.941  53.898  1.00  0.00     0.133 A 
HETATM   10  N   UNL     1      25.960  45.008  53.040  1.00  0.00    -0.054 NA
HETATM   11  C   UNL     1      25.870  44.034  52.161  1.00  0.00     0.730 A 
HETATM   12  N   UNL     1      26.834  43.001  52.059  1.00  0.00    -0.107 N 
HETATM   13  C   UNL     1      27.902  42.892  52.973  1.00  0.00     0.280 A 
HETATM   14  O   UNL     1      28.756  42.008  52.969  1.00  0.00    -0.266 OA
HETATM   15  S   UNL     1      27.220  46.120  55.116  1.00  0.00    -0.071 SA
HETATM   16  C   UNL     1      30.099  43.364  55.375  1.00  0.00     0.078 C 
ENDROOT
BRANCH  11  17
HETATM   17  N   UNL     1      24.735  44.011  51.365  1.00  0.00    -0.127 N 
HETATM   18  H   UNL     1      24.618  43.311  50.633  1.00  0.00     0.206 HD
BRANCH  17  19
HETATM   19  N   UNL     1      24.148  45.250  51.065  1.00  0.00    -0.255 N 
HETATM   20  C   UNL     1      24.392  45.751  49.800  1.00  0.00     0.240 C 
HETATM   21  O   UNL     1      24.985  45.095  48.941  1.00  0.00    -0.272 OA
HETATM   22  H   UNL     1      23.973  45.849  51.873  1.00  0.00     0.190 HD
BRANCH  20  23
HETATM   23  C   UNL     1      23.840  47.143  49.557  1.00  0.00     0.143 C 
BRANCH  23  24
HETATM   24  C   UNL     1      24.887  48.173  49.203  1.00  0.00    -0.049 A 
HETATM   25  C   UNL     1      26.223  48.010  49.594  1.00  0.00     0.007 A 
HETATM   26  C   UNL     1      27.193  48.943  49.223  1.00  0.00     0.001 A 
HETATM   27  C   UNL     1      26.842  50.043  48.445  1.00  0.00     0.000 A 
HETATM   28  C   UNL     1      25.520  50.212  48.040  1.00  0.00     0.001 A 
HETATM   29  C   UNL     1      24.547  49.282  48.415  1.00  0.00     0.007 A 
ENDBRANCH  23  24
ENDBRANCH  20  23
ENDBRANCH  17  19
ENDBRANCH  11  17
BRANCH  12  30
HETATM   30  C   UNL     1      26.790  42.053  50.983  1.00  0.00     0.060 A 
HETATM   31  C   UNL     1      26.306  40.753  51.191  1.00  0.00     0.030 A 
HETATM   32  C   UNL     1      26.259  39.834  50.140  1.00  0.00     0.002 A 
HETATM   33  C   UNL     1      26.708  40.198  48.873  1.00  0.00     0.000 A 
HETATM   34  C   UNL     1      27.212  41.478  48.655  1.00  0.00     0.002 A 
HETATM   35  C   UNL     1      27.260  42.398  49.705  1.00  0.00     0.030 A 
ENDBRANCH  12  30
TORSDOF 5
ENDMDL
MODEL 5
REMARK VINA RESULT:      -9.3      2.903      6.160
REMARK  5 active torsions:
REMARK  status: ('A' for Active; 'I' for Inactive)
REMARK    1  A    between atoms: C_11  and  N_12 
REMARK    2  A    between atoms: N_12  and  N_13 
REMARK       I    between atoms: N_13  and  C_14 
REMARK    3  A    between atoms: C_14  and  C_15 
REMARK    4  A    between atoms: C_15  and  C_16 
REMARK    5  A    between atoms: N_23  and  C_24 
ROOT
HETATM    1  C   UNL     1      19.736  45.771  46.122  1.00  0.00     0.046 C 
HETATM    2  C   UNL     1      20.554  46.130  47.370  1.00  0.00     0.058 C 
HETATM    3  C   UNL     1      19.663  45.925  48.606  1.00  0.00     0.046 C 
HETATM    4  O   UNL     1      20.921  47.520  47.214  1.00  0.00    -0.376 OA
HETATM    5  C   UNL     1      21.682  48.094  48.294  1.00  0.00     0.215 C 
HETATM    6  C   UNL     1      22.777  47.159  48.688  1.00  0.00     0.016 A 
HETATM    7  C   UNL     1      22.863  45.833  48.314  1.00  0.00    -0.021 A 
HETATM    8  C   UNL     1      24.028  45.211  48.863  1.00  0.00     0.077 A 
HETATM    9  C   UNL     1      24.752  46.070  49.652  1.00  0.00     0.133 A 
HETATM   10  N   UNL     1      25.908  45.798  50.297  1.00  0.00    -0.054 NA
HETATM   11  C   UNL     1      26.377  44.579  50.154  1.00  0.00     0.730 A 
HETATM   12  N   UNL     1      25.695  43.574  49.425  1.00  0.00    -0.107 N 
HETATM   13  C   UNL     1      24.512  43.852  48.710  1.00  0.00     0.280 A 
HETATM   14  O   UNL     1      23.884  43.043  48.030  1.00  0.00    -0.266 OA
HETATM   15  S   UNL     1      24.047  47.626  49.719  1.00  0.00    -0.071 SA
HETATM   16  C   UNL     1      21.826  45.237  47.413  1.00  0.00     0.078 C 
ENDROOT
BRANCH  11  17
HETATM   17  N   UNL     1      27.628  44.322  50.693  1.00  0.00    -0.127 N 
HETATM   18  H   UNL     1      28.324  43.782  50.180  1.00  0.00     0.206 HD
BRANCH  17  19
HETATM   19  N   UNL     1      27.694  44.154  52.086  1.00  0.00    -0.255 N 
HETATM   20  C   UNL     1      28.225  42.958  52.532  1.00  0.00     0.240 C 
HETATM   21  O   UNL     1      28.728  42.139  51.762  1.00  0.00    -0.272 OA
HETATM   22  H   UNL     1      26.999  44.683  52.615  1.00  0.00     0.190 HD
BRANCH  20  23
HETATM   23  C   UNL     1      28.169  42.768  54.036  1.00  0.00     0.143 C 
BRANCH  23  24
HETATM   24  C   UNL     1      29.023  43.738  54.818  1.00  0.00    -0.049 A 
HETATM   25  C   UNL     1      28.523  44.989  55.209  1.00  0.00     0.007 A 
HETATM   26  C   UNL     1      29.303  45.861  55.971  1.00  0.00     0.001 A 
HETATM   27  C   UNL     1      30.585  45.488  56.364  1.00  0.00     0.000 A 
HETATM   28  C   UNL     1      31.090  44.244  55.993  1.00  0.00     0.001 A 
HETATM   29  C   UNL     1      30.314  43.373  55.225  1.00  0.00     0.007 A 
ENDBRANCH  23  24
ENDBRANCH  20  23
ENDBRANCH  17  19
ENDBRANCH  11  17
BRANCH  12  30
HETATM   30  C   UNL     1      26.156  42.215  49.431  1.00  0.00     0.060 A 
HETATM   31  C   UNL     1      27.063  41.760  48.463  1.00  0.00     0.030 A 
HETATM   32  C   UNL     1      27.514  40.438  48.475  1.00  0.00     0.002 A 
HETATM   33  C   UNL     1      27.054  39.552  49.446  1.00  0.00     0.000 A 
HETATM   34  C   UNL     1      26.135  39.982  50.400  1.00  0.00     0.002 A 
HETATM   35  C   UNL     1      25.683  41.303  50.389  1.00  0.00     0.030 A 
ENDBRANCH  12  30
TORSDOF 5
ENDMDL
MODEL 6
REMARK VINA RESULT:      -9.1      3.330      4.851
REMARK  5 active torsions:
REMARK  status: ('A' for Active; 'I' for Inactive)
REMARK    1  A    between atoms: C_11  and  N_12 
REMARK    2  A    between atoms: N_12  and  N_13 
REMARK       I    between atoms: N_13  and  C_14 
REMARK    3  A    between atoms: C_14  and  C_15 
REMARK    4  A    between atoms: C_15  and  C_16 
REMARK    5  A    between atoms: N_23  and  C_24 
ROOT
HETATM    1  C   UNL     1      20.716  44.495  45.489  1.00  0.00     0.046 C 
HETATM    2  C   UNL     1      22.047  43.769  45.727  1.00  0.00     0.058 C 
HETATM    3  C   UNL     1      23.113  44.405  44.819  1.00  0.00     0.046 C 
HETATM    4  O   UNL     1      21.812  42.388  45.369  1.00  0.00    -0.376 OA
HETATM    5  C   UNL     1      22.945  41.506  45.488  1.00  0.00     0.215 C 
HETATM    6  C   UNL     1      23.633  41.746  46.791  1.00  0.00     0.016 A 
HETATM    7  C   UNL     1      23.427  42.839  47.610  1.00  0.00    -0.021 A 
HETATM    8  C   UNL     1      24.245  42.775  48.781  1.00  0.00     0.077 A 
HETATM    9  C   UNL     1      25.056  41.667  48.787  1.00  0.00     0.133 A 
HETATM   10  N   UNL     1      25.928  41.307  49.754  1.00  0.00    -0.054 NA
HETATM   11  C   UNL     1      26.007  42.112  50.791  1.00  0.00     0.730 A 
HETATM   12  N   UNL     1      25.279  43.323  50.880  1.00  0.00    -0.107 N 
HETATM   13  C   UNL     1      24.332  43.691  49.902  1.00  0.00     0.280 A 
HETATM   14  O   UNL     1      23.639  44.707  49.927  1.00  0.00    -0.266 OA
HETATM   15  S   UNL     1      24.823  40.695  47.401  1.00  0.00    -0.071 SA
HETATM   16  C   UNL     1      22.420  43.881  47.232  1.00  0.00     0.078 C 
ENDROOT
BRANCH  11  17
HETATM   17  N   UNL     1      26.792  41.690  51.853  1.00  0.00    -0.127 N 
HETATM   18  H   UNL     1      26.375  41.411  52.740  1.00  0.00     0.206 HD
BRANCH  17  19
HETATM   19  N   UNL     1      28.055  42.292  51.984  1.00  0.00    -0.255 N 
HETATM   20  C   UNL     1      28.799  41.915  53.086  1.00  0.00     0.240 C 
HETATM   21  O   UNL     1      28.435  41.014  53.843  1.00  0.00    -0.272 OA
HETATM   22  H   UNL     1      28.139  43.210  51.546  1.00  0.00     0.190 HD
BRANCH  20  23
HETATM   23  C   UNL     1      30.101  42.674  53.254  1.00  0.00     0.143 C 
BRANCH  23  24
HETATM   24  C   UNL     1      30.145  43.572  54.468  1.00  0.00    -0.049 A 
HETATM   25  C   UNL     1      29.223  44.616  54.628  1.00  0.00     0.007 A 
HETATM   26  C   UNL     1      29.241  45.412  55.776  1.00  0.00     0.001 A 
HETATM   27  C   UNL     1      30.170  45.166  56.782  1.00  0.00     0.000 A 
HETATM   28  C   UNL     1      31.085  44.124  56.641  1.00  0.00     0.001 A 
HETATM   29  C   UNL     1      31.072  43.330  55.491  1.00  0.00     0.007 A 
ENDBRANCH  23  24
ENDBRANCH  20  23
ENDBRANCH  17  19
ENDBRANCH  11  17
BRANCH  12  30
HETATM   30  C   UNL     1      25.516  44.252  51.947  1.00  0.00     0.060 A 
HETATM   31  C   UNL     1      26.242  45.431  51.725  1.00  0.00     0.030 A 
HETATM   32  C   UNL     1      26.466  46.336  52.765  1.00  0.00     0.002 A 
HETATM   33  C   UNL     1      25.980  46.068  54.042  1.00  0.00     0.000 A 
HETATM   34  C   UNL     1      25.277  44.891  54.284  1.00  0.00     0.002 A 
HETATM   35  C   UNL     1      25.052  43.984  53.246  1.00  0.00     0.030 A 
ENDBRANCH  12  30
TORSDOF 5
ENDMDL
MODEL 7
REMARK VINA RESULT:      -9.1      3.418      6.027
REMARK  5 active torsions:
REMARK  status: ('A' for Active; 'I' for Inactive)
REMARK    1  A    between atoms: C_11  and  N_12 
REMARK    2  A    between atoms: N_12  and  N_13 
REMARK       I    between atoms: N_13  and  C_14 
REMARK    3  A    between atoms: C_14  and  C_15 
REMARK    4  A    between atoms: C_15  and  C_16 
REMARK    5  A    between atoms: N_23  and  C_24 
ROOT
HETATM    1  C   UNL     1      21.852  42.889  43.925  1.00  0.00     0.046 C 
HETATM    2  C   UNL     1      21.771  42.805  45.455  1.00  0.00     0.058 C 
HETATM    3  C   UNL     1      20.651  41.819  45.825  1.00  0.00     0.046 C 
HETATM    4  O   UNL     1      21.459  44.143  45.907  1.00  0.00    -0.376 OA
HETATM    5  C   UNL     1      21.305  44.306  47.330  1.00  0.00     0.215 C 
HETATM    6  C   UNL     1      22.419  43.609  48.038  1.00  0.00     0.016 A 
HETATM    7  C   UNL     1      23.277  42.692  47.463  1.00  0.00    -0.021 A 
HETATM    8  C   UNL     1      24.229  42.202  48.411  1.00  0.00     0.077 A 
HETATM    9  C   UNL     1      24.036  42.735  49.661  1.00  0.00     0.133 A 
HETATM   10  N   UNL     1      24.774  42.492  50.767  1.00  0.00    -0.054 NA
HETATM   11  C   UNL     1      25.775  41.652  50.623  1.00  0.00     0.730 A 
HETATM   12  N   UNL     1      26.043  40.979  49.405  1.00  0.00    -0.107 N 
HETATM   13  C   UNL     1      25.311  41.254  48.231  1.00  0.00     0.280 A 
HETATM   14  O   UNL     1      25.507  40.737  47.133  1.00  0.00    -0.266 OA
HETATM   15  S   UNL     1      22.728  43.834  49.696  1.00  0.00    -0.071 SA
HETATM   16  C   UNL     1      23.151  42.356  46.009  1.00  0.00     0.078 C 
ENDROOT
BRANCH  11  17
HETATM   17  N   UNL     1      26.624  41.496  51.707  1.00  0.00    -0.127 N 
HETATM   18  H   UNL     1      26.859  40.572  52.066  1.00  0.00     0.206 HD
BRANCH  17  19
HETATM   19  N   UNL     1      26.576  42.493  52.696  1.00  0.00    -0.255 N 
HETATM   20  C   UNL     1      27.578  43.444  52.653  1.00  0.00     0.240 C 
HETATM   21  O   UNL     1      28.393  43.493  51.731  1.00  0.00    -0.272 OA
HETATM   22  H   UNL     1      26.113  42.215  53.562  1.00  0.00     0.190 HD
BRANCH  20  23
HETATM   23  C   UNL     1      27.558  44.430  53.806  1.00  0.00     0.143 C 
BRANCH  23  24
HETATM   24  C   UNL     1      28.795  44.397  54.673  1.00  0.00    -0.049 A 
HETATM   25  C   UNL     1      29.126  45.479  55.502  1.00  0.00     0.007 A 
HETATM   26  C   UNL     1      30.245  45.421  56.335  1.00  0.00     0.001 A 
HETATM   27  C   UNL     1      31.039  44.278  56.360  1.00  0.00     0.000 A 
HETATM   28  C   UNL     1      30.715  43.191  55.551  1.00  0.00     0.001 A 
HETATM   29  C   UNL     1      29.599  43.249  54.712  1.00  0.00     0.007 A 
ENDBRANCH  23  24
ENDBRANCH  20  23
ENDBRANCH  17  19
ENDBRANCH  11  17
BRANCH  12  30
HETATM   30  C   UNL     1      27.039  39.949  49.334  1.00  0.00     0.060 A 
HETATM   31  C   UNL     1      28.369  40.257  49.013  1.00  0.00     0.030 A 
HETATM   32  C   UNL     1      29.337  39.252  48.950  1.00  0.00     0.002 A 
HETATM   33  C   UNL     1      28.986  37.927  49.193  1.00  0.00     0.000 A 
HETATM   34  C   UNL     1      27.665  37.602  49.490  1.00  0.00     0.002 A 
HETATM   35  C   UNL     1      26.695  38.605  49.553  1.00  0.00     0.030 A 
ENDBRANCH  12  30
TORSDOF 5
ENDMDL
MODEL 8
REMARK VINA RESULT:      -8.9      2.361      8.051
REMARK  5 active torsions:
REMARK  status: ('A' for Active; 'I' for Inactive)
REMARK    1  A    between atoms: C_11  and  N_12 
REMARK    2  A    between atoms: N_12  and  N_13 
REMARK       I    between atoms: N_13  and  C_14 
REMARK    3  A    between atoms: C_14  and  C_15 
REMARK    4  A    between atoms: C_15  and  C_16 
REMARK    5  A    between atoms: N_23  and  C_24 
ROOT
HETATM    1  C   UNL     1      31.389  42.986  57.049  1.00  0.00     0.046 C 
HETATM    2  C   UNL     1      30.739  44.202  56.377  1.00  0.00     0.058 C 
HETATM    3  C   UNL     1      31.830  44.978  55.621  1.00  0.00     0.046 C 
HETATM    4  O   UNL     1      30.183  44.996  57.450  1.00  0.00    -0.376 OA
HETATM    5  C   UNL     1      29.534  46.221  57.057  1.00  0.00     0.215 C 
HETATM    6  C   UNL     1      28.639  45.961  55.891  1.00  0.00     0.016 A 
HETATM    7  C   UNL     1      28.660  44.824  55.109  1.00  0.00    -0.021 A 
HETATM    8  C   UNL     1      27.681  44.887  54.068  1.00  0.00     0.077 A 
HETATM    9  C   UNL     1      26.989  46.073  54.080  1.00  0.00     0.133 A 
HETATM   10  N   UNL     1      25.991  46.435  53.244  1.00  0.00    -0.054 NA
HETATM   11  C   UNL     1      25.659  45.559  52.323  1.00  0.00     0.730 A 
HETATM   12  N   UNL     1      26.338  44.326  52.156  1.00  0.00    -0.107 N 
HETATM   13  C   UNL     1      27.351  43.913  53.046  1.00  0.00     0.280 A 
HETATM   14  O   UNL     1      27.961  42.847  52.986  1.00  0.00    -0.266 OA
HETATM   15  S   UNL     1      27.497  47.100  55.347  1.00  0.00    -0.071 SA
HETATM   16  C   UNL     1      29.610  43.710  55.428  1.00  0.00     0.078 C 
ENDROOT
BRANCH  11  17
HETATM   17  N   UNL     1      24.550  45.854  51.547  1.00  0.00    -0.127 N 
HETATM   18  H   UNL     1      24.102  45.141  50.972  1.00  0.00     0.206 HD
BRANCH  17  19
HETATM   19  N   UNL     1      24.487  47.146  50.999  1.00  0.00    -0.255 N 
HETATM   20  C   UNL     1      24.907  47.275  49.689  1.00  0.00     0.240 C 
HETATM   21  O   UNL     1      25.201  46.298  48.998  1.00  0.00    -0.272 OA
HETATM   22  H   UNL     1      24.556  47.903  51.680  1.00  0.00     0.190 HD
BRANCH  20  23
HETATM   23  C   UNL     1      24.935  48.702  49.175  1.00  0.00     0.143 C 
BRANCH  23  24
HETATM   24  C   UNL     1      23.581  49.253  48.797  1.00  0.00    -0.049 A 
HETATM   25  C   UNL     1      23.296  50.621  48.919  1.00  0.00     0.007 A 
HETATM   26  C   UNL     1      22.058  51.129  48.523  1.00  0.00     0.001 A 
HETATM   27  C   UNL     1      21.094  50.280  47.986  1.00  0.00     0.000 A 
HETATM   28  C   UNL     1      21.367  48.921  47.848  1.00  0.00     0.001 A 
HETATM   29  C   UNL     1      22.604  48.410  48.249  1.00  0.00     0.007 A 
ENDBRANCH  23  24
ENDBRANCH  20  23
ENDBRANCH  17  19
ENDBRANCH  11  17
BRANCH  12  30
HETATM   30  C   UNL     1      26.056  43.472  51.038  1.00  0.00     0.060 A 
HETATM   31  C   UNL     1      24.924  42.645  51.034  1.00  0.00     0.030 A 
HETATM   32  C   UNL     1      24.649  41.819  49.942  1.00  0.00     0.002 A 
HETATM   33  C   UNL     1      25.509  41.799  48.847  1.00  0.00     0.000 A 
HETATM   34  C   UNL     1      26.650  42.598  48.845  1.00  0.00     0.002 A 
HETATM   35  C   UNL     1      26.926  43.424  49.937  1.00  0.00     0.030 A 
ENDBRANCH  12  30
TORSDOF 5
ENDMDL
MODEL 9
REMARK VINA RESULT:      -8.7      3.276      7.086
REMARK  5 active torsions:
REMARK  status: ('A' for Active; 'I' for Inactive)
REMARK    1  A    between atoms: C_11  and  N_12 
REMARK    2  A    between atoms: N_12  and  N_13 
REMARK       I    between atoms: N_13  and  C_14 
REMARK    3  A    between atoms: C_14  and  C_15 
REMARK    4  A    between atoms: C_15  and  C_16 
REMARK    5  A    between atoms: N_23  and  C_24 
ROOT
HETATM    1  C   UNL     1      29.488  38.196  48.756  1.00  0.00     0.046 C 
HETATM    2  C   UNL     1      28.000  38.573  48.789  1.00  0.00     0.058 C 
HETATM    3  C   UNL     1      27.253  37.518  49.622  1.00  0.00     0.046 C 
HETATM    4  O   UNL     1      27.560  38.559  47.412  1.00  0.00    -0.376 OA
HETATM    5  C   UNL     1      26.168  38.861  47.193  1.00  0.00     0.215 C 
HETATM    6  C   UNL     1      25.782  40.055  48.002  1.00  0.00     0.016 A 
HETATM    7  C   UNL     1      26.527  40.594  49.032  1.00  0.00    -0.021 A 
HETATM    8  C   UNL     1      25.877  41.730  49.608  1.00  0.00     0.077 A 
HETATM    9  C   UNL     1      24.661  41.983  49.023  1.00  0.00     0.133 A 
HETATM   10  N   UNL     1      23.812  42.990  49.324  1.00  0.00    -0.054 NA
HETATM   11  C   UNL     1      24.195  43.803  50.283  1.00  0.00     0.730 A 
HETATM   12  N   UNL     1      25.394  43.616  51.016  1.00  0.00    -0.107 N 
HETATM   13  C   UNL     1      26.312  42.598  50.686  1.00  0.00     0.280 A 
HETATM   14  O   UNL     1      27.384  42.394  51.251  1.00  0.00    -0.266 OA
HETATM   15  S   UNL     1      24.308  40.873  47.773  1.00  0.00    -0.071 SA
HETATM   16  C   UNL     1      27.855  39.999  49.388  1.00  0.00     0.078 C 
ENDROOT
BRANCH  11  17
HETATM   17  N   UNL     1      23.405  44.918  50.512  1.00  0.00    -0.127 N 
HETATM   18  H   UNL     1      22.832  44.997  51.352  1.00  0.00     0.206 HD
BRANCH  17  19
HETATM   19  N   UNL     1      22.845  45.540  49.384  1.00  0.00    -0.255 N 
HETATM   20  C   UNL     1      23.154  46.875  49.207  1.00  0.00     0.240 C 
HETATM   21  O   UNL     1      23.970  47.458  49.922  1.00  0.00    -0.272 OA
HETATM   22  H   UNL     1      21.973  45.124  49.054  1.00  0.00     0.190 HD
BRANCH  20  23
HETATM   23  C   UNL     1      22.435  47.537  48.046  1.00  0.00     0.143 C 
BRANCH  23  24
HETATM   24  C   UNL     1      21.739  48.830  48.402  1.00  0.00    -0.049 A 
HETATM   25  C   UNL     1      20.533  48.827  49.119  1.00  0.00     0.007 A 
HETATM   26  C   UNL     1      19.920  50.027  49.484  1.00  0.00     0.001 A 
HETATM   27  C   UNL     1      20.510  51.243  49.151  1.00  0.00     0.000 A 
HETATM   28  C   UNL     1      21.714  51.260  48.449  1.00  0.00     0.001 A 
HETATM   29  C   UNL     1      22.326  50.061  48.077  1.00  0.00     0.007 A 
ENDBRANCH  23  24
ENDBRANCH  20  23
ENDBRANCH  17  19
ENDBRANCH  11  17
BRANCH  12  30
HETATM   30  C   UNL     1      25.694  44.426  52.162  1.00  0.00     0.060 A 
HETATM   31  C   UNL     1      26.327  45.669  52.016  1.00  0.00     0.030 A 
HETATM   32  C   UNL     1      26.612  46.458  53.132  1.00  0.00     0.002 A 
HETATM   33  C   UNL     1      26.282  46.008  54.409  1.00  0.00     0.000 A 
HETATM   34  C   UNL     1      25.674  44.766  54.572  1.00  0.00     0.002 A 
HETATM   35  C   UNL     1      25.389  43.976  53.456  1.00  0.00     0.030 A 
ENDBRANCH  12  30
TORSDOF 5
ENDMDL
MODEL 10
REMARK VINA RESULT:      -8.6      5.486      7.496
REMARK  5 active torsions:
REMARK  status: ('A' for Active; 'I' for Inactive)
REMARK    1  A    between atoms: C_11  and  N_12 
REMARK    2  A    between atoms: N_12  and  N_13 
REMARK       I    between atoms: N_13  and  C_14 
REMARK    3  A    between atoms: C_14  and  C_15 
REMARK    4  A    between atoms: C_15  and  C_16 
REMARK    5  A    between atoms: N_23  and  C_24 
ROOT
HETATM    1  C   UNL     1      17.233  43.426  44.025  1.00  0.00     0.046 C 
HETATM    2  C   UNL     1      18.685  43.819  44.327  1.00  0.00     0.058 C 
HETATM    3  C   UNL     1      19.312  44.377  43.038  1.00  0.00     0.046 C 
HETATM    4  O   UNL     1      19.345  42.603  44.745  1.00  0.00    -0.376 OA
HETATM    5  C   UNL     1      20.746  42.723  45.060  1.00  0.00     0.215 C 
HETATM    6  C   UNL     1      20.965  43.926  45.917  1.00  0.00     0.016 A 
HETATM    7  C   UNL     1      20.048  44.938  46.117  1.00  0.00    -0.021 A 
HETATM    8  C   UNL     1      20.567  45.948  46.986  1.00  0.00     0.077 A 
HETATM    9  C   UNL     1      21.856  45.682  47.378  1.00  0.00     0.133 A 
HETATM   10  N   UNL     1      22.619  46.426  48.208  1.00  0.00    -0.054 NA
HETATM   11  C   UNL     1      22.065  47.520  48.680  1.00  0.00     0.730 A 
HETATM   12  N   UNL     1      20.768  47.949  48.303  1.00  0.00    -0.107 N 
HETATM   13  C   UNL     1      19.941  47.162  47.473  1.00  0.00     0.280 A 
HETATM   14  O   UNL     1      18.796  47.450  47.130  1.00  0.00    -0.266 OA
HETATM   15  S   UNL     1      22.436  44.215  46.721  1.00  0.00    -0.071 SA
HETATM   16  C   UNL     1      18.695  44.863  45.479  1.00  0.00     0.078 C 
ENDROOT
BRANCH  11  17
HETATM   17  N   UNL     1      22.780  48.223  49.638  1.00  0.00    -0.127 N 
HETATM   18  H   UNL     1      22.887  49.235  49.581  1.00  0.00     0.206 HD
BRANCH  17  19
HETATM   19  N   UNL     1      23.882  47.568  50.211  1.00  0.00    -0.255 N 
HETATM   20  C   UNL     1      25.127  48.071  49.886  1.00  0.00     0.240 C 
HETATM   21  O   UNL     1      25.264  49.107  49.234  1.00  0.00    -0.272 OA
HETATM   22  H   UNL     1      23.724  46.587  50.443  1.00  0.00     0.190 HD
BRANCH  20  23
HETATM   23  C   UNL     1      26.292  47.264  50.429  1.00  0.00     0.143 C 
BRANCH  23  24
HETATM   24  C   UNL     1      26.003  46.554  51.731  1.00  0.00    -0.049 A 
HETATM   25  C   UNL     1      25.624  45.204  51.750  1.00  0.00     0.007 A 
HETATM   26  C   UNL     1      25.404  44.543  52.960  1.00  0.00     0.001 A 
HETATM   27  C   UNL     1      25.573  45.218  54.165  1.00  0.00     0.000 A 
HETATM   28  C   UNL     1      25.961  46.557  54.161  1.00  0.00     0.001 A 
HETATM   29  C   UNL     1      26.176  47.221  52.952  1.00  0.00     0.007 A 
ENDBRANCH  23  24
ENDBRANCH  20  23
ENDBRANCH  17  19
ENDBRANCH  11  17
BRANCH  12  30
HETATM   30  C   UNL     1      20.264  49.229  48.709  1.00  0.00     0.060 A 
HETATM   31  C   UNL     1      20.605  50.392  48.002  1.00  0.00     0.030 A 
HETATM   32  C   UNL     1      20.108  51.636  48.397  1.00  0.00     0.002 A 
HETATM   33  C   UNL     1      19.276  51.736  49.509  1.00  0.00     0.000 A 
HETATM   34  C   UNL     1      18.947  50.594  50.235  1.00  0.00     0.002 A 
HETATM   35  C   UNL     1      19.444  49.349  49.842  1.00  0.00     0.030 A 
ENDBRANCH  12  30
TORSDOF 5
ENDMDL
