MODEL 1
REMARK VINA RESULT:      -8.4      0.000      0.000
REMARK  6 active torsions:
REMARK  status: ('A' for Active; 'I' for Inactive)
REMARK    1  A    between atoms: C_2  and  C_3 
REMARK    2  A    between atoms: C_2  and  C_9 
REMARK    3  A    between atoms: C_9  and  N_10 
REMARK       I    between atoms: N_10  and  C_11 
REMARK       I    between atoms: C_11  and  N_12 
REMARK    4  A    between atoms: N_12  and  C_13 
REMARK    5  A    between atoms: C_14  and  O_15 
REMARK    6  A    between atoms: O_15  and  C_16 
ROOT
HETATM    1  N   UNL     1      27.809  44.202  51.455  1.00  0.00    -0.342 N 
HETATM    2  C   UNL     1      27.022  44.856  50.556  1.00  0.00     0.320 C 
HETATM    3  N   UNL     1      26.175  45.790  51.086  1.00  0.00    -0.306 N 
HETATM    4  O   UNL     1      27.169  44.619  49.361  1.00  0.00    -0.247 OA
HETATM    5  H   UNL     1      28.425  43.537  51.000  1.00  0.00     0.164 HD
HETATM    6  H   UNL     1      26.569  46.273  51.876  1.00  0.00     0.171 HD
ENDROOT
BRANCH   1   7
HETATM    7  C   UNL     1      27.623  44.034  52.889  1.00  0.00     0.138 C 
BRANCH   7   8
HETATM    8  C   UNL     1      28.755  43.260  53.635  1.00  0.00    -0.004 C 
HETATM    9  C   UNL     1      29.852  42.966  52.577  1.00  0.00     0.021 C 
HETATM   10  C   UNL     1      28.252  41.875  54.104  1.00  0.00     0.021 C 
BRANCH   8  11
HETATM   11  C   UNL     1      29.296  44.071  54.830  1.00  0.00    -0.046 A 
HETATM   12  C   UNL     1      30.467  43.721  55.515  1.00  0.00     0.027 A 
HETATM   13  C   UNL     1      30.888  44.490  56.594  1.00  0.00     0.116 A 
HETATM   14  N   UNL     1      30.242  45.585  57.038  1.00  0.00    -0.273 NA
HETATM   15  C   UNL     1      29.126  45.929  56.369  1.00  0.00     0.116 A 
HETATM   16  C   UNL     1      28.627  45.220  55.283  1.00  0.00     0.027 A 
ENDBRANCH   8  11
ENDBRANCH   7   8
ENDBRANCH   1   7
BRANCH   3  17
HETATM   17  C   UNL     1      25.268  46.543  50.305  1.00  0.00     0.070 A 
HETATM   18  C   UNL     1      25.499  47.878  49.935  1.00  0.00     0.101 A 
HETATM   19  C   UNL     1      24.552  48.559  49.162  1.00  0.00     0.039 A 
HETATM   20  C   UNL     1      23.368  47.925  48.782  1.00  0.00     0.003 A 
HETATM   21  C   UNL     1      23.145  46.596  49.133  1.00  0.00     0.002 A 
HETATM   22  C   UNL     1      24.101  45.900  49.876  1.00  0.00     0.032 A 
BRANCH  18  23
HETATM   23  O   UNL     1      26.730  48.436  50.171  1.00  0.00    -0.288 OA
BRANCH  23  24
HETATM   24  C   UNL     1      27.473  48.619  48.973  1.00  0.00     0.505 C 
HETATM   25  F   UNL     1      28.337  49.646  49.185  1.00  0.00    -0.184 F 
HETATM   26  F   UNL     1      28.248  47.519  48.771  1.00  0.00    -0.184 F 
ENDBRANCH  23  24
ENDBRANCH  18  23
ENDBRANCH   3  17
TORSDOF 6
ENDMDL
MODEL 2
REMARK VINA RESULT:      -8.4      3.692      7.847
REMARK  6 active torsions:
REMARK  status: ('A' for Active; 'I' for Inactive)
REMARK    1  A    between atoms: C_2  and  C_3 
REMARK    2  A    between atoms: C_2  and  C_9 
REMARK    3  A    between atoms: C_9  and  N_10 
REMARK       I    between atoms: N_10  and  C_11 
REMARK       I    between atoms: C_11  and  N_12 
REMARK    4  A    between atoms: N_12  and  C_13 
REMARK    5  A    between atoms: C_14  and  O_15 
REMARK    6  A    between atoms: O_15  and  C_16 
ROOT
HETATM    1  N   UNL     1      25.726  46.207  53.210  1.00  0.00    -0.342 N 
HETATM    2  C   UNL     1      26.539  45.330  53.865  1.00  0.00     0.320 C 
HETATM    3  N   UNL     1      27.865  45.661  53.886  1.00  0.00    -0.306 N 
HETATM    4  O   UNL     1      26.030  44.367  54.433  1.00  0.00    -0.247 OA
HETATM    5  H   UNL     1      24.755  45.915  53.245  1.00  0.00     0.164 HD
HETATM    6  H   UNL     1      28.021  46.653  53.946  1.00  0.00     0.171 HD
ENDROOT
BRANCH   1   7
HETATM    7  C   UNL     1      26.069  47.199  52.202  1.00  0.00     0.138 C 
BRANCH   7   8
HETATM    8  C   UNL     1      25.844  46.767  50.719  1.00  0.00    -0.004 C 
HETATM    9  C   UNL     1      24.454  46.077  50.672  1.00  0.00     0.021 C 
HETATM   10  C   UNL     1      26.859  45.676  50.307  1.00  0.00     0.021 C 
BRANCH   8  11
HETATM   11  C   UNL     1      25.930  47.974  49.763  1.00  0.00    -0.046 A 
HETATM   12  C   UNL     1      24.801  48.549  49.166  1.00  0.00     0.027 A 
HETATM   13  C   UNL     1      24.955  49.628  48.301  1.00  0.00     0.116 A 
HETATM   14  N   UNL     1      26.142  50.184  47.994  1.00  0.00    -0.273 NA
HETATM   15  C   UNL     1      27.224  49.641  48.581  1.00  0.00     0.116 A 
HETATM   16  C   UNL     1      27.169  48.561  49.454  1.00  0.00     0.027 A 
ENDBRANCH   8  11
ENDBRANCH   7   8
ENDBRANCH   1   7
BRANCH   3  17
HETATM   17  C   UNL     1      28.853  44.853  54.496  1.00  0.00     0.070 A 
HETATM   18  C   UNL     1      29.514  45.213  55.681  1.00  0.00     0.101 A 
HETATM   19  C   UNL     1      30.484  44.363  56.222  1.00  0.00     0.039 A 
HETATM   20  C   UNL     1      30.815  43.172  55.574  1.00  0.00     0.003 A 
HETATM   21  C   UNL     1      30.148  42.804  54.408  1.00  0.00     0.002 A 
HETATM   22  C   UNL     1      29.156  43.632  53.880  1.00  0.00     0.032 A 
BRANCH  18  23
HETATM   23  O   UNL     1      29.070  46.298  56.394  1.00  0.00    -0.288 OA
BRANCH  23  24
HETATM   24  C   UNL     1      29.067  46.052  57.794  1.00  0.00     0.505 C 
HETATM   25  F   UNL     1      30.191  46.622  58.306  1.00  0.00    -0.184 F 
HETATM   26  F   UNL     1      28.025  46.724  58.352  1.00  0.00    -0.184 F 
ENDBRANCH  23  24
ENDBRANCH  18  23
ENDBRANCH   3  17
TORSDOF 6
ENDMDL
MODEL 3
REMARK VINA RESULT:      -8.2      3.099      7.658
REMARK  6 active torsions:
REMARK  status: ('A' for Active; 'I' for Inactive)
REMARK    1  A    between atoms: C_2  and  C_3 
REMARK    2  A    between atoms: C_2  and  C_9 
REMARK    3  A    between atoms: C_9  and  N_10 
REMARK       I    between atoms: N_10  and  C_11 
REMARK       I    between atoms: C_11  and  N_12 
REMARK    4  A    between atoms: N_12  and  C_13 
REMARK    5  A    between atoms: C_14  and  O_15 
REMARK    6  A    between atoms: O_15  and  C_16 
ROOT
HETATM    1  N   UNL     1      25.778  45.832  53.543  1.00  0.00    -0.342 N 
HETATM    2  C   UNL     1      26.682  45.098  54.250  1.00  0.00     0.320 C 
HETATM    3  N   UNL     1      27.949  45.609  54.295  1.00  0.00    -0.306 N 
HETATM    4  O   UNL     1      26.293  44.092  54.838  1.00  0.00    -0.247 OA
HETATM    5  H   UNL     1      24.855  45.410  53.561  1.00  0.00     0.164 HD
HETATM    6  H   UNL     1      27.964  46.615  54.324  1.00  0.00     0.171 HD
ENDROOT
BRANCH   1   7
HETATM    7  C   UNL     1      26.012  46.831  52.509  1.00  0.00     0.138 C 
BRANCH   7   8
HETATM    8  C   UNL     1      25.780  46.355  51.041  1.00  0.00    -0.004 C 
HETATM    9  C   UNL     1      24.482  45.504  51.058  1.00  0.00     0.021 C 
HETATM   10  C   UNL     1      26.902  45.388  50.595  1.00  0.00     0.021 C 
BRANCH   8  11
HETATM   11  C   UNL     1      25.683  47.552  50.073  1.00  0.00    -0.046 A 
HETATM   12  C   UNL     1      26.810  48.224  49.583  1.00  0.00     0.027 A 
HETATM   13  C   UNL     1      26.646  49.306  48.725  1.00  0.00     0.116 A 
HETATM   14  N   UNL     1      25.451  49.763  48.307  1.00  0.00    -0.273 NA
HETATM   15  C   UNL     1      24.369  49.106  48.766  1.00  0.00     0.116 A 
HETATM   16  C   UNL     1      24.434  48.019  49.628  1.00  0.00     0.027 A 
ENDBRANCH   8  11
ENDBRANCH   7   8
ENDBRANCH   1   7
BRANCH   3  17
HETATM   17  C   UNL     1      29.019  44.966  54.960  1.00  0.00     0.070 A 
HETATM   18  C   UNL     1      29.632  43.799  54.474  1.00  0.00     0.101 A 
HETATM   19  C   UNL     1      30.684  43.218  55.191  1.00  0.00     0.039 A 
HETATM   20  C   UNL     1      31.106  43.777  56.398  1.00  0.00     0.003 A 
HETATM   21  C   UNL     1      30.510  44.943  56.872  1.00  0.00     0.002 A 
HETATM   22  C   UNL     1      29.483  45.547  56.146  1.00  0.00     0.032 A 
BRANCH  18  23
HETATM   23  O   UNL     1      29.324  43.353  53.214  1.00  0.00    -0.288 OA
BRANCH  23  24
HETATM   24  C   UNL     1      29.162  41.942  53.172  1.00  0.00     0.505 C 
HETATM   25  F   UNL     1      28.035  41.643  53.870  1.00  0.00    -0.184 F 
HETATM   26  F   UNL     1      28.910  41.572  51.887  1.00  0.00    -0.184 F 
ENDBRANCH  23  24
ENDBRANCH  18  23
ENDBRANCH   3  17
TORSDOF 6
ENDMDL
MODEL 4
REMARK VINA RESULT:      -7.7      4.928      6.911
REMARK  6 active torsions:
REMARK  status: ('A' for Active; 'I' for Inactive)
REMARK    1  A    between atoms: C_2  and  C_3 
REMARK    2  A    between atoms: C_2  and  C_9 
REMARK    3  A    between atoms: C_9  and  N_10 
REMARK       I    between atoms: N_10  and  C_11 
REMARK       I    between atoms: C_11  and  N_12 
REMARK    4  A    between atoms: N_12  and  C_13 
REMARK    5  A    between atoms: C_14  and  O_15 
REMARK    6  A    between atoms: O_15  and  C_16 
ROOT
HETATM    1  N   UNL     1      27.235  41.794  52.380  1.00  0.00    -0.342 N 
HETATM    2  C   UNL     1      27.137  40.981  51.290  1.00  0.00     0.320 C 
HETATM    3  N   UNL     1      28.296  40.798  50.587  1.00  0.00    -0.306 N 
HETATM    4  O   UNL     1      26.064  40.431  51.060  1.00  0.00    -0.247 OA
HETATM    5  H   UNL     1      26.349  41.875  52.867  1.00  0.00     0.164 HD
HETATM    6  H   UNL     1      29.112  40.778  51.175  1.00  0.00     0.171 HD
ENDROOT
BRANCH   1   7
HETATM    7  C   UNL     1      28.238  42.804  52.686  1.00  0.00     0.138 C 
BRANCH   7   8
HETATM    8  C   UNL     1      27.844  43.839  53.786  1.00  0.00    -0.004 C 
HETATM    9  C   UNL     1      26.598  43.257  54.506  1.00  0.00     0.021 C 
HETATM   10  C   UNL     1      27.370  45.164  53.147  1.00  0.00     0.021 C 
BRANCH   8  11
HETATM   11  C   UNL     1      29.014  44.096  54.757  1.00  0.00    -0.046 A 
HETATM   12  C   UNL     1      30.038  43.164  54.974  1.00  0.00     0.027 A 
HETATM   13  C   UNL     1      31.054  43.456  55.877  1.00  0.00     0.116 A 
HETATM   14  N   UNL     1      31.138  44.607  56.572  1.00  0.00    -0.273 NA
HETATM   15  C   UNL     1      30.163  45.508  56.350  1.00  0.00     0.116 A 
HETATM   16  C   UNL     1      29.107  45.303  55.472  1.00  0.00     0.027 A 
ENDBRANCH   8  11
ENDBRANCH   7   8
ENDBRANCH   1   7
BRANCH   3  17
HETATM   17  C   UNL     1      28.372  40.010  49.415  1.00  0.00     0.070 A 
HETATM   18  C   UNL     1      28.670  38.638  49.432  1.00  0.00     0.101 A 
HETATM   19  C   UNL     1      28.731  37.925  48.229  1.00  0.00     0.039 A 
HETATM   20  C   UNL     1      28.524  38.579  47.013  1.00  0.00     0.003 A 
HETATM   21  C   UNL     1      28.212  39.937  46.996  1.00  0.00     0.002 A 
HETATM   22  C   UNL     1      28.117  40.646  48.194  1.00  0.00     0.032 A 
BRANCH  18  23
HETATM   23  O   UNL     1      28.708  37.974  50.632  1.00  0.00    -0.288 OA
BRANCH  23  24
HETATM   24  C   UNL     1      29.950  37.312  50.836  1.00  0.00     0.505 C 
HETATM   25  F   UNL     1      30.928  38.252  50.747  1.00  0.00    -0.184 F 
HETATM   26  F   UNL     1      29.992  36.855  52.116  1.00  0.00    -0.184 F 
ENDBRANCH  23  24
ENDBRANCH  18  23
ENDBRANCH   3  17
TORSDOF 6
ENDMDL
MODEL 5
REMARK VINA RESULT:      -7.7      5.129      9.954
REMARK  6 active torsions:
REMARK  status: ('A' for Active; 'I' for Inactive)
REMARK    1  A    between atoms: C_2  and  C_3 
REMARK    2  A    between atoms: C_2  and  C_9 
REMARK    3  A    between atoms: C_9  and  N_10 
REMARK       I    between atoms: N_10  and  C_11 
REMARK       I    between atoms: C_11  and  N_12 
REMARK    4  A    between atoms: N_12  and  C_13 
REMARK    5  A    between atoms: C_14  and  O_15 
REMARK    6  A    between atoms: O_15  and  C_16 
ROOT
HETATM    1  N   UNL     1      20.478  47.974  48.262  1.00  0.00    -0.342 N 
HETATM    2  C   UNL     1      21.791  47.611  48.233  1.00  0.00     0.320 C 
HETATM    3  N   UNL     1      22.456  47.714  49.423  1.00  0.00    -0.306 N 
HETATM    4  O   UNL     1      22.256  47.165  47.187  1.00  0.00    -0.247 OA
HETATM    5  H   UNL     1      20.037  47.859  47.356  1.00  0.00     0.164 HD
HETATM    6  H   UNL     1      21.877  47.495  50.216  1.00  0.00     0.171 HD
ENDROOT
BRANCH   1   7
HETATM    7  C   UNL     1      19.780  48.821  49.219  1.00  0.00     0.138 C 
BRANCH   7   8
HETATM    8  C   UNL     1      19.802  50.352  48.914  1.00  0.00    -0.004 C 
HETATM    9  C   UNL     1      20.364  50.501  47.475  1.00  0.00     0.021 C 
HETATM   10  C   UNL     1      20.814  51.078  49.830  1.00  0.00     0.021 C 
BRANCH   8  11
HETATM   11  C   UNL     1      18.398  50.973  49.061  1.00  0.00    -0.046 A 
HETATM   12  C   UNL     1      18.167  52.168  49.755  1.00  0.00     0.027 A 
HETATM   13  C   UNL     1      16.872  52.662  49.861  1.00  0.00     0.116 A 
HETATM   14  N   UNL     1      15.791  52.067  49.322  1.00  0.00    -0.273 NA
HETATM   15  C   UNL     1      16.016  50.928  48.642  1.00  0.00     0.116 A 
HETATM   16  C   UNL     1      17.273  50.357  48.486  1.00  0.00     0.027 A 
ENDBRANCH   8  11
ENDBRANCH   7   8
ENDBRANCH   1   7
BRANCH   3  17
HETATM   17  C   UNL     1      23.829  47.406  49.570  1.00  0.00     0.070 A 
HETATM   18  C   UNL     1      24.850  48.353  49.393  1.00  0.00     0.101 A 
HETATM   19  C   UNL     1      26.187  47.972  49.552  1.00  0.00     0.039 A 
HETATM   20  C   UNL     1      26.509  46.649  49.858  1.00  0.00     0.003 A 
HETATM   21  C   UNL     1      25.496  45.711  50.050  1.00  0.00     0.002 A 
HETATM   22  C   UNL     1      24.160  46.093  49.926  1.00  0.00     0.032 A 
BRANCH  18  23
HETATM   23  O   UNL     1      24.520  49.678  49.256  1.00  0.00    -0.288 OA
BRANCH  23  24
HETATM   24  C   UNL     1      24.505  50.086  47.895  1.00  0.00     0.505 C 
HETATM   25  F   UNL     1      23.676  51.161  47.805  1.00  0.00    -0.184 F 
HETATM   26  F   UNL     1      25.742  50.545  47.565  1.00  0.00    -0.184 F 
ENDBRANCH  23  24
ENDBRANCH  18  23
ENDBRANCH   3  17
TORSDOF 6
ENDMDL
MODEL 6
REMARK VINA RESULT:      -7.5      5.043     10.131
REMARK  6 active torsions:
REMARK  status: ('A' for Active; 'I' for Inactive)
REMARK    1  A    between atoms: C_2  and  C_3 
REMARK    2  A    between atoms: C_2  and  C_9 
REMARK    3  A    between atoms: C_9  and  N_10 
REMARK       I    between atoms: N_10  and  C_11 
REMARK       I    between atoms: C_11  and  N_12 
REMARK    4  A    between atoms: N_12  and  C_13 
REMARK    5  A    between atoms: C_14  and  O_15 
REMARK    6  A    between atoms: O_15  and  C_16 
ROOT
HETATM    1  N   UNL     1      20.834  48.287  48.826  1.00  0.00    -0.342 N 
HETATM    2  C   UNL     1      22.161  48.155  48.546  1.00  0.00     0.320 C 
HETATM    3  N   UNL     1      23.012  48.746  49.439  1.00  0.00    -0.306 N 
HETATM    4  O   UNL     1      22.495  47.479  47.577  1.00  0.00    -0.247 OA
HETATM    5  H   UNL     1      20.257  47.813  48.138  1.00  0.00     0.164 HD
HETATM    6  H   UNL     1      22.677  48.702  50.386  1.00  0.00     0.171 HD
ENDROOT
BRANCH   1   7
HETATM    7  C   UNL     1      20.165  49.269  49.666  1.00  0.00     0.138 C 
BRANCH   7   8
HETATM    8  C   UNL     1      19.184  50.236  48.931  1.00  0.00    -0.004 C 
HETATM    9  C   UNL     1      19.904  50.681  47.630  1.00  0.00     0.021 C 
HETATM   10  C   UNL     1      18.975  51.530  49.751  1.00  0.00     0.021 C 
BRANCH   8  11
HETATM   11  C   UNL     1      17.831  49.552  48.647  1.00  0.00    -0.046 A 
HETATM   12  C   UNL     1      17.616  48.183  48.852  1.00  0.00     0.027 A 
HETATM   13  C   UNL     1      16.374  47.631  48.559  1.00  0.00     0.116 A 
HETATM   14  N   UNL     1      15.327  48.335  48.089  1.00  0.00    -0.273 NA
HETATM   15  C   UNL     1      15.530  49.653  47.908  1.00  0.00     0.116 A 
HETATM   16  C   UNL     1      16.736  50.292  48.169  1.00  0.00     0.027 A 
ENDBRANCH   8  11
ENDBRANCH   7   8
ENDBRANCH   1   7
BRANCH   3  17
HETATM   17  C   UNL     1      24.418  48.733  49.290  1.00  0.00     0.070 A 
HETATM   18  C   UNL     1      25.241  47.750  49.863  1.00  0.00     0.101 A 
HETATM   19  C   UNL     1      26.626  47.806  49.675  1.00  0.00     0.039 A 
HETATM   20  C   UNL     1      27.194  48.851  48.943  1.00  0.00     0.003 A 
HETATM   21  C   UNL     1      26.378  49.817  48.360  1.00  0.00     0.002 A 
HETATM   22  C   UNL     1      24.993  49.748  48.516  1.00  0.00     0.032 A 
BRANCH  18  23
HETATM   23  O   UNL     1      24.666  46.644  50.437  1.00  0.00    -0.288 OA
BRANCH  23  24
HETATM   24  C   UNL     1      25.307  46.279  51.652  1.00  0.00     0.505 C 
HETATM   25  F   UNL     1      25.071  47.274  52.548  1.00  0.00    -0.184 F 
HETATM   26  F   UNL     1      24.690  45.175  52.154  1.00  0.00    -0.184 F 
ENDBRANCH  23  24
ENDBRANCH  18  23
ENDBRANCH   3  17
TORSDOF 6
ENDMDL
MODEL 7
REMARK VINA RESULT:      -7.5      2.875      3.522
REMARK  6 active torsions:
REMARK  status: ('A' for Active; 'I' for Inactive)
REMARK    1  A    between atoms: C_2  and  C_3 
REMARK    2  A    between atoms: C_2  and  C_9 
REMARK    3  A    between atoms: C_9  and  N_10 
REMARK       I    between atoms: N_10  and  C_11 
REMARK       I    between atoms: C_11  and  N_12 
REMARK    4  A    between atoms: N_12  and  C_13 
REMARK    5  A    between atoms: C_14  and  O_15 
REMARK    6  A    between atoms: O_15  and  C_16 
ROOT
HETATM    1  N   UNL     1      26.786  44.167  53.344  1.00  0.00    -0.342 N 
HETATM    2  C   UNL     1      25.742  44.689  52.641  1.00  0.00     0.320 C 
HETATM    3  N   UNL     1      26.056  45.195  51.410  1.00  0.00    -0.306 N 
HETATM    4  O   UNL     1      24.613  44.611  53.118  1.00  0.00    -0.247 OA
HETATM    5  H   UNL     1      26.487  43.793  54.238  1.00  0.00     0.164 HD
HETATM    6  H   UNL     1      26.783  44.676  50.947  1.00  0.00     0.171 HD
ENDROOT
BRANCH   1   7
HETATM    7  C   UNL     1      28.213  44.415  53.191  1.00  0.00     0.138 C 
BRANCH   7   8
HETATM    8  C   UNL     1      29.159  43.366  53.855  1.00  0.00    -0.004 C 
HETATM    9  C   UNL     1      30.223  43.001  52.785  1.00  0.00     0.021 C 
HETATM   10  C   UNL     1      28.400  42.052  54.147  1.00  0.00     0.021 C 
BRANCH   8  11
HETATM   11  C   UNL     1      29.794  43.922  55.145  1.00  0.00    -0.046 A 
HETATM   12  C   UNL     1      29.447  45.168  55.685  1.00  0.00     0.027 A 
HETATM   13  C   UNL     1      30.072  45.613  56.845  1.00  0.00     0.116 A 
HETATM   14  N   UNL     1      31.006  44.911  57.515  1.00  0.00    -0.273 NA
HETATM   15  C   UNL     1      31.327  43.708  57.004  1.00  0.00     0.116 A 
HETATM   16  C   UNL     1      30.759  43.183  55.850  1.00  0.00     0.027 A 
ENDBRANCH   8  11
ENDBRANCH   7   8
ENDBRANCH   1   7
BRANCH   3  17
HETATM   17  C   UNL     1      25.103  45.801  50.558  1.00  0.00     0.070 A 
HETATM   18  C   UNL     1      24.402  45.094  49.567  1.00  0.00     0.101 A 
HETATM   19  C   UNL     1      23.477  45.763  48.759  1.00  0.00     0.039 A 
HETATM   20  C   UNL     1      23.269  47.135  48.917  1.00  0.00     0.003 A 
HETATM   21  C   UNL     1      23.950  47.834  49.910  1.00  0.00     0.002 A 
HETATM   22  C   UNL     1      24.850  47.165  50.741  1.00  0.00     0.032 A 
BRANCH  18  23
HETATM   23  O   UNL     1      24.491  43.725  49.529  1.00  0.00    -0.288 OA
BRANCH  23  24
HETATM   24  C   UNL     1      23.374  43.100  50.146  1.00  0.00     0.505 C 
HETATM   25  F   UNL     1      22.860  42.216  49.250  1.00  0.00    -0.184 F 
HETATM   26  F   UNL     1      23.817  42.353  51.192  1.00  0.00    -0.184 F 
ENDBRANCH  23  24
ENDBRANCH  18  23
ENDBRANCH   3  17
TORSDOF 6
ENDMDL
MODEL 8
REMARK VINA RESULT:      -7.3     11.815     14.427
REMARK  6 active torsions:
REMARK  status: ('A' for Active; 'I' for Inactive)
REMARK    1  A    between atoms: C_2  and  C_3 
REMARK    2  A    between atoms: C_2  and  C_9 
REMARK    3  A    between atoms: C_9  and  N_10 
REMARK       I    between atoms: N_10  and  C_11 
REMARK       I    between atoms: C_11  and  N_12 
REMARK    4  A    between atoms: N_12  and  C_13 
REMARK    5  A    between atoms: C_14  and  O_15 
REMARK    6  A    between atoms: O_15  and  C_16 
ROOT
HETATM    1  N   UNL     1      29.989  52.904  39.608  1.00  0.00    -0.342 N 
HETATM    2  C   UNL     1      31.165  52.719  40.272  1.00  0.00     0.320 C 
HETATM    3  N   UNL     1      32.011  51.796  39.722  1.00  0.00    -0.306 N 
HETATM    4  O   UNL     1      31.406  53.420  41.250  1.00  0.00    -0.247 OA
HETATM    5  H   UNL     1      29.414  53.612  40.054  1.00  0.00     0.164 HD
HETATM    6  H   UNL     1      31.978  51.784  38.716  1.00  0.00     0.171 HD
ENDROOT
BRANCH   1   7
HETATM    7  C   UNL     1      29.315  52.020  38.668  1.00  0.00     0.138 C 
BRANCH   7   8
HETATM    8  C   UNL     1      28.341  50.976  39.299  1.00  0.00    -0.004 C 
HETATM    9  C   UNL     1      27.135  50.863  38.328  1.00  0.00     0.021 C 
HETATM   10  C   UNL     1      27.754  51.507  40.627  1.00  0.00     0.021 C 
BRANCH   8  11
HETATM   11  C   UNL     1      29.041  49.620  39.522  1.00  0.00    -0.046 A 
HETATM   12  C   UNL     1      30.086  49.164  38.707  1.00  0.00     0.027 A 
HETATM   13  C   UNL     1      30.662  47.923  38.957  1.00  0.00     0.116 A 
HETATM   14  N   UNL     1      30.286  47.106  39.960  1.00  0.00    -0.273 NA
HETATM   15  C   UNL     1      29.293  47.552  40.751  1.00  0.00     0.116 A 
HETATM   16  C   UNL     1      28.657  48.775  40.576  1.00  0.00     0.027 A 
ENDBRANCH   8  11
ENDBRANCH   7   8
ENDBRANCH   1   7
BRANCH   3  17
HETATM   17  C   UNL     1      33.260  51.457  40.293  1.00  0.00     0.070 A 
HETATM   18  C   UNL     1      33.423  50.407  41.211  1.00  0.00     0.101 A 
HETATM   19  C   UNL     1      34.691  50.134  41.736  1.00  0.00     0.039 A 
HETATM   20  C   UNL     1      35.787  50.918  41.371  1.00  0.00     0.003 A 
HETATM   21  C   UNL     1      35.630  51.949  40.447  1.00  0.00     0.002 A 
HETATM   22  C   UNL     1      34.374  52.205  39.895  1.00  0.00     0.032 A 
BRANCH  18  23
HETATM   23  O   UNL     1      32.381  49.544  41.436  1.00  0.00    -0.288 OA
BRANCH  23  24
HETATM   24  C   UNL     1      31.807  49.724  42.724  1.00  0.00     0.505 C 
HETATM   25  F   UNL     1      30.696  50.491  42.568  1.00  0.00    -0.184 F 
HETATM   26  F   UNL     1      31.365  48.519  43.175  1.00  0.00    -0.184 F 
ENDBRANCH  23  24
ENDBRANCH  18  23
ENDBRANCH   3  17
TORSDOF 6
ENDMDL
MODEL 9
REMARK VINA RESULT:      -7.3      5.188     10.033
REMARK  6 active torsions:
REMARK  status: ('A' for Active; 'I' for Inactive)
REMARK    1  A    between atoms: C_2  and  C_3 
REMARK    2  A    between atoms: C_2  and  C_9 
REMARK    3  A    between atoms: C_9  and  N_10 
REMARK       I    between atoms: N_10  and  C_11 
REMARK       I    between atoms: C_11  and  N_12 
REMARK    4  A    between atoms: N_12  and  C_13 
REMARK    5  A    between atoms: C_14  and  O_15 
REMARK    6  A    between atoms: O_15  and  C_16 
ROOT
HETATM    1  N   UNL     1      20.885  48.276  48.746  1.00  0.00    -0.342 N 
HETATM    2  C   UNL     1      22.219  48.144  48.503  1.00  0.00     0.320 C 
HETATM    3  N   UNL     1      23.043  48.824  49.357  1.00  0.00    -0.306 N 
HETATM    4  O   UNL     1      22.582  47.392  47.603  1.00  0.00    -0.247 OA
HETATM    5  H   UNL     1      20.329  47.736  48.092  1.00  0.00     0.164 HD
HETATM    6  H   UNL     1      22.690  48.857  50.298  1.00  0.00     0.171 HD
ENDROOT
BRANCH   1   7
HETATM    7  C   UNL     1      20.184  49.316  49.486  1.00  0.00     0.138 C 
BRANCH   7   8
HETATM    8  C   UNL     1      18.674  49.045  49.774  1.00  0.00    -0.004 C 
HETATM    9  C   UNL     1      18.577  48.671  51.278  1.00  0.00     0.021 C 
HETATM   10  C   UNL     1      18.187  47.794  49.006  1.00  0.00     0.021 C 
BRANCH   8  11
HETATM   11  C   UNL     1      17.806  50.269  49.419  1.00  0.00    -0.046 A 
HETATM   12  C   UNL     1      16.678  50.183  48.592  1.00  0.00     0.027 A 
HETATM   13  C   UNL     1      15.951  51.332  48.301  1.00  0.00     0.116 A 
HETATM   14  N   UNL     1      16.251  52.556  48.777  1.00  0.00    -0.273 NA
HETATM   15  C   UNL     1      17.325  52.633  49.584  1.00  0.00     0.116 A 
HETATM   16  C   UNL     1      18.114  51.542  49.927  1.00  0.00     0.027 A 
ENDBRANCH   8  11
ENDBRANCH   7   8
ENDBRANCH   1   7
BRANCH   3  17
HETATM   17  C   UNL     1      24.452  48.823  49.235  1.00  0.00     0.070 A 
HETATM   18  C   UNL     1      25.279  47.910  49.910  1.00  0.00     0.101 A 
HETATM   19  C   UNL     1      26.666  47.974  49.742  1.00  0.00     0.039 A 
HETATM   20  C   UNL     1      27.232  48.958  48.929  1.00  0.00     0.003 A 
HETATM   21  C   UNL     1      26.412  49.853  48.246  1.00  0.00     0.002 A 
HETATM   22  C   UNL     1      25.025  49.774  48.382  1.00  0.00     0.032 A 
BRANCH  18  23
HETATM   23  O   UNL     1      24.710  46.851  50.572  1.00  0.00    -0.288 OA
BRANCH  23  24
HETATM   24  C   UNL     1      25.653  46.156  51.377  1.00  0.00     0.505 C 
HETATM   25  F   UNL     1      25.229  46.248  52.665  1.00  0.00    -0.184 F 
HETATM   26  F   UNL     1      25.600  44.834  51.063  1.00  0.00    -0.184 F 
ENDBRANCH  23  24
ENDBRANCH  18  23
ENDBRANCH   3  17
TORSDOF 6
ENDMDL
MODEL 10
REMARK VINA RESULT:      -7.3      3.665      7.341
REMARK  6 active torsions:
REMARK  status: ('A' for Active; 'I' for Inactive)
REMARK    1  A    between atoms: C_2  and  C_3 
REMARK    2  A    between atoms: C_2  and  C_9 
REMARK    3  A    between atoms: C_9  and  N_10 
REMARK       I    between atoms: N_10  and  C_11 
REMARK       I    between atoms: C_11  and  N_12 
REMARK    4  A    between atoms: N_12  and  C_13 
REMARK    5  A    between atoms: C_14  and  O_15 
REMARK    6  A    between atoms: O_15  and  C_16 
ROOT
HETATM    1  N   UNL     1      25.260  44.496  52.474  1.00  0.00    -0.342 N 
HETATM    2  C   UNL     1      26.194  44.215  53.426  1.00  0.00     0.320 C 
HETATM    3  N   UNL     1      27.464  44.637  53.147  1.00  0.00    -0.306 N 
HETATM    4  O   UNL     1      25.829  43.679  54.469  1.00  0.00    -0.247 OA
HETATM    5  H   UNL     1      24.338  44.174  52.747  1.00  0.00     0.164 HD
HETATM    6  H   UNL     1      27.486  45.508  52.642  1.00  0.00     0.171 HD
ENDROOT
BRANCH   1   7
HETATM    7  C   UNL     1      25.449  44.797  51.062  1.00  0.00     0.138 C 
BRANCH   7   8
HETATM    8  C   UNL     1      24.763  43.816  50.061  1.00  0.00    -0.004 C 
HETATM    9  C   UNL     1      24.479  44.634  48.773  1.00  0.00     0.021 C 
HETATM   10  C   UNL     1      23.377  43.378  50.587  1.00  0.00     0.021 C 
BRANCH   8  11
HETATM   11  C   UNL     1      25.650  42.584  49.787  1.00  0.00    -0.046 A 
HETATM   12  C   UNL     1      27.050  42.637  49.818  1.00  0.00     0.027 A 
HETATM   13  C   UNL     1      27.787  41.489  49.545  1.00  0.00     0.116 A 
HETATM   14  N   UNL     1      27.241  40.293  49.256  1.00  0.00    -0.273 NA
HETATM   15  C   UNL     1      25.897  40.240  49.243  1.00  0.00     0.116 A 
HETATM   16  C   UNL     1      25.078  41.334  49.498  1.00  0.00     0.027 A 
ENDBRANCH   8  11
ENDBRANCH   7   8
ENDBRANCH   1   7
BRANCH   3  17
HETATM   17  C   UNL     1      28.562  44.406  54.008  1.00  0.00     0.070 A 
HETATM   18  C   UNL     1      29.398  43.283  53.900  1.00  0.00     0.101 A 
HETATM   19  C   UNL     1      30.463  43.121  54.793  1.00  0.00     0.039 A 
HETATM   20  C   UNL     1      30.680  44.058  55.805  1.00  0.00     0.003 A 
HETATM   21  C   UNL     1      29.863  45.181  55.903  1.00  0.00     0.002 A 
HETATM   22  C   UNL     1      28.819  45.365  54.995  1.00  0.00     0.032 A 
BRANCH  18  23
HETATM   23  O   UNL     1      29.279  42.460  52.809  1.00  0.00    -0.288 OA
BRANCH  23  24
HETATM   24  C   UNL     1      28.718  41.199  53.150  1.00  0.00     0.505 C 
HETATM   25  F   UNL     1      27.396  41.247  52.836  1.00  0.00    -0.184 F 
HETATM   26  F   UNL     1      29.257  40.250  52.339  1.00  0.00    -0.184 F 
ENDBRANCH  23  24
ENDBRANCH  18  23
ENDBRANCH   3  17
TORSDOF 6
ENDMDL
