MODEL 1
REMARK VINA RESULT:      -9.5      0.000      0.000
REMARK  9 active torsions:
REMARK  status: ('A' for Active; 'I' for Inactive)
REMARK    1  A    between atoms: C_2  and  O_3 
REMARK    2  A    between atoms: O_3  and  C_4 
REMARK    3  A    between atoms: C_4  and  C_5 
REMARK    4  A    between atoms: C_7  and  C_8 
REMARK       I    between atoms: C_8  and  N_9 
REMARK    5  A    between atoms: N_9  and  N_10 
REMARK    6  A    between atoms: N_10  and  C_11 
REMARK    7  A    between atoms: C_11  and  N_12 
REMARK    8  A    between atoms: N_12  and  C_13 
REMARK    9  A    between atoms: C_13  and  C_14 
ROOT
HETATM    1  C   UNL     1      26.508  44.695  51.568  1.00  0.00     0.078 A 
HETATM    2  O   UNL     1      25.531  45.642  51.498  1.00  0.00    -0.307 OA
HETATM    3  C   UNL     1      25.638  46.265  50.282  1.00  0.00     0.145 A 
HETATM    4  C   UNL     1      26.683  45.692  49.575  1.00  0.00     0.045 A 
HETATM    5  C   UNL     1      27.240  44.687  50.401  1.00  0.00     0.038 A 
ENDROOT
BRANCH   3   6
HETATM    6  C   UNL     1      24.713  47.341  49.981  1.00  0.00     0.293 C 
HETATM    7  N   UNL     1      23.439  46.925  49.625  1.00  0.00    -0.262 N 
HETATM    8  H   UNL     1      23.120  45.973  49.783  1.00  0.00     0.190 HD
HETATM    9  O   UNL     1      24.990  48.540  50.025  1.00  0.00    -0.264 OA
BRANCH   7  10
HETATM   10  N   UNL     1      22.432  47.897  49.466  1.00  0.00    -0.274 N 
HETATM   11  H   UNL     1      22.346  48.524  50.265  1.00  0.00     0.189 HD
BRANCH  10  12
HETATM   12  C   UNL     1      21.309  47.607  48.735  1.00  0.00     0.186 C 
HETATM   13  S   UNL     1      21.315  46.979  47.181  1.00  0.00    -0.040 SA
BRANCH  12  14
HETATM   14  N   UNL     1      20.113  47.913  49.300  1.00  0.00    -0.364 N 
HETATM   15  H   UNL     1      19.706  47.159  49.846  1.00  0.00     0.162 HD
BRANCH  14  16
HETATM   16  C   UNL     1      19.189  49.001  48.991  1.00  0.00     0.154 C 
BRANCH  16  17
HETATM   17  C   UNL     1      19.527  50.308  49.730  1.00  0.00     0.139 C 
HETATM   18  O   UNL     1      18.323  50.857  50.306  1.00  0.00    -0.384 OA
HETATM   19  C   UNL     1      18.201  52.223  49.889  1.00  0.00     0.168 C 
HETATM   20  C   UNL     1      19.023  52.364  48.629  1.00  0.00     0.029 C 
HETATM   21  C   UNL     1      20.154  51.397  48.869  1.00  0.00     0.035 C 
ENDBRANCH  16  17
ENDBRANCH  14  16
ENDBRANCH  12  14
ENDBRANCH  10  12
ENDBRANCH   7  10
ENDBRANCH   3   6
BRANCH   1  22
HETATM   22  C   UNL     1      26.591  43.901  52.822  1.00  0.00     0.240 C 
BRANCH  22  23
HETATM   23  O   UNL     1      27.979  43.688  53.065  1.00  0.00    -0.345 OA
BRANCH  23  24
HETATM   24  C   UNL     1      28.521  44.328  54.147  1.00  0.00     0.069 A 
HETATM   25  C   UNL     1      28.083  45.553  54.678  1.00  0.00     0.037 A 
HETATM   26  C   UNL     1      28.703  46.107  55.804  1.00  0.00     0.010 A 
HETATM   27  C   UNL     1      29.750  45.417  56.388  1.00  0.00    -0.052 A 
HETATM   28  C   UNL     1      30.190  44.200  55.864  1.00  0.00    -0.049 A 
HETATM   29  C   UNL     1      30.586  45.824  57.562  1.00  0.00     0.039 C 
HETATM   30  C   UNL     1      29.584  43.646  54.749  1.00  0.00     0.044 A 
HETATM   31  C   UNL     1      31.367  43.681  56.628  1.00  0.00     0.039 C 
HETATM   32  C   UNL     1      31.256  44.491  57.928  1.00  0.00     0.009 C 
ENDBRANCH  23  24
ENDBRANCH  22  23
ENDBRANCH   1  22
TORSDOF 9
ENDMDL
MODEL 2
REMARK VINA RESULT:      -9.3      2.765     10.291
REMARK  9 active torsions:
REMARK  status: ('A' for Active; 'I' for Inactive)
REMARK    1  A    between atoms: C_2  and  O_3 
REMARK    2  A    between atoms: O_3  and  C_4 
REMARK    3  A    between atoms: C_4  and  C_5 
REMARK    4  A    between atoms: C_7  and  C_8 
REMARK       I    between atoms: C_8  and  N_9 
REMARK    5  A    between atoms: N_9  and  N_10 
REMARK    6  A    between atoms: N_10  and  C_11 
REMARK    7  A    between atoms: C_11  and  N_12 
REMARK    8  A    between atoms: N_12  and  C_13 
REMARK    9  A    between atoms: C_13  and  C_14 
ROOT
HETATM    1  C   UNL     1      25.192  49.641  48.498  1.00  0.00     0.078 A 
HETATM    2  O   UNL     1      24.945  48.739  49.489  1.00  0.00    -0.307 OA
HETATM    3  C   UNL     1      26.149  48.218  49.889  1.00  0.00     0.145 A 
HETATM    4  C   UNL     1      27.161  48.809  49.151  1.00  0.00     0.045 A 
HETATM    5  C   UNL     1      26.546  49.721  48.259  1.00  0.00     0.038 A 
ENDROOT
BRANCH   3   6
HETATM    6  C   UNL     1      26.145  47.205  50.927  1.00  0.00     0.293 C 
HETATM    7  N   UNL     1      26.341  45.910  50.472  1.00  0.00    -0.262 N 
HETATM    8  H   UNL     1      26.681  45.715  49.535  1.00  0.00     0.190 HD
HETATM    9  O   UNL     1      25.986  47.429  52.128  1.00  0.00    -0.264 OA
BRANCH   7  10
HETATM   10  N   UNL     1      26.507  44.880  51.419  1.00  0.00    -0.274 N 
HETATM   11  H   UNL     1      27.443  44.847  51.819  1.00  0.00     0.189 HD
BRANCH  10  12
HETATM   12  C   UNL     1      25.807  43.709  51.287  1.00  0.00     0.186 C 
HETATM   13  S   UNL     1      24.492  43.490  50.273  1.00  0.00    -0.040 SA
BRANCH  12  14
HETATM   14  N   UNL     1      26.181  42.678  52.088  1.00  0.00    -0.364 N 
HETATM   15  H   UNL     1      25.411  42.235  52.582  1.00  0.00     0.162 HD
BRANCH  14  16
HETATM   16  C   UNL     1      27.505  42.326  52.594  1.00  0.00     0.154 C 
BRANCH  16  17
HETATM   17  C   UNL     1      27.717  42.732  54.063  1.00  0.00     0.139 C 
HETATM   18  O   UNL     1      26.703  43.684  54.448  1.00  0.00    -0.384 OA
HETATM   19  C   UNL     1      27.347  44.832  55.014  1.00  0.00     0.168 C 
HETATM   20  C   UNL     1      28.763  44.834  54.489  1.00  0.00     0.029 C 
HETATM   21  C   UNL     1      29.069  43.363  54.373  1.00  0.00     0.035 C 
ENDBRANCH  16  17
ENDBRANCH  14  16
ENDBRANCH  12  14
ENDBRANCH  10  12
ENDBRANCH   7  10
ENDBRANCH   3   6
BRANCH   1  22
HETATM   22  C   UNL     1      24.015  50.322  47.898  1.00  0.00     0.240 C 
BRANCH  22  23
HETATM   23  O   UNL     1      23.031  49.311  47.698  1.00  0.00    -0.345 OA
BRANCH  23  24
HETATM   24  C   UNL     1      21.809  49.517  48.280  1.00  0.00     0.069 A 
HETATM   25  C   UNL     1      21.098  48.576  49.045  1.00  0.00     0.037 A 
HETATM   26  C   UNL     1      19.860  48.904  49.610  1.00  0.00     0.010 A 
HETATM   27  C   UNL     1      19.356  50.175  49.407  1.00  0.00    -0.052 A 
HETATM   28  C   UNL     1      20.057  51.113  48.645  1.00  0.00    -0.049 A 
HETATM   29  C   UNL     1      18.048  50.738  49.871  1.00  0.00     0.039 C 
HETATM   30  C   UNL     1      21.281  50.797  48.080  1.00  0.00     0.044 A 
HETATM   31  C   UNL     1      19.284  52.386  48.518  1.00  0.00     0.039 C 
HETATM   32  C   UNL     1      18.284  52.243  49.676  1.00  0.00     0.009 C 
ENDBRANCH  23  24
ENDBRANCH  22  23
ENDBRANCH   1  22
TORSDOF 9
ENDMDL
MODEL 3
REMARK VINA RESULT:      -9.2      1.427      2.351
REMARK  9 active torsions:
REMARK  status: ('A' for Active; 'I' for Inactive)
REMARK    1  A    between atoms: C_2  and  O_3 
REMARK    2  A    between atoms: O_3  and  C_4 
REMARK    3  A    between atoms: C_4  and  C_5 
REMARK    4  A    between atoms: C_7  and  C_8 
REMARK       I    between atoms: C_8  and  N_9 
REMARK    5  A    between atoms: N_9  and  N_10 
REMARK    6  A    between atoms: N_10  and  C_11 
REMARK    7  A    between atoms: C_11  and  N_12 
REMARK    8  A    between atoms: N_12  and  C_13 
REMARK    9  A    between atoms: C_13  and  C_14 
ROOT
HETATM    1  C   UNL     1      25.838  47.127  51.199  1.00  0.00     0.078 A 
HETATM    2  O   UNL     1      24.610  47.497  50.737  1.00  0.00    -0.307 OA
HETATM    3  C   UNL     1      24.799  48.253  49.609  1.00  0.00     0.145 A 
HETATM    4  C   UNL     1      26.157  48.346  49.353  1.00  0.00     0.045 A 
HETATM    5  C   UNL     1      26.822  47.625  50.374  1.00  0.00     0.038 A 
ENDROOT
BRANCH   3   6
HETATM    6  C   UNL     1      23.628  48.791  48.943  1.00  0.00     0.293 C 
HETATM    7  N   UNL     1      22.455  48.707  49.678  1.00  0.00    -0.262 N 
HETATM    8  H   UNL     1      22.458  48.499  50.672  1.00  0.00     0.190 HD
HETATM    9  O   UNL     1      23.627  49.293  47.817  1.00  0.00    -0.264 OA
BRANCH   7  10
HETATM   10  N   UNL     1      21.300  49.340  49.179  1.00  0.00    -0.274 N 
HETATM   11  H   UNL     1      21.116  50.243  49.613  1.00  0.00     0.189 HD
BRANCH  10  12
HETATM   12  C   UNL     1      20.237  48.588  48.751  1.00  0.00     0.186 C 
HETATM   13  S   UNL     1      20.173  47.766  47.292  1.00  0.00    -0.040 SA
BRANCH  12  14
HETATM   14  N   UNL     1      19.140  48.567  49.551  1.00  0.00    -0.364 N 
HETATM   15  H   UNL     1      18.435  47.891  49.271  1.00  0.00     0.162 HD
BRANCH  14  16
HETATM   16  C   UNL     1      18.678  49.554  50.523  1.00  0.00     0.154 C 
BRANCH  16  17
HETATM   17  C   UNL     1      17.911  50.722  49.879  1.00  0.00     0.139 C 
HETATM   18  O   UNL     1      17.585  50.385  48.514  1.00  0.00    -0.384 OA
HETATM   19  C   UNL     1      18.041  51.443  47.662  1.00  0.00     0.168 C 
HETATM   20  C   UNL     1      19.124  52.172  48.423  1.00  0.00     0.029 C 
HETATM   21  C   UNL     1      18.656  52.050  49.850  1.00  0.00     0.035 C 
ENDBRANCH  16  17
ENDBRANCH  14  16
ENDBRANCH  12  14
ENDBRANCH  10  12
ENDBRANCH   7  10
ENDBRANCH   3   6
BRANCH   1  22
HETATM   22  C   UNL     1      25.874  46.307  52.438  1.00  0.00     0.240 C 
BRANCH  22  23
HETATM   23  O   UNL     1      26.320  45.012  52.045  1.00  0.00    -0.345 OA
BRANCH  23  24
HETATM   24  C   UNL     1      27.385  44.492  52.730  1.00  0.00     0.069 A 
HETATM   25  C   UNL     1      28.152  43.384  52.333  1.00  0.00     0.037 A 
HETATM   26  C   UNL     1      29.235  42.950  53.107  1.00  0.00     0.010 A 
HETATM   27  C   UNL     1      29.539  43.641  54.265  1.00  0.00    -0.052 A 
HETATM   28  C   UNL     1      28.779  44.742  54.665  1.00  0.00    -0.049 A 
HETATM   29  C   UNL     1      30.613  43.343  55.265  1.00  0.00     0.039 C 
HETATM   30  C   UNL     1      27.704  45.176  53.908  1.00  0.00     0.044 A 
HETATM   31  C   UNL     1      29.262  45.280  55.974  1.00  0.00     0.039 C 
HETATM   32  C   UNL     1      30.668  44.665  56.046  1.00  0.00     0.009 C 
ENDBRANCH  23  24
ENDBRANCH  22  23
ENDBRANCH   1  22
TORSDOF 9
ENDMDL
MODEL 4
REMARK VINA RESULT:      -9.1      1.006      1.545
REMARK  9 active torsions:
REMARK  status: ('A' for Active; 'I' for Inactive)
REMARK    1  A    between atoms: C_2  and  O_3 
REMARK    2  A    between atoms: O_3  and  C_4 
REMARK    3  A    between atoms: C_4  and  C_5 
REMARK    4  A    between atoms: C_7  and  C_8 
REMARK       I    between atoms: C_8  and  N_9 
REMARK    5  A    between atoms: N_9  and  N_10 
REMARK    6  A    between atoms: N_10  and  C_11 
REMARK    7  A    between atoms: C_11  and  N_12 
REMARK    8  A    between atoms: N_12  and  C_13 
REMARK    9  A    between atoms: C_13  and  C_14 
ROOT
HETATM    1  C   UNL     1      26.021  45.253  52.512  1.00  0.00     0.078 A 
HETATM    2  O   UNL     1      25.576  46.397  51.920  1.00  0.00    -0.307 OA
HETATM    3  C   UNL     1      24.736  46.040  50.899  1.00  0.00     0.145 A 
HETATM    4  C   UNL     1      24.640  44.659  50.858  1.00  0.00     0.045 A 
HETATM    5  C   UNL     1      25.464  44.155  51.892  1.00  0.00     0.038 A 
ENDROOT
BRANCH   3   6
HETATM    6  C   UNL     1      24.150  47.096  50.094  1.00  0.00     0.293 C 
HETATM    7  N   UNL     1      22.993  46.735  49.420  1.00  0.00    -0.262 N 
HETATM    8  H   UNL     1      22.481  45.887  49.647  1.00  0.00     0.190 HD
HETATM    9  O   UNL     1      24.605  48.236  49.989  1.00  0.00    -0.264 OA
BRANCH   7  10
HETATM   10  N   UNL     1      22.270  47.733  48.740  1.00  0.00    -0.274 N 
HETATM   11  H   UNL     1      22.739  48.637  48.731  1.00  0.00     0.189 HD
BRANCH  10  12
HETATM   12  C   UNL     1      20.899  47.705  48.739  1.00  0.00     0.186 C 
HETATM   13  S   UNL     1      19.962  46.779  47.703  1.00  0.00    -0.040 SA
BRANCH  12  14
HETATM   14  N   UNL     1      20.268  48.540  49.605  1.00  0.00    -0.364 N 
HETATM   15  H   UNL     1      20.547  48.421  50.574  1.00  0.00     0.162 HD
BRANCH  14  16
HETATM   16  C   UNL     1      19.053  49.329  49.417  1.00  0.00     0.154 C 
BRANCH  16  17
HETATM   17  C   UNL     1      19.181  50.768  49.946  1.00  0.00     0.139 C 
HETATM   18  O   UNL     1      17.871  51.273  50.282  1.00  0.00    -0.384 OA
HETATM   19  C   UNL     1      17.683  52.529  49.619  1.00  0.00     0.168 C 
HETATM   20  C   UNL     1      18.640  52.547  48.451  1.00  0.00     0.029 C 
HETATM   21  C   UNL     1      19.813  51.760  48.978  1.00  0.00     0.035 C 
ENDBRANCH  16  17
ENDBRANCH  14  16
ENDBRANCH  12  14
ENDBRANCH  10  12
ENDBRANCH   7  10
ENDBRANCH   3   6
BRANCH   1  22
HETATM   22  C   UNL     1      26.970  45.403  53.646  1.00  0.00     0.240 C 
BRANCH  22  23
HETATM   23  O   UNL     1      28.037  44.493  53.393  1.00  0.00    -0.345 OA
BRANCH  23  24
HETATM   24  C   UNL     1      28.949  44.317  54.399  1.00  0.00     0.069 A 
HETATM   25  C   UNL     1      29.982  43.365  54.410  1.00  0.00     0.037 A 
HETATM   26  C   UNL     1      30.872  43.288  55.489  1.00  0.00     0.010 A 
HETATM   27  C   UNL     1      30.716  44.174  56.539  1.00  0.00    -0.052 A 
HETATM   28  C   UNL     1      29.689  45.121  56.533  1.00  0.00    -0.049 A 
HETATM   29  C   UNL     1      31.509  44.256  57.806  1.00  0.00     0.039 C 
HETATM   30  C   UNL     1      28.803  45.203  55.472  1.00  0.00     0.044 A 
HETATM   31  C   UNL     1      29.689  45.919  57.799  1.00  0.00     0.039 C 
HETATM   32  C   UNL     1      31.109  45.648  58.319  1.00  0.00     0.009 C 
ENDBRANCH  23  24
ENDBRANCH  22  23
ENDBRANCH   1  22
TORSDOF 9
ENDMDL
MODEL 5
REMARK VINA RESULT:      -9.0      2.032      2.707
REMARK  9 active torsions:
REMARK  status: ('A' for Active; 'I' for Inactive)
REMARK    1  A    between atoms: C_2  and  O_3 
REMARK    2  A    between atoms: O_3  and  C_4 
REMARK    3  A    between atoms: C_4  and  C_5 
REMARK    4  A    between atoms: C_7  and  C_8 
REMARK       I    between atoms: C_8  and  N_9 
REMARK    5  A    between atoms: N_9  and  N_10 
REMARK    6  A    between atoms: N_10  and  C_11 
REMARK    7  A    between atoms: C_11  and  N_12 
REMARK    8  A    between atoms: N_12  and  C_13 
REMARK    9  A    between atoms: C_13  and  C_14 
ROOT
HETATM    1  C   UNL     1      25.991  45.688  52.333  1.00  0.00     0.078 A 
HETATM    2  O   UNL     1      25.334  45.082  51.304  1.00  0.00    -0.307 OA
HETATM    3  C   UNL     1      24.763  46.064  50.537  1.00  0.00     0.145 A 
HETATM    4  C   UNL     1      25.078  47.299  51.081  1.00  0.00     0.045 A 
HETATM    5  C   UNL     1      25.865  47.056  52.232  1.00  0.00     0.038 A 
ENDROOT
BRANCH   3   6
HETATM    6  C   UNL     1      23.979  45.663  49.385  1.00  0.00     0.293 C 
HETATM    7  N   UNL     1      22.834  46.416  49.174  1.00  0.00    -0.262 N 
HETATM    8  H   UNL     1      22.680  47.303  49.644  1.00  0.00     0.190 HD
HETATM    9  O   UNL     1      24.268  44.737  48.624  1.00  0.00    -0.264 OA
BRANCH   7  10
HETATM   10  N   UNL     1      22.093  46.202  47.995  1.00  0.00    -0.274 N 
HETATM   11  H   UNL     1      22.621  46.395  47.146  1.00  0.00     0.189 HD
BRANCH  10  12
HETATM   12  C   UNL     1      20.739  46.415  47.990  1.00  0.00     0.186 C 
HETATM   13  S   UNL     1      19.582  45.221  48.203  1.00  0.00    -0.040 SA
BRANCH  12  14
HETATM   14  N   UNL     1      20.318  47.680  47.730  1.00  0.00    -0.364 N 
HETATM   15  H   UNL     1      19.967  47.815  46.786  1.00  0.00     0.162 HD
BRANCH  14  16
HETATM   16  C   UNL     1      20.586  48.917  48.458  1.00  0.00     0.154 C 
BRANCH  16  17
HETATM   17  C   UNL     1      21.616  49.819  47.756  1.00  0.00     0.139 C 
HETATM   18  O   UNL     1      22.860  49.103  47.609  1.00  0.00    -0.384 OA
HETATM   19  C   UNL     1      23.915  49.908  48.149  1.00  0.00     0.168 C 
HETATM   20  C   UNL     1      23.270  50.874  49.114  1.00  0.00     0.029 C 
HETATM   21  C   UNL     1      21.929  51.126  48.474  1.00  0.00     0.035 C 
ENDBRANCH  16  17
ENDBRANCH  14  16
ENDBRANCH  12  14
ENDBRANCH  10  12
ENDBRANCH   7  10
ENDBRANCH   3   6
BRANCH   1  22
HETATM   22  C   UNL     1      26.675  44.803  53.311  1.00  0.00     0.240 C 
BRANCH  22  23
HETATM   23  O   UNL     1      27.655  45.610  53.960  1.00  0.00    -0.345 OA
BRANCH  23  24
HETATM   24  C   UNL     1      28.655  44.952  54.625  1.00  0.00     0.069 A 
HETATM   25  C   UNL     1      29.352  43.829  54.150  1.00  0.00     0.037 A 
HETATM   26  C   UNL     1      30.373  43.248  54.911  1.00  0.00     0.010 A 
HETATM   27  C   UNL     1      30.687  43.809  56.135  1.00  0.00    -0.052 A 
HETATM   28  C   UNL     1      29.996  44.925  56.612  1.00  0.00    -0.049 A 
HETATM   29  C   UNL     1      31.702  43.344  57.133  1.00  0.00     0.039 C 
HETATM   30  C   UNL     1      28.982  45.504  55.868  1.00  0.00     0.044 A 
HETATM   31  C   UNL     1      30.472  45.307  57.977  1.00  0.00     0.039 C 
HETATM   32  C   UNL     1      31.826  44.585  58.031  1.00  0.00     0.009 C 
ENDBRANCH  23  24
ENDBRANCH  22  23
ENDBRANCH   1  22
TORSDOF 9
ENDMDL
MODEL 6
REMARK VINA RESULT:      -8.7      2.071      3.331
REMARK  9 active torsions:
REMARK  status: ('A' for Active; 'I' for Inactive)
REMARK    1  A    between atoms: C_2  and  O_3 
REMARK    2  A    between atoms: O_3  and  C_4 
REMARK    3  A    between atoms: C_4  and  C_5 
REMARK    4  A    between atoms: C_7  and  C_8 
REMARK       I    between atoms: C_8  and  N_9 
REMARK    5  A    between atoms: N_9  and  N_10 
REMARK    6  A    between atoms: N_10  and  C_11 
REMARK    7  A    between atoms: C_11  and  N_12 
REMARK    8  A    between atoms: N_12  and  C_13 
REMARK    9  A    between atoms: C_13  and  C_14 
ROOT
HETATM    1  C   UNL     1      25.185  46.847  50.928  1.00  0.00     0.078 A 
HETATM    2  O   UNL     1      24.463  47.945  50.567  1.00  0.00    -0.307 OA
HETATM    3  C   UNL     1      23.654  47.588  49.520  1.00  0.00     0.145 A 
HETATM    4  C   UNL     1      23.859  46.248  49.231  1.00  0.00     0.045 A 
HETATM    5  C   UNL     1      24.841  45.775  50.134  1.00  0.00     0.038 A 
ENDROOT
BRANCH   3   6
HETATM    6  C   UNL     1      22.800  48.605  48.937  1.00  0.00     0.293 C 
HETATM    7  N   UNL     1      22.159  49.420  49.859  1.00  0.00    -0.262 N 
HETATM    8  H   UNL     1      22.438  49.449  50.836  1.00  0.00     0.190 HD
HETATM    9  O   UNL     1      22.628  48.772  47.729  1.00  0.00    -0.264 OA
BRANCH   7  10
HETATM   10  N   UNL     1      21.434  50.531  49.388  1.00  0.00    -0.274 N 
HETATM   11  H   UNL     1      22.005  51.366  49.270  1.00  0.00     0.189 HD
BRANCH  10  12
HETATM   12  C   UNL     1      20.114  50.681  49.727  1.00  0.00     0.186 C 
HETATM   13  S   UNL     1      19.121  51.917  49.185  1.00  0.00    -0.040 SA
BRANCH  12  14
HETATM   14  N   UNL     1      19.604  49.789  50.616  1.00  0.00    -0.364 N 
HETATM   15  H   UNL     1      20.039  49.821  51.533  1.00  0.00     0.162 HD
BRANCH  14  16
HETATM   16  C   UNL     1      18.785  48.603  50.377  1.00  0.00     0.154 C 
BRANCH  16  17
HETATM   17  C   UNL     1      18.655  48.250  48.885  1.00  0.00     0.139 C 
HETATM   18  O   UNL     1      17.269  47.998  48.571  1.00  0.00    -0.384 OA
HETATM   19  C   UNL     1      17.174  46.725  47.920  1.00  0.00     0.168 C 
HETATM   20  C   UNL     1      18.408  45.947  48.311  1.00  0.00     0.029 C 
HETATM   21  C   UNL     1      19.449  47.030  48.436  1.00  0.00     0.035 C 
ENDBRANCH  16  17
ENDBRANCH  14  16
ENDBRANCH  12  14
ENDBRANCH  10  12
ENDBRANCH   7  10
ENDBRANCH   3   6
BRANCH   1  22
HETATM   22  C   UNL     1      26.152  47.012  52.044  1.00  0.00     0.240 C 
BRANCH  22  23
HETATM   23  O   UNL     1      25.890  45.950  52.957  1.00  0.00    -0.345 OA
BRANCH  23  24
HETATM   24  C   UNL     1      26.966  45.213  53.372  1.00  0.00     0.069 A 
HETATM   25  C   UNL     1      27.440  44.040  52.760  1.00  0.00     0.037 A 
HETATM   26  C   UNL     1      28.567  43.377  53.261  1.00  0.00     0.010 A 
HETATM   27  C   UNL     1      29.207  43.906  54.367  1.00  0.00    -0.052 A 
HETATM   28  C   UNL     1      28.738  45.070  54.981  1.00  0.00    -0.049 A 
HETATM   29  C   UNL     1      30.392  43.358  55.100  1.00  0.00     0.039 C 
HETATM   30  C   UNL     1      27.623  45.730  54.493  1.00  0.00     0.044 A 
HETATM   31  C   UNL     1      29.556  45.406  56.187  1.00  0.00     0.039 C 
HETATM   32  C   UNL     1      30.824  44.580  55.926  1.00  0.00     0.009 C 
ENDBRANCH  23  24
ENDBRANCH  22  23
ENDBRANCH   1  22
TORSDOF 9
ENDMDL
MODEL 7
REMARK VINA RESULT:      -8.7      1.504      2.070
REMARK  9 active torsions:
REMARK  status: ('A' for Active; 'I' for Inactive)
REMARK    1  A    between atoms: C_2  and  O_3 
REMARK    2  A    between atoms: O_3  and  C_4 
REMARK    3  A    between atoms: C_4  and  C_5 
REMARK    4  A    between atoms: C_7  and  C_8 
REMARK       I    between atoms: C_8  and  N_9 
REMARK    5  A    between atoms: N_9  and  N_10 
REMARK    6  A    between atoms: N_10  and  C_11 
REMARK    7  A    between atoms: C_11  and  N_12 
REMARK    8  A    between atoms: N_12  and  C_13 
REMARK    9  A    between atoms: C_13  and  C_14 
ROOT
HETATM    1  C   UNL     1      26.613  44.643  51.644  1.00  0.00     0.078 A 
HETATM    2  O   UNL     1      25.356  45.142  51.475  1.00  0.00    -0.307 OA
HETATM    3  C   UNL     1      25.261  45.607  50.189  1.00  0.00     0.145 A 
HETATM    4  C   UNL     1      26.465  45.385  49.541  1.00  0.00     0.045 A 
HETATM    5  C   UNL     1      27.331  44.768  50.475  1.00  0.00     0.038 A 
ENDROOT
BRANCH   3   6
HETATM    6  C   UNL     1      24.012  46.216  49.773  1.00  0.00     0.293 C 
HETATM    7  N   UNL     1      23.865  47.545  50.143  1.00  0.00    -0.262 N 
HETATM    8  H   UNL     1      24.649  48.101  50.471  1.00  0.00     0.190 HD
HETATM    9  O   UNL     1      23.125  45.641  49.140  1.00  0.00    -0.264 OA
BRANCH   7  10
HETATM   10  N   UNL     1      22.757  48.263  49.651  1.00  0.00    -0.274 N 
HETATM   11  H   UNL     1      22.046  47.668  49.229  1.00  0.00     0.189 HD
BRANCH  10  12
HETATM   12  C   UNL     1      22.927  49.532  49.162  1.00  0.00     0.186 C 
HETATM   13  S   UNL     1      24.228  50.035  48.234  1.00  0.00    -0.040 SA
BRANCH  12  14
HETATM   14  N   UNL     1      21.994  50.455  49.516  1.00  0.00    -0.364 N 
HETATM   15  H   UNL     1      21.636  50.343  50.460  1.00  0.00     0.162 HD
BRANCH  14  16
HETATM   16  C   UNL     1      21.208  51.352  48.674  1.00  0.00     0.154 C 
BRANCH  16  17
HETATM   17  C   UNL     1      19.765  50.863  48.455  1.00  0.00     0.139 C 
HETATM   18  O   UNL     1      18.843  51.896  48.863  1.00  0.00    -0.384 OA
HETATM   19  C   UNL     1      17.901  51.328  49.782  1.00  0.00     0.168 C 
HETATM   20  C   UNL     1      18.556  50.097  50.363  1.00  0.00     0.029 C 
HETATM   21  C   UNL     1      19.388  49.596  49.211  1.00  0.00     0.035 C 
ENDBRANCH  16  17
ENDBRANCH  14  16
ENDBRANCH  12  14
ENDBRANCH  10  12
ENDBRANCH   7  10
ENDBRANCH   3   6
BRANCH   1  22
HETATM   22  C   UNL     1      26.947  44.096  52.985  1.00  0.00     0.240 C 
BRANCH  22  23
HETATM   23  O   UNL     1      27.774  45.069  53.617  1.00  0.00    -0.345 OA
BRANCH  23  24
HETATM   24  C   UNL     1      28.767  44.599  54.433  1.00  0.00     0.069 A 
HETATM   25  C   UNL     1      29.609  43.509  54.155  1.00  0.00     0.037 A 
HETATM   26  C   UNL     1      30.607  43.127  55.059  1.00  0.00     0.010 A 
HETATM   27  C   UNL     1      30.752  43.852  56.228  1.00  0.00    -0.052 A 
HETATM   28  C   UNL     1      29.917  44.935  56.510  1.00  0.00    -0.049 A 
HETATM   29  C   UNL     1      31.710  43.611  57.353  1.00  0.00     0.039 C 
HETATM   30  C   UNL     1      28.925  45.318  55.623  1.00  0.00     0.044 A 
HETATM   31  C   UNL     1      30.227  45.515  57.854  1.00  0.00     0.039 C 
HETATM   32  C   UNL     1      31.634  44.950  58.103  1.00  0.00     0.009 C 
ENDBRANCH  23  24
ENDBRANCH  22  23
ENDBRANCH   1  22
TORSDOF 9
ENDMDL
MODEL 8
REMARK VINA RESULT:      -8.5      2.098      2.964
REMARK  9 active torsions:
REMARK  status: ('A' for Active; 'I' for Inactive)
REMARK    1  A    between atoms: C_2  and  O_3 
REMARK    2  A    between atoms: O_3  and  C_4 
REMARK    3  A    between atoms: C_4  and  C_5 
REMARK    4  A    between atoms: C_7  and  C_8 
REMARK       I    between atoms: C_8  and  N_9 
REMARK    5  A    between atoms: N_9  and  N_10 
REMARK    6  A    between atoms: N_10  and  C_11 
REMARK    7  A    between atoms: C_11  and  N_12 
REMARK    8  A    between atoms: N_12  and  C_13 
REMARK    9  A    between atoms: C_13  and  C_14 
ROOT
HETATM    1  C   UNL     1      25.611  44.834  52.584  1.00  0.00     0.078 A 
HETATM    2  O   UNL     1      25.516  46.125  52.158  1.00  0.00    -0.307 OA
HETATM    3  C   UNL     1      24.810  46.126  50.983  1.00  0.00     0.145 A 
HETATM    4  C   UNL     1      24.446  44.825  50.676  1.00  0.00     0.045 A 
HETATM    5  C   UNL     1      24.961  43.998  51.703  1.00  0.00     0.038 A 
ENDROOT
BRANCH   3   6
HETATM    6  C   UNL     1      24.598  47.395  50.314  1.00  0.00     0.293 C 
HETATM    7  N   UNL     1      23.284  47.640  49.942  1.00  0.00    -0.262 N 
HETATM    8  H   UNL     1      22.512  47.089  50.305  1.00  0.00     0.190 HD
HETATM    9  O   UNL     1      25.480  48.222  50.075  1.00  0.00    -0.264 OA
BRANCH   7  10
HETATM   10  N   UNL     1      22.954  48.909  49.427  1.00  0.00    -0.274 N 
HETATM   11  H   UNL     1      23.649  49.624  49.639  1.00  0.00     0.189 HD
BRANCH  10  12
HETATM   12  C   UNL     1      21.640  49.282  49.316  1.00  0.00     0.186 C 
HETATM   13  S   UNL     1      21.109  50.848  49.046  1.00  0.00    -0.040 SA
BRANCH  12  14
HETATM   14  N   UNL     1      20.709  48.310  49.502  1.00  0.00    -0.364 N 
HETATM   15  H   UNL     1      21.085  47.438  49.862  1.00  0.00     0.162 HD
BRANCH  14  16
HETATM   16  C   UNL     1      19.351  48.210  48.974  1.00  0.00     0.154 C 
BRANCH  16  17
HETATM   17  C   UNL     1      18.983  46.787  48.520  1.00  0.00     0.139 C 
HETATM   18  O   UNL     1      19.657  46.492  47.278  1.00  0.00    -0.384 OA
HETATM   19  C   UNL     1      18.684  46.039  46.328  1.00  0.00     0.168 C 
HETATM   20  C   UNL     1      17.347  46.564  46.797  1.00  0.00     0.029 C 
HETATM   21  C   UNL     1      17.497  46.541  48.297  1.00  0.00     0.035 C 
ENDBRANCH  16  17
ENDBRANCH  14  16
ENDBRANCH  12  14
ENDBRANCH  10  12
ENDBRANCH   7  10
ENDBRANCH   3   6
BRANCH   1  22
HETATM   22  C   UNL     1      26.360  44.593  53.845  1.00  0.00     0.240 C 
BRANCH  22  23
HETATM   23  O   UNL     1      27.661  45.140  53.645  1.00  0.00    -0.345 OA
BRANCH  23  24
HETATM   24  C   UNL     1      28.675  44.612  54.397  1.00  0.00     0.069 A 
HETATM   25  C   UNL     1      29.465  43.505  54.045  1.00  0.00     0.037 A 
HETATM   26  C   UNL     1      30.492  43.062  54.887  1.00  0.00     0.010 A 
HETATM   27  C   UNL     1      30.717  43.743  56.069  1.00  0.00    -0.052 A 
HETATM   28  C   UNL     1      29.933  44.843  56.425  1.00  0.00    -0.049 A 
HETATM   29  C   UNL     1      31.719  43.435  57.138  1.00  0.00     0.039 C 
HETATM   30  C   UNL     1      28.914  45.286  55.600  1.00  0.00     0.044 A 
HETATM   31  C   UNL     1      30.327  45.368  57.769  1.00  0.00     0.039 C 
HETATM   32  C   UNL     1      31.723  44.750  57.932  1.00  0.00     0.009 C 
ENDBRANCH  23  24
ENDBRANCH  22  23
ENDBRANCH   1  22
TORSDOF 9
ENDMDL
MODEL 9
REMARK VINA RESULT:      -8.3      2.817      3.943
REMARK  9 active torsions:
REMARK  status: ('A' for Active; 'I' for Inactive)
REMARK    1  A    between atoms: C_2  and  O_3 
REMARK    2  A    between atoms: O_3  and  C_4 
REMARK    3  A    between atoms: C_4  and  C_5 
REMARK    4  A    between atoms: C_7  and  C_8 
REMARK       I    between atoms: C_8  and  N_9 
REMARK    5  A    between atoms: N_9  and  N_10 
REMARK    6  A    between atoms: N_10  and  C_11 
REMARK    7  A    between atoms: C_11  and  N_12 
REMARK    8  A    between atoms: N_12  and  C_13 
REMARK    9  A    between atoms: C_13  and  C_14 
ROOT
HETATM    1  C   UNL     1      26.544  42.945  50.915  1.00  0.00     0.078 A 
HETATM    2  O   UNL     1      25.341  43.578  50.816  1.00  0.00    -0.307 OA
HETATM    3  C   UNL     1      24.517  42.793  50.052  1.00  0.00     0.145 A 
HETATM    4  C   UNL     1      25.205  41.650  49.679  1.00  0.00     0.045 A 
HETATM    5  C   UNL     1      26.504  41.749  50.233  1.00  0.00     0.038 A 
ENDROOT
BRANCH   3   6
HETATM    6  C   UNL     1      23.175  43.272  49.780  1.00  0.00     0.293 C 
HETATM    7  N   UNL     1      23.066  44.077  48.655  1.00  0.00    -0.262 N 
HETATM    8  H   UNL     1      23.807  44.137  47.963  1.00  0.00     0.190 HD
HETATM    9  O   UNL     1      22.182  43.011  50.462  1.00  0.00    -0.264 OA
BRANCH   7  10
HETATM   10  N   UNL     1      21.781  44.461  48.224  1.00  0.00    -0.274 N 
HETATM   11  H   UNL     1      21.421  43.885  47.464  1.00  0.00     0.189 HD
BRANCH  10  12
HETATM   12  C   UNL     1      21.403  45.777  48.286  1.00  0.00     0.186 C 
HETATM   13  S   UNL     1      20.148  46.455  47.407  1.00  0.00    -0.040 SA
BRANCH  12  14
HETATM   14  N   UNL     1      22.149  46.592  49.077  1.00  0.00    -0.364 N 
HETATM   15  H   UNL     1      21.850  46.616  50.047  1.00  0.00     0.162 HD
BRANCH  14  16
HETATM   16  C   UNL     1      23.074  47.659  48.703  1.00  0.00     0.154 C 
BRANCH  16  17
HETATM   17  C   UNL     1      24.043  48.042  49.835  1.00  0.00     0.139 C 
HETATM   18  O   UNL     1      25.074  48.905  49.311  1.00  0.00    -0.384 OA
HETATM   19  C   UNL     1      26.350  48.359  49.670  1.00  0.00     0.168 C 
HETATM   20  C   UNL     1      26.130  46.890  49.941  1.00  0.00     0.029 C 
HETATM   21  C   UNL     1      24.737  46.870  50.518  1.00  0.00     0.035 C 
ENDBRANCH  16  17
ENDBRANCH  14  16
ENDBRANCH  12  14
ENDBRANCH  10  12
ENDBRANCH   7  10
ENDBRANCH   3   6
BRANCH   1  22
HETATM   22  C   UNL     1      27.606  43.633  51.693  1.00  0.00     0.240 C 
BRANCH  22  23
HETATM   23  O   UNL     1      26.989  44.084  52.896  1.00  0.00    -0.345 OA
BRANCH  23  24
HETATM   24  C   UNL     1      27.820  44.546  53.881  1.00  0.00     0.069 A 
HETATM   25  C   UNL     1      27.698  45.778  54.544  1.00  0.00     0.037 A 
HETATM   26  C   UNL     1      28.598  46.140  55.553  1.00  0.00     0.010 A 
HETATM   27  C   UNL     1      29.605  45.254  55.889  1.00  0.00    -0.052 A 
HETATM   28  C   UNL     1      29.732  44.028  55.232  1.00  0.00    -0.049 A 
HETATM   29  C   UNL     1      30.699  45.434  56.895  1.00  0.00     0.039 C 
HETATM   30  C   UNL     1      28.848  43.663  54.230  1.00  0.00     0.044 A 
HETATM   31  C   UNL     1      30.927  43.276  55.726  1.00  0.00     0.039 C 
HETATM   32  C   UNL     1      31.195  43.989  57.059  1.00  0.00     0.009 C 
ENDBRANCH  23  24
ENDBRANCH  22  23
ENDBRANCH   1  22
TORSDOF 9
ENDMDL
MODEL 10
REMARK VINA RESULT:      -8.2      2.922     10.953
REMARK  9 active torsions:
REMARK  status: ('A' for Active; 'I' for Inactive)
REMARK    1  A    between atoms: C_2  and  O_3 
REMARK    2  A    between atoms: O_3  and  C_4 
REMARK    3  A    between atoms: C_4  and  C_5 
REMARK    4  A    between atoms: C_7  and  C_8 
REMARK       I    between atoms: C_8  and  N_9 
REMARK    5  A    between atoms: N_9  and  N_10 
REMARK    6  A    between atoms: N_10  and  C_11 
REMARK    7  A    between atoms: C_11  and  N_12 
REMARK    8  A    between atoms: N_12  and  C_13 
REMARK    9  A    between atoms: C_13  and  C_14 
ROOT
HETATM    1  C   UNL     1      22.859  49.444  49.201  1.00  0.00     0.078 A 
HETATM    2  O   UNL     1      24.089  49.141  49.703  1.00  0.00    -0.307 OA
HETATM    3  C   UNL     1      24.235  47.778  49.657  1.00  0.00     0.145 A 
HETATM    4  C   UNL     1      23.092  47.223  49.106  1.00  0.00     0.045 A 
HETATM    5  C   UNL     1      22.210  48.291  48.816  1.00  0.00     0.038 A 
ENDROOT
BRANCH   3   6
HETATM    6  C   UNL     1      25.466  47.205  50.166  1.00  0.00     0.293 C 
HETATM    7  N   UNL     1      25.759  45.939  49.680  1.00  0.00    -0.262 N 
HETATM    8  H   UNL     1      25.279  45.549  48.874  1.00  0.00     0.190 HD
HETATM    9  O   UNL     1      26.224  47.759  50.965  1.00  0.00    -0.264 OA
BRANCH   7  10
HETATM   10  N   UNL     1      27.007  45.367  49.996  1.00  0.00    -0.274 N 
HETATM   11  H   UNL     1      27.611  45.243  49.186  1.00  0.00     0.189 HD
BRANCH  10  12
HETATM   12  C   UNL     1      27.108  44.477  51.034  1.00  0.00     0.186 C 
HETATM   13  S   UNL     1      27.400  42.836  50.862  1.00  0.00    -0.040 SA
BRANCH  12  14
HETATM   14  N   UNL     1      26.894  44.965  52.283  1.00  0.00    -0.364 N 
HETATM   15  H   UNL     1      26.328  45.808  52.309  1.00  0.00     0.162 HD
BRANCH  14  16
HETATM   16  C   UNL     1      27.599  44.673  53.529  1.00  0.00     0.154 C 
BRANCH  16  17
HETATM   17  C   UNL     1      27.089  45.503  54.720  1.00  0.00     0.139 C 
HETATM   18  O   UNL     1      25.973  46.314  54.295  1.00  0.00    -0.384 OA
HETATM   19  C   UNL     1      26.233  47.675  54.662  1.00  0.00     0.168 C 
HETATM   20  C   UNL     1      27.730  47.799  54.821  1.00  0.00     0.029 C 
HETATM   21  C   UNL     1      28.116  46.439  55.344  1.00  0.00     0.035 C 
ENDBRANCH  16  17
ENDBRANCH  14  16
ENDBRANCH  12  14
ENDBRANCH  10  12
ENDBRANCH   7  10
ENDBRANCH   3   6
BRANCH   1  22
HETATM   22  C   UNL     1      22.477  50.880  49.173  1.00  0.00     0.240 C 
BRANCH  22  23
HETATM   23  O   UNL     1      21.270  50.985  49.924  1.00  0.00    -0.345 OA
BRANCH  23  24
HETATM   24  C   UNL     1      20.125  51.239  49.219  1.00  0.00     0.069 A 
HETATM   25  C   UNL     1      19.924  50.964  47.856  1.00  0.00     0.037 A 
HETATM   26  C   UNL     1      18.699  51.251  47.241  1.00  0.00     0.010 A 
HETATM   27  C   UNL     1      17.688  51.801  48.007  1.00  0.00    -0.052 A 
HETATM   28  C   UNL     1      17.883  52.077  49.363  1.00  0.00    -0.049 A 
HETATM   29  C   UNL     1      16.321  52.226  47.569  1.00  0.00     0.039 C 
HETATM   30  C   UNL     1      19.092  51.801  49.978  1.00  0.00     0.044 A 
HETATM   31  C   UNL     1      16.672  52.723  49.957  1.00  0.00     0.039 C 
HETATM   32  C   UNL     1      15.601  52.357  48.919  1.00  0.00     0.009 C 
ENDBRANCH  23  24
ENDBRANCH  22  23
ENDBRANCH   1  22
TORSDOF 9
ENDMDL
