MODEL 1
REMARK VINA RESULT:      -9.1      0.000      0.000
REMARK  4 active torsions:
REMARK  status: ('A' for Active; 'I' for Inactive)
REMARK    1  A    between atoms: C_4  and  C_5 
REMARK    2  A    between atoms: C_8  and  N_9 
REMARK       I    between atoms: N_9  and  C_10 
REMARK       I    between atoms: C_10  and  N_11 
REMARK    3  A    between atoms: N_11  and  C_12 
REMARK    4  A    between atoms: C_12  and  C_13 
ROOT
HETATM    1  C   UNL     1      29.172  44.143  54.232  1.00  0.00     0.089 A 
HETATM    2  N   UNL     1      28.043  44.881  54.133  1.00  0.00    -0.148 NA
HETATM    3  N   UNL     1      27.266  44.836  52.990  1.00  0.00    -0.131 NA
HETATM    4  C   UNL     1      27.615  44.044  51.960  1.00  0.00     0.153 A 
HETATM    5  C   UNL     1      28.758  43.265  52.031  1.00  0.00     0.055 A 
HETATM    6  C   UNL     1      29.546  43.314  53.182  1.00  0.00     0.038 A 
ENDROOT
BRANCH   4   7
HETATM    7  N   UNL     1      26.861  43.992  50.788  1.00  0.00    -0.292 N 
HETATM    8  C   UNL     1      26.010  44.908  50.260  1.00  0.00     0.322 C 
HETATM    9  N   UNL     1      25.777  46.044  50.963  1.00  0.00    -0.337 N 
HETATM   10  O   UNL     1      25.474  44.663  49.180  1.00  0.00    -0.247 OA
HETATM   11  H   UNL     1      26.443  46.274  51.693  1.00  0.00     0.164 HD
HETATM   12  H   UNL     1      26.943  43.171  50.205  1.00  0.00     0.172 HD
BRANCH   9  13
HETATM   13  C   UNL     1      25.002  47.116  50.385  1.00  0.00     0.189 C 
BRANCH  13  14
HETATM   14  C   UNL     1      25.894  48.084  49.704  1.00  0.00     0.070 A 
HETATM   15  O   UNL     1      25.287  48.986  48.877  1.00  0.00    -0.325 OA
HETATM   16  C   UNL     1      26.261  49.791  48.381  1.00  0.00     0.142 A 
HETATM   17  C   UNL     1      27.489  49.423  48.877  1.00  0.00     0.027 A 
HETATM   18  C   UNL     1      27.254  48.321  49.734  1.00  0.00     0.036 A 
ENDBRANCH  13  14
ENDBRANCH   9  13
ENDBRANCH   4   7
BRANCH   1  19
HETATM   19  C   UNL     1      29.940  44.265  55.483  1.00  0.00    -0.006 A 
HETATM   20  C   UNL     1      29.775  45.381  56.325  1.00  0.00     0.014 A 
HETATM   21  C   UNL     1      30.486  45.501  57.522  1.00  0.00     0.001 A 
HETATM   22  C   UNL     1      31.386  44.509  57.901  1.00  0.00     0.000 A 
HETATM   23  C   UNL     1      31.577  43.401  57.083  1.00  0.00     0.001 A 
HETATM   24  C   UNL     1      30.862  43.280  55.887  1.00  0.00     0.014 A 
ENDBRANCH   1  19
TORSDOF 4
ENDMDL
MODEL 2
REMARK VINA RESULT:      -8.9      0.346      1.082
REMARK  4 active torsions:
REMARK  status: ('A' for Active; 'I' for Inactive)
REMARK    1  A    between atoms: C_4  and  C_5 
REMARK    2  A    between atoms: C_8  and  N_9 
REMARK       I    between atoms: N_9  and  C_10 
REMARK       I    between atoms: C_10  and  N_11 
REMARK    3  A    between atoms: N_11  and  C_12 
REMARK    4  A    between atoms: C_12  and  C_13 
ROOT
HETATM    1  C   UNL     1      28.880  44.134  54.061  1.00  0.00     0.089 A 
HETATM    2  N   UNL     1      27.627  44.640  54.120  1.00  0.00    -0.148 NA
HETATM    3  N   UNL     1      26.791  44.588  53.020  1.00  0.00    -0.131 NA
HETATM    4  C   UNL     1      27.207  44.020  51.874  1.00  0.00     0.153 A 
HETATM    5  C   UNL     1      28.480  43.480  51.782  1.00  0.00     0.055 A 
HETATM    6  C   UNL     1      29.326  43.537  52.889  1.00  0.00     0.038 A 
ENDROOT
BRANCH   4   7
HETATM    7  N   UNL     1      26.393  43.969  50.742  1.00  0.00    -0.292 N 
HETATM    8  C   UNL     1      25.612  44.932  50.190  1.00  0.00     0.322 C 
HETATM    9  N   UNL     1      25.530  46.130  50.822  1.00  0.00    -0.337 N 
HETATM   10  O   UNL     1      25.000  44.675  49.154  1.00  0.00    -0.247 OA
HETATM   11  H   UNL     1      26.251  46.336  51.504  1.00  0.00     0.164 HD
HETATM   12  H   UNL     1      26.363  43.108  50.215  1.00  0.00     0.172 HD
BRANCH   9  13
HETATM   13  C   UNL     1      24.837  47.236  50.205  1.00  0.00     0.189 C 
BRANCH  13  14
HETATM   14  C   UNL     1      25.809  48.174  49.596  1.00  0.00     0.070 A 
HETATM   15  O   UNL     1      25.288  49.145  48.788  1.00  0.00    -0.325 OA
HETATM   16  C   UNL     1      26.326  49.907  48.359  1.00  0.00     0.142 A 
HETATM   17  C   UNL     1      27.511  49.445  48.880  1.00  0.00     0.027 A 
HETATM   18  C   UNL     1      27.180  48.326  49.681  1.00  0.00     0.036 A 
ENDBRANCH  13  14
ENDBRANCH   9  13
ENDBRANCH   4   7
BRANCH   1  19
HETATM   19  C   UNL     1      29.700  44.245  55.279  1.00  0.00    -0.006 A 
HETATM   20  C   UNL     1      30.607  43.229  55.633  1.00  0.00     0.014 A 
HETATM   21  C   UNL     1      31.402  43.329  56.779  1.00  0.00     0.001 A 
HETATM   22  C   UNL     1      31.301  44.446  57.602  1.00  0.00     0.000 A 
HETATM   23  C   UNL     1      30.404  45.460  57.283  1.00  0.00     0.001 A 
HETATM   24  C   UNL     1      29.613  45.361  56.135  1.00  0.00     0.014 A 
ENDBRANCH   1  19
TORSDOF 4
ENDMDL
MODEL 3
REMARK VINA RESULT:      -8.7      2.171      3.872
REMARK  4 active torsions:
REMARK  status: ('A' for Active; 'I' for Inactive)
REMARK    1  A    between atoms: C_4  and  C_5 
REMARK    2  A    between atoms: C_8  and  N_9 
REMARK       I    between atoms: N_9  and  C_10 
REMARK       I    between atoms: C_10  and  N_11 
REMARK    3  A    between atoms: N_11  and  C_12 
REMARK    4  A    between atoms: C_12  and  C_13 
ROOT
HETATM    1  C   UNL     1      28.718  45.714  55.255  1.00  0.00     0.089 A 
HETATM    2  N   UNL     1      28.115  44.902  54.357  1.00  0.00    -0.148 NA
HETATM    3  N   UNL     1      27.133  45.388  53.514  1.00  0.00    -0.131 NA
HETATM    4  C   UNL     1      26.770  46.682  53.565  1.00  0.00     0.153 A 
HETATM    5  C   UNL     1      27.376  47.545  54.463  1.00  0.00     0.055 A 
HETATM    6  C   UNL     1      28.363  47.055  55.319  1.00  0.00     0.038 A 
ENDROOT
BRANCH   4   7
HETATM    7  N   UNL     1      25.770  47.196  52.739  1.00  0.00    -0.292 N 
HETATM    8  C   UNL     1      25.450  46.877  51.460  1.00  0.00     0.322 C 
HETATM    9  N   UNL     1      26.220  45.963  50.817  1.00  0.00    -0.337 N 
HETATM   10  O   UNL     1      24.491  47.438  50.931  1.00  0.00    -0.247 OA
HETATM   11  H   UNL     1      26.810  45.375  51.396  1.00  0.00     0.164 HD
HETATM   12  H   UNL     1      25.158  47.905  53.117  1.00  0.00     0.172 HD
BRANCH   9  13
HETATM   13  C   UNL     1      25.841  45.475  49.512  1.00  0.00     0.189 C 
BRANCH  13  14
HETATM   14  C   UNL     1      25.838  43.993  49.500  1.00  0.00     0.070 A 
HETATM   15  O   UNL     1      27.015  43.390  49.161  1.00  0.00    -0.325 OA
HETATM   16  C   UNL     1      26.814  42.050  49.238  1.00  0.00     0.142 A 
HETATM   17  C   UNL     1      25.524  41.778  49.624  1.00  0.00     0.027 A 
HETATM   18  C   UNL     1      24.891  43.032  49.796  1.00  0.00     0.036 A 
ENDBRANCH  13  14
ENDBRANCH   9  13
ENDBRANCH   4   7
BRANCH   1  19
HETATM   19  C   UNL     1      29.745  45.104  56.118  1.00  0.00    -0.006 A 
HETATM   20  C   UNL     1      30.494  43.997  55.677  1.00  0.00     0.014 A 
HETATM   21  C   UNL     1      31.482  43.419  56.480  1.00  0.00     0.001 A 
HETATM   22  C   UNL     1      31.737  43.932  57.748  1.00  0.00     0.000 A 
HETATM   23  C   UNL     1      31.004  45.017  58.214  1.00  0.00     0.001 A 
HETATM   24  C   UNL     1      30.019  45.597  57.408  1.00  0.00     0.014 A 
ENDBRANCH   1  19
TORSDOF 4
ENDMDL
MODEL 4
REMARK VINA RESULT:      -8.4      3.293      5.634
REMARK  4 active torsions:
REMARK  status: ('A' for Active; 'I' for Inactive)
REMARK    1  A    between atoms: C_4  and  C_5 
REMARK    2  A    between atoms: C_8  and  N_9 
REMARK       I    between atoms: N_9  and  C_10 
REMARK       I    between atoms: C_10  and  N_11 
REMARK    3  A    between atoms: N_11  and  C_12 
REMARK    4  A    between atoms: C_12  and  C_13 
ROOT
HETATM    1  C   UNL     1      29.276  44.099  54.341  1.00  0.00     0.089 A 
HETATM    2  N   UNL     1      29.823  43.306  53.391  1.00  0.00    -0.148 NA
HETATM    3  N   UNL     1      29.185  43.111  52.180  1.00  0.00    -0.131 NA
HETATM    4  C   UNL     1      28.013  43.719  51.921  1.00  0.00     0.153 A 
HETATM    5  C   UNL     1      27.431  44.549  52.865  1.00  0.00     0.055 A 
HETATM    6  C   UNL     1      28.071  44.742  54.090  1.00  0.00     0.038 A 
ENDROOT
BRANCH   4   7
HETATM    7  N   UNL     1      27.338  43.527  50.715  1.00  0.00    -0.292 N 
HETATM    8  C   UNL     1      26.937  42.377  50.118  1.00  0.00     0.322 C 
HETATM    9  N   UNL     1      27.261  41.201  50.712  1.00  0.00    -0.337 N 
HETATM   10  O   UNL     1      26.314  42.447  49.059  1.00  0.00    -0.247 OA
HETATM   11  H   UNL     1      27.538  41.243  51.686  1.00  0.00     0.164 HD
HETATM   12  H   UNL     1      27.076  44.344  50.182  1.00  0.00     0.172 HD
BRANCH   9  13
HETATM   13  C   UNL     1      26.735  39.956  50.204  1.00  0.00     0.189 C 
BRANCH  13  14
HETATM   14  C   UNL     1      27.811  39.174  49.550  1.00  0.00     0.070 A 
HETATM   15  O   UNL     1      28.872  38.830  50.339  1.00  0.00    -0.325 OA
HETATM   16  C   UNL     1      29.721  38.102  49.571  1.00  0.00     0.142 A 
HETATM   17  C   UNL     1      29.225  37.969  48.296  1.00  0.00     0.027 A 
HETATM   18  C   UNL     1      27.989  38.659  48.281  1.00  0.00     0.036 A 
ENDBRANCH  13  14
ENDBRANCH   9  13
ENDBRANCH   4   7
BRANCH   1  19
HETATM   19  C   UNL     1      30.023  44.238  55.602  1.00  0.00    -0.006 A 
HETATM   20  C   UNL     1      29.822  45.350  56.442  1.00  0.00     0.014 A 
HETATM   21  C   UNL     1      30.514  45.486  57.649  1.00  0.00     0.001 A 
HETATM   22  C   UNL     1      31.430  44.514  58.041  1.00  0.00     0.000 A 
HETATM   23  C   UNL     1      31.656  43.411  57.225  1.00  0.00     0.001 A 
HETATM   24  C   UNL     1      30.961  43.274  56.020  1.00  0.00     0.014 A 
ENDBRANCH   1  19
TORSDOF 4
ENDMDL
MODEL 5
REMARK VINA RESULT:      -8.4      4.694      9.957
REMARK  4 active torsions:
REMARK  status: ('A' for Active; 'I' for Inactive)
REMARK    1  A    between atoms: C_4  and  C_5 
REMARK    2  A    between atoms: C_8  and  N_9 
REMARK       I    between atoms: N_9  and  C_10 
REMARK       I    between atoms: C_10  and  N_11 
REMARK    3  A    between atoms: N_11  and  C_12 
REMARK    4  A    between atoms: C_12  and  C_13 
ROOT
HETATM    1  C   UNL     1      21.923  50.676  48.925  1.00  0.00     0.089 A 
HETATM    2  N   UNL     1      22.415  49.789  49.820  1.00  0.00    -0.148 NA
HETATM    3  N   UNL     1      23.721  49.344  49.727  1.00  0.00    -0.131 NA
HETATM    4  C   UNL     1      24.528  49.795  48.751  1.00  0.00     0.153 A 
HETATM    5  C   UNL     1      24.061  50.713  47.825  1.00  0.00     0.055 A 
HETATM    6  C   UNL     1      22.742  51.160  47.913  1.00  0.00     0.038 A 
ENDROOT
BRANCH   4   7
HETATM    7  N   UNL     1      25.844  49.350  48.622  1.00  0.00    -0.292 N 
HETATM    8  C   UNL     1      26.458  48.281  49.188  1.00  0.00     0.322 C 
HETATM    9  N   UNL     1      25.750  47.525  50.064  1.00  0.00    -0.337 N 
HETATM   10  O   UNL     1      27.632  48.052  48.900  1.00  0.00    -0.247 OA
HETATM   11  H   UNL     1      24.741  47.627  50.043  1.00  0.00     0.164 HD
HETATM   12  H   UNL     1      26.463  49.864  48.011  1.00  0.00     0.172 HD
BRANCH   9  13
HETATM   13  C   UNL     1      26.301  46.295  50.581  1.00  0.00     0.189 C 
BRANCH  13  14
HETATM   14  C   UNL     1      26.233  46.286  52.062  1.00  0.00     0.070 A 
HETATM   15  O   UNL     1      25.907  47.471  52.659  1.00  0.00    -0.325 OA
HETATM   16  C   UNL     1      25.869  47.247  53.997  1.00  0.00     0.142 A 
HETATM   17  C   UNL     1      26.163  45.934  54.274  1.00  0.00     0.027 A 
HETATM   18  C   UNL     1      26.396  45.310  53.025  1.00  0.00     0.036 A 
ENDBRANCH  13  14
ENDBRANCH   9  13
ENDBRANCH   4   7
BRANCH   1  19
HETATM   19  C   UNL     1      20.518  51.084  49.097  1.00  0.00    -0.006 A 
HETATM   20  C   UNL     1      19.675  50.408  49.999  1.00  0.00     0.014 A 
HETATM   21  C   UNL     1      18.345  50.795  50.183  1.00  0.00     0.001 A 
HETATM   22  C   UNL     1      17.825  51.866  49.462  1.00  0.00     0.000 A 
HETATM   23  C   UNL     1      18.632  52.545  48.557  1.00  0.00     0.001 A 
HETATM   24  C   UNL     1      19.963  52.159  48.376  1.00  0.00     0.014 A 
ENDBRANCH   1  19
TORSDOF 4
ENDMDL
MODEL 6
REMARK VINA RESULT:      -8.3      2.516      7.610
REMARK  4 active torsions:
REMARK  status: ('A' for Active; 'I' for Inactive)
REMARK    1  A    between atoms: C_4  and  C_5 
REMARK    2  A    between atoms: C_8  and  N_9 
REMARK       I    between atoms: N_9  and  C_10 
REMARK       I    between atoms: C_10  and  N_11 
REMARK    3  A    between atoms: N_11  and  C_12 
REMARK    4  A    between atoms: C_12  and  C_13 
ROOT
HETATM    1  C   UNL     1      26.158  46.392  50.457  1.00  0.00     0.089 A 
HETATM    2  N   UNL     1      27.017  45.488  49.932  1.00  0.00    -0.148 NA
HETATM    3  N   UNL     1      27.236  44.276  50.559  1.00  0.00    -0.131 NA
HETATM    4  C   UNL     1      26.587  43.969  51.697  1.00  0.00     0.153 A 
HETATM    5  C   UNL     1      25.690  44.865  52.255  1.00  0.00     0.055 A 
HETATM    6  C   UNL     1      25.472  46.092  51.627  1.00  0.00     0.038 A 
ENDROOT
BRANCH   4   7
HETATM    7  N   UNL     1      26.801  42.760  52.360  1.00  0.00    -0.292 N 
HETATM    8  C   UNL     1      27.876  42.340  53.073  1.00  0.00     0.322 C 
HETATM    9  N   UNL     1      28.959  43.155  53.139  1.00  0.00    -0.337 N 
HETATM   10  O   UNL     1      27.832  41.235  53.613  1.00  0.00    -0.247 OA
HETATM   11  H   UNL     1      28.813  44.128  52.894  1.00  0.00     0.164 HD
HETATM   12  H   UNL     1      26.062  42.072  52.347  1.00  0.00     0.172 HD
BRANCH   9  13
HETATM   13  C   UNL     1      30.069  42.827  54.002  1.00  0.00     0.189 C 
BRANCH  13  14
HETATM   14  C   UNL     1      30.179  43.823  55.095  1.00  0.00     0.070 A 
HETATM   15  O   UNL     1      29.219  44.794  55.127  1.00  0.00    -0.325 OA
HETATM   16  C   UNL     1      29.478  45.577  56.204  1.00  0.00     0.142 A 
HETATM   17  C   UNL     1      30.591  45.125  56.872  1.00  0.00     0.027 A 
HETATM   18  C   UNL     1      31.045  43.990  56.158  1.00  0.00     0.036 A 
ENDBRANCH  13  14
ENDBRANCH   9  13
ENDBRANCH   4   7
BRANCH   1  19
HETATM   19  C   UNL     1      25.997  47.660  49.725  1.00  0.00    -0.006 A 
HETATM   20  C   UNL     1      27.119  48.418  49.340  1.00  0.00     0.014 A 
HETATM   21  C   UNL     1      26.981  49.615  48.632  1.00  0.00     0.001 A 
HETATM   22  C   UNL     1      25.715  50.086  48.298  1.00  0.00     0.000 A 
HETATM   23  C   UNL     1      24.588  49.363  48.676  1.00  0.00     0.001 A 
HETATM   24  C   UNL     1      24.728  48.163  49.381  1.00  0.00     0.014 A 
ENDBRANCH   1  19
TORSDOF 4
ENDMDL
MODEL 7
REMARK VINA RESULT:      -8.1      3.801      5.311
REMARK  4 active torsions:
REMARK  status: ('A' for Active; 'I' for Inactive)
REMARK    1  A    between atoms: C_4  and  C_5 
REMARK    2  A    between atoms: C_8  and  N_9 
REMARK       I    between atoms: N_9  and  C_10 
REMARK       I    between atoms: C_10  and  N_11 
REMARK    3  A    between atoms: N_11  and  C_12 
REMARK    4  A    between atoms: C_12  and  C_13 
ROOT
HETATM    1  C   UNL     1      25.764  46.392  52.226  1.00  0.00     0.089 A 
HETATM    2  N   UNL     1      25.672  47.590  51.605  1.00  0.00    -0.148 NA
HETATM    3  N   UNL     1      24.876  47.746  50.486  1.00  0.00    -0.131 NA
HETATM    4  C   UNL     1      24.167  46.710  50.002  1.00  0.00     0.153 A 
HETATM    5  C   UNL     1      24.228  45.472  50.621  1.00  0.00     0.055 A 
HETATM    6  C   UNL     1      25.035  45.311  51.747  1.00  0.00     0.038 A 
ENDROOT
BRANCH   4   7
HETATM    7  N   UNL     1      23.370  46.833  48.865  1.00  0.00    -0.292 N 
HETATM    8  C   UNL     1      22.802  47.938  48.318  1.00  0.00     0.322 C 
HETATM    9  N   UNL     1      22.954  49.122  48.963  1.00  0.00    -0.337 N 
HETATM   10  O   UNL     1      22.160  47.818  47.275  1.00  0.00    -0.247 OA
HETATM   11  H   UNL     1      23.696  49.174  49.652  1.00  0.00     0.164 HD
HETATM   12  H   UNL     1      23.174  46.001  48.328  1.00  0.00     0.172 HD
BRANCH   9  13
HETATM   13  C   UNL     1      22.501  50.350  48.354  1.00  0.00     0.189 C 
BRANCH  13  14
HETATM   14  C   UNL     1      21.182  50.740  48.907  1.00  0.00     0.070 A 
HETATM   15  O   UNL     1      20.715  49.984  49.944  1.00  0.00    -0.325 OA
HETATM   16  C   UNL     1      19.524  50.515  50.321  1.00  0.00     0.142 A 
HETATM   17  C   UNL     1      19.216  51.605  49.544  1.00  0.00     0.027 A 
HETATM   18  C   UNL     1      20.286  51.754  48.630  1.00  0.00     0.036 A 
ENDBRANCH  13  14
ENDBRANCH   9  13
ENDBRANCH   4   7
BRANCH   1  19
HETATM   19  C   UNL     1      26.645  46.319  53.404  1.00  0.00    -0.006 A 
HETATM   20  C   UNL     1      27.276  45.113  53.760  1.00  0.00     0.014 A 
HETATM   21  C   UNL     1      28.127  45.034  54.867  1.00  0.00     0.001 A 
HETATM   22  C   UNL     1      28.359  46.162  55.648  1.00  0.00     0.000 A 
HETATM   23  C   UNL     1      27.740  47.364  55.326  1.00  0.00     0.001 A 
HETATM   24  C   UNL     1      26.893  47.442  54.217  1.00  0.00     0.014 A 
ENDBRANCH   1  19
TORSDOF 4
ENDMDL
MODEL 8
REMARK VINA RESULT:      -8.1      4.663      9.592
REMARK  4 active torsions:
REMARK  status: ('A' for Active; 'I' for Inactive)
REMARK    1  A    between atoms: C_4  and  C_5 
REMARK    2  A    between atoms: C_8  and  N_9 
REMARK       I    between atoms: N_9  and  C_10 
REMARK       I    between atoms: C_10  and  N_11 
REMARK    3  A    between atoms: N_11  and  C_12 
REMARK    4  A    between atoms: C_12  and  C_13 
ROOT
HETATM    1  C   UNL     1      21.663  49.467  49.251  1.00  0.00     0.089 A 
HETATM    2  N   UNL     1      22.828  49.946  49.742  1.00  0.00    -0.148 NA
HETATM    3  N   UNL     1      23.960  49.153  49.775  1.00  0.00    -0.131 NA
HETATM    4  C   UNL     1      23.924  47.892  49.306  1.00  0.00     0.153 A 
HETATM    5  C   UNL     1      22.750  47.373  48.784  1.00  0.00     0.055 A 
HETATM    6  C   UNL     1      21.606  48.171  48.756  1.00  0.00     0.038 A 
ENDROOT
BRANCH   4   7
HETATM    7  N   UNL     1      25.045  47.063  49.343  1.00  0.00    -0.292 N 
HETATM    8  C   UNL     1      25.595  46.393  50.387  1.00  0.00     0.322 C 
HETATM    9  N   UNL     1      25.046  46.559  51.616  1.00  0.00    -0.337 N 
HETATM   10  O   UNL     1      26.576  45.679  50.180  1.00  0.00    -0.247 OA
HETATM   11  H   UNL     1      24.109  46.946  51.648  1.00  0.00     0.164 HD
HETATM   12  H   UNL     1      25.543  46.897  48.480  1.00  0.00     0.172 HD
BRANCH   9  13
HETATM   13  C   UNL     1      25.494  45.760  52.731  1.00  0.00     0.189 C 
BRANCH  13  14
HETATM   14  C   UNL     1      26.160  46.617  53.741  1.00  0.00     0.070 A 
HETATM   15  O   UNL     1      25.505  47.765  54.085  1.00  0.00    -0.325 OA
HETATM   16  C   UNL     1      26.255  48.385  55.031  1.00  0.00     0.142 A 
HETATM   17  C   UNL     1      27.385  47.652  55.306  1.00  0.00     0.027 A 
HETATM   18  C   UNL     1      27.325  46.508  54.475  1.00  0.00     0.036 A 
ENDBRANCH  13  14
ENDBRANCH   9  13
ENDBRANCH   4   7
BRANCH   1  19
HETATM   19  C   UNL     1      20.508  50.382  49.266  1.00  0.00    -0.006 A 
HETATM   20  C   UNL     1      20.482  51.524  48.444  1.00  0.00     0.014 A 
HETATM   21  C   UNL     1      19.386  52.392  48.439  1.00  0.00     0.001 A 
HETATM   22  C   UNL     1      18.293  52.140  49.263  1.00  0.00     0.000 A 
HETATM   23  C   UNL     1      18.297  51.025  50.093  1.00  0.00     0.001 A 
HETATM   24  C   UNL     1      19.393  50.156  50.095  1.00  0.00     0.014 A 
ENDBRANCH   1  19
TORSDOF 4
ENDMDL
MODEL 9
REMARK VINA RESULT:      -7.8      2.326      3.161
REMARK  4 active torsions:
REMARK  status: ('A' for Active; 'I' for Inactive)
REMARK    1  A    between atoms: C_4  and  C_5 
REMARK    2  A    between atoms: C_8  and  N_9 
REMARK       I    between atoms: N_9  and  C_10 
REMARK       I    between atoms: C_10  and  N_11 
REMARK    3  A    between atoms: N_11  and  C_12 
REMARK    4  A    between atoms: C_12  and  C_13 
ROOT
HETATM    1  C   UNL     1      28.606  43.139  53.541  1.00  0.00     0.089 A 
HETATM    2  N   UNL     1      27.981  43.922  52.633  1.00  0.00    -0.148 NA
HETATM    3  N   UNL     1      27.277  43.363  51.583  1.00  0.00    -0.131 NA
HETATM    4  C   UNL     1      27.191  42.027  51.454  1.00  0.00     0.153 A 
HETATM    5  C   UNL     1      27.807  41.194  52.373  1.00  0.00     0.055 A 
HETATM    6  C   UNL     1      28.523  41.757  53.430  1.00  0.00     0.038 A 
ENDROOT
BRANCH   4   7
HETATM    7  N   UNL     1      26.502  41.435  50.396  1.00  0.00    -0.292 N 
HETATM    8  C   UNL     1      25.242  41.661  49.944  1.00  0.00     0.322 C 
HETATM    9  N   UNL     1      24.470  42.548  50.620  1.00  0.00    -0.337 N 
HETATM   10  O   UNL     1      24.848  41.041  48.957  1.00  0.00    -0.247 OA
HETATM   11  H   UNL     1      24.949  43.187  51.244  1.00  0.00     0.164 HD
HETATM   12  H   UNL     1      26.983  40.738  49.845  1.00  0.00     0.172 HD
BRANCH   9  13
HETATM   13  C   UNL     1      23.180  42.938  50.101  1.00  0.00     0.189 C 
BRANCH  13  14
HETATM   14  C   UNL     1      23.210  44.356  49.668  1.00  0.00     0.070 A 
HETATM   15  O   UNL     1      24.193  45.133  50.212  1.00  0.00    -0.325 OA
HETATM   16  C   UNL     1      24.068  46.372  49.672  1.00  0.00     0.142 A 
HETATM   17  C   UNL     1      23.019  46.406  48.784  1.00  0.00     0.027 A 
HETATM   18  C   UNL     1      22.465  45.104  48.778  1.00  0.00     0.036 A 
ENDBRANCH  13  14
ENDBRANCH   9  13
ENDBRANCH   4   7
BRANCH   1  19
HETATM   19  C   UNL     1      29.341  43.825  54.618  1.00  0.00    -0.006 A 
HETATM   20  C   UNL     1      28.926  45.086  55.084  1.00  0.00     0.014 A 
HETATM   21  C   UNL     1      29.606  45.741  56.115  1.00  0.00     0.001 A 
HETATM   22  C   UNL     1      30.722  45.150  56.700  1.00  0.00     0.000 A 
HETATM   23  C   UNL     1      31.160  43.909  56.251  1.00  0.00     0.001 A 
HETATM   24  C   UNL     1      30.477  43.254  55.222  1.00  0.00     0.014 A 
ENDBRANCH   1  19
TORSDOF 4
ENDMDL
MODEL 10
REMARK VINA RESULT:      -7.8      4.531      9.894
REMARK  4 active torsions:
REMARK  status: ('A' for Active; 'I' for Inactive)
REMARK    1  A    between atoms: C_4  and  C_5 
REMARK    2  A    between atoms: C_8  and  N_9 
REMARK       I    between atoms: N_9  and  C_10 
REMARK       I    between atoms: C_10  and  N_11 
REMARK    3  A    between atoms: N_11  and  C_12 
REMARK    4  A    between atoms: C_12  and  C_13 
ROOT
HETATM    1  C   UNL     1      21.887  50.460  49.027  1.00  0.00     0.089 A 
HETATM    2  N   UNL     1      22.181  49.255  49.567  1.00  0.00    -0.148 NA
HETATM    3  N   UNL     1      23.455  48.728  49.465  1.00  0.00    -0.131 NA
HETATM    4  C   UNL     1      24.428  49.412  48.837  1.00  0.00     0.153 A 
HETATM    5  C   UNL     1      24.166  50.654  48.284  1.00  0.00     0.055 A 
HETATM    6  C   UNL     1      22.879  51.186  48.381  1.00  0.00     0.038 A 
ENDROOT
BRANCH   4   7
HETATM    7  N   UNL     1      25.718  48.897  48.704  1.00  0.00    -0.292 N 
HETATM    8  C   UNL     1      26.362  47.964  49.449  1.00  0.00     0.322 C 
HETATM    9  N   UNL     1      25.724  47.460  50.535  1.00  0.00    -0.337 N 
HETATM   10  O   UNL     1      27.500  47.628  49.122  1.00  0.00    -0.247 OA
HETATM   11  H   UNL     1      24.720  47.595  50.577  1.00  0.00     0.164 HD
HETATM   12  H   UNL     1      26.287  49.230  47.938  1.00  0.00     0.172 HD
BRANCH   9  13
HETATM   13  C   UNL     1      26.297  46.362  51.276  1.00  0.00     0.189 C 
BRANCH  13  14
HETATM   14  C   UNL     1      25.458  45.150  51.127  1.00  0.00     0.070 A 
HETATM   15  O   UNL     1      24.252  45.322  50.510  1.00  0.00    -0.325 OA
HETATM   16  C   UNL     1      23.657  44.104  50.446  1.00  0.00     0.142 A 
HETATM   17  C   UNL     1      24.463  43.145  51.012  1.00  0.00     0.027 A 
HETATM   18  C   UNL     1      25.628  43.818  51.450  1.00  0.00     0.036 A 
ENDBRANCH  13  14
ENDBRANCH   9  13
ENDBRANCH   4   7
BRANCH   1  19
HETATM   19  C   UNL     1      20.501  50.935  49.177  1.00  0.00    -0.006 A 
HETATM   20  C   UNL     1      20.032  52.037  48.438  1.00  0.00     0.014 A 
HETATM   21  C   UNL     1      18.714  52.489  48.560  1.00  0.00     0.001 A 
HETATM   22  C   UNL     1      17.837  51.851  49.432  1.00  0.00     0.000 A 
HETATM   23  C   UNL     1      18.277  50.767  50.183  1.00  0.00     0.001 A 
HETATM   24  C   UNL     1      19.594  50.314  50.057  1.00  0.00     0.014 A 
ENDBRANCH   1  19
TORSDOF 4
ENDMDL
