MODEL 1
REMARK VINA RESULT:      -9.5      0.000      0.000
REMARK  8 active torsions:
REMARK  status: ('A' for Active; 'I' for Inactive)
REMARK    1  A    between atoms: C_5  and  S_6 
REMARK    2  A    between atoms: S_6  and  C_7 
REMARK    3  A    between atoms: C_7  and  C_8 
REMARK       I    between atoms: C_8  and  N_9 
REMARK    4  A    between atoms: N_9  and  C_10 
REMARK    5  A    between atoms: C_10  and  C_11 
REMARK    6  A    between atoms: C_11  and  C_12 
REMARK    7  A    between atoms: C_14  and  O_15 
REMARK    8  A    between atoms: C_17  and  O_18 
ROOT
HETATM    1  C   UNL     1      25.109  45.853  49.836  1.00  0.00     0.185 C 
ENDROOT
BRANCH   1   2
HETATM    2  S   UNL     1      24.590  44.873  51.275  1.00  0.00    -0.080 SA
BRANCH   2   3
HETATM    3  C   UNL     1      26.104  44.188  51.765  1.00  0.00     0.197 A 
HETATM    4  N   UNL     1      26.935  44.628  52.782  1.00  0.00    -0.271 N 
HETATM    5  C   UNL     1      27.951  43.673  52.809  1.00  0.00     0.165 A 
HETATM    6  C   UNL     1      26.911  45.743  53.669  1.00  0.00     0.053 A 
HETATM    7  C   UNL     1      28.997  43.739  53.779  1.00  0.00    -0.013 A 
HETATM    8  N   UNL     1      27.763  42.790  51.849  1.00  0.00    -0.128 NA
HETATM    9  C   UNL     1      30.089  42.701  53.854  1.00  0.00     0.052 C 
HETATM   10  C   UNL     1      28.989  44.765  54.652  1.00  0.00     0.024 A 
HETATM   11  C   UNL     1      27.953  45.803  54.616  1.00  0.00    -0.008 A 
HETATM   12  C   UNL     1      28.007  46.863  55.531  1.00  0.00     0.014 A 
HETATM   13  C   UNL     1      27.039  47.865  55.501  1.00  0.00     0.001 A 
HETATM   14  C   UNL     1      26.017  47.812  54.557  1.00  0.00     0.002 A 
HETATM   15  C   UNL     1      25.950  46.757  53.641  1.00  0.00     0.031 A 
HETATM   16  N   UNL     1      26.610  43.114  51.197  1.00  0.00    -0.122 NA
ENDBRANCH   2   3
ENDBRANCH   1   2
BRANCH   1  17
HETATM   17  C   UNL     1      24.851  47.325  50.100  1.00  0.00     0.227 C 
HETATM   18  N   UNL     1      23.618  47.857  49.823  1.00  0.00    -0.360 N 
HETATM   19  H   UNL     1      23.608  48.861  49.965  1.00  0.00     0.162 HD
HETATM   20  O   UNL     1      25.714  48.063  50.578  1.00  0.00    -0.273 OA
BRANCH  18  21
HETATM   21  C   UNL     1      22.602  47.287  48.955  1.00  0.00     0.127 C 
BRANCH  21  22
HETATM   22  C   UNL     1      22.129  48.280  47.892  1.00  0.00     0.058 C 
BRANCH  22  23
HETATM   23  C   UNL     1      21.227  49.333  48.490  1.00  0.00    -0.054 A 
HETATM   24  C   UNL     1      20.236  48.971  49.415  1.00  0.00     0.046 A 
HETATM   25  C   UNL     1      19.359  49.928  49.940  1.00  0.00     0.102 A 
HETATM   26  C   UNL     1      19.489  51.276  49.556  1.00  0.00     0.101 A 
HETATM   27  C   UNL     1      20.483  51.638  48.642  1.00  0.00     0.040 A 
HETATM   28  C   UNL     1      21.343  50.671  48.109  1.00  0.00     0.010 A 
BRANCH  25  29
HETATM   29  O   UNL     1      18.359  49.645  50.838  1.00  0.00    -0.353 OA
HETATM   30  C   UNL     1      18.549  48.526  51.694  1.00  0.00     0.210 C 
ENDBRANCH  25  29
BRANCH  26  31
HETATM   31  O   UNL     1      18.596  52.153  50.120  1.00  0.00    -0.353 OA
HETATM   32  C   UNL     1      17.626  52.744  49.268  1.00  0.00     0.210 C 
ENDBRANCH  26  31
ENDBRANCH  22  23
ENDBRANCH  21  22
ENDBRANCH  18  21
ENDBRANCH   1  17
TORSDOF 8
ENDMDL
MODEL 2
REMARK VINA RESULT:      -9.5      1.475      3.031
REMARK  8 active torsions:
REMARK  status: ('A' for Active; 'I' for Inactive)
REMARK    1  A    between atoms: C_5  and  S_6 
REMARK    2  A    between atoms: S_6  and  C_7 
REMARK    3  A    between atoms: C_7  and  C_8 
REMARK       I    between atoms: C_8  and  N_9 
REMARK    4  A    between atoms: N_9  and  C_10 
REMARK    5  A    between atoms: C_10  and  C_11 
REMARK    6  A    between atoms: C_11  and  C_12 
REMARK    7  A    between atoms: C_14  and  O_15 
REMARK    8  A    between atoms: C_17  and  O_18 
ROOT
HETATM    1  C   UNL     1      24.418  47.482  50.289  1.00  0.00     0.185 C 
ENDROOT
BRANCH   1   2
HETATM    2  S   UNL     1      25.466  46.013  50.501  1.00  0.00    -0.080 SA
BRANCH   2   3
HETATM    3  C   UNL     1      26.070  46.273  52.102  1.00  0.00     0.197 A 
HETATM    4  N   UNL     1      26.913  45.444  52.827  1.00  0.00    -0.271 N 
HETATM    5  C   UNL     1      27.156  46.168  53.994  1.00  0.00     0.165 A 
HETATM    6  C   UNL     1      27.480  44.159  52.592  1.00  0.00     0.053 A 
HETATM    7  C   UNL     1      28.044  45.670  54.996  1.00  0.00    -0.013 A 
HETATM    8  N   UNL     1      26.465  47.289  53.981  1.00  0.00    -0.128 NA
HETATM    9  C   UNL     1      28.353  46.446  56.252  1.00  0.00     0.052 C 
HETATM   10  C   UNL     1      28.620  44.469  54.793  1.00  0.00     0.024 A 
HETATM   11  C   UNL     1      28.347  43.674  53.592  1.00  0.00    -0.008 A 
HETATM   12  C   UNL     1      28.953  42.419  53.443  1.00  0.00     0.014 A 
HETATM   13  C   UNL     1      28.694  41.644  52.315  1.00  0.00     0.001 A 
HETATM   14  C   UNL     1      27.828  42.118  51.334  1.00  0.00     0.002 A 
HETATM   15  C   UNL     1      27.219  43.371  51.468  1.00  0.00     0.031 A 
HETATM   16  N   UNL     1      25.786  47.352  52.799  1.00  0.00    -0.122 NA
ENDBRANCH   2   3
ENDBRANCH   1   2
BRANCH   1  17
HETATM   17  C   UNL     1      25.111  48.478  49.378  1.00  0.00     0.227 C 
HETATM   18  N   UNL     1      24.375  49.454  48.756  1.00  0.00    -0.360 N 
HETATM   19  H   UNL     1      24.944  49.996  48.116  1.00  0.00     0.162 HD
HETATM   20  O   UNL     1      26.329  48.456  49.192  1.00  0.00    -0.273 OA
BRANCH  18  21
HETATM   21  C   UNL     1      22.936  49.456  48.550  1.00  0.00     0.127 C 
BRANCH  21  22
HETATM   22  C   UNL     1      22.409  50.846  48.190  1.00  0.00     0.058 C 
BRANCH  22  23
HETATM   23  C   UNL     1      21.027  51.070  48.756  1.00  0.00    -0.054 A 
HETATM   24  C   UNL     1      20.540  50.239  49.777  1.00  0.00     0.046 A 
HETATM   25  C   UNL     1      19.242  50.401  50.277  1.00  0.00     0.102 A 
HETATM   26  C   UNL     1      18.423  51.428  49.769  1.00  0.00     0.101 A 
HETATM   27  C   UNL     1      18.914  52.262  48.759  1.00  0.00     0.040 A 
HETATM   28  C   UNL     1      20.205  52.080  48.252  1.00  0.00     0.010 A 
BRANCH  25  29
HETATM   29  O   UNL     1      18.694  49.620  51.265  1.00  0.00    -0.353 OA
HETATM   30  C   UNL     1      18.473  48.248  50.963  1.00  0.00     0.210 C 
ENDBRANCH  25  29
BRANCH  26  31
HETATM   31  O   UNL     1      17.168  51.526  50.316  1.00  0.00    -0.353 OA
HETATM   32  C   UNL     1      16.340  52.594  49.880  1.00  0.00     0.210 C 
ENDBRANCH  26  31
ENDBRANCH  22  23
ENDBRANCH  21  22
ENDBRANCH  18  21
ENDBRANCH   1  17
TORSDOF 8
ENDMDL
MODEL 3
REMARK VINA RESULT:      -9.4      2.679      4.691
REMARK  8 active torsions:
REMARK  status: ('A' for Active; 'I' for Inactive)
REMARK    1  A    between atoms: C_5  and  S_6 
REMARK    2  A    between atoms: S_6  and  C_7 
REMARK    3  A    between atoms: C_7  and  C_8 
REMARK       I    between atoms: C_8  and  N_9 
REMARK    4  A    between atoms: N_9  and  C_10 
REMARK    5  A    between atoms: C_10  and  C_11 
REMARK    6  A    between atoms: C_11  and  C_12 
REMARK    7  A    between atoms: C_14  and  O_15 
REMARK    8  A    between atoms: C_17  and  O_18 
ROOT
HETATM    1  C   UNL     1      26.908  43.854  50.025  1.00  0.00     0.185 C 
ENDROOT
BRANCH   1   2
HETATM    2  S   UNL     1      27.328  43.237  51.682  1.00  0.00    -0.080 SA
BRANCH   2   3
HETATM    3  C   UNL     1      26.885  44.597  52.657  1.00  0.00     0.197 A 
HETATM    4  N   UNL     1      27.563  45.099  53.757  1.00  0.00    -0.271 N 
HETATM    5  C   UNL     1      26.835  46.239  54.096  1.00  0.00     0.165 A 
HETATM    6  C   UNL     1      28.717  44.686  54.482  1.00  0.00     0.053 A 
HETATM    7  C   UNL     1      27.253  47.087  55.166  1.00  0.00    -0.013 A 
HETATM    8  N   UNL     1      25.788  46.356  53.306  1.00  0.00    -0.128 NA
HETATM    9  C   UNL     1      26.506  48.345  55.533  1.00  0.00     0.052 C 
HETATM   10  C   UNL     1      28.358  46.741  55.856  1.00  0.00     0.024 A 
HETATM   11  C   UNL     1      29.116  45.525  55.542  1.00  0.00    -0.008 A 
HETATM   12  C   UNL     1      30.243  45.198  56.308  1.00  0.00     0.014 A 
HETATM   13  C   UNL     1      30.965  44.039  56.032  1.00  0.00     0.001 A 
HETATM   14  C   UNL     1      30.564  43.204  54.993  1.00  0.00     0.002 A 
HETATM   15  C   UNL     1      29.444  43.521  54.219  1.00  0.00     0.031 A 
HETATM   16  N   UNL     1      25.820  45.329  52.409  1.00  0.00    -0.122 NA
ENDBRANCH   2   3
ENDBRANCH   1   2
BRANCH   1  17
HETATM   17  C   UNL     1      26.324  42.727  49.193  1.00  0.00     0.227 C 
HETATM   18  N   UNL     1      24.981  42.715  48.916  1.00  0.00    -0.360 N 
HETATM   19  H   UNL     1      24.712  41.869  48.426  1.00  0.00     0.162 HD
HETATM   20  O   UNL     1      27.025  41.824  48.734  1.00  0.00    -0.273 OA
BRANCH  18  21
HETATM   21  C   UNL     1      23.943  43.448  49.621  1.00  0.00     0.127 C 
BRANCH  21  22
HETATM   22  C   UNL     1      23.023  44.207  48.664  1.00  0.00     0.058 C 
BRANCH  22  23
HETATM   23  C   UNL     1      23.132  45.699  48.869  1.00  0.00    -0.054 A 
HETATM   24  C   UNL     1      24.251  46.242  49.521  1.00  0.00     0.046 A 
HETATM   25  C   UNL     1      24.342  47.618  49.765  1.00  0.00     0.102 A 
HETATM   26  C   UNL     1      23.312  48.473  49.328  1.00  0.00     0.101 A 
HETATM   27  C   UNL     1      22.203  47.931  48.670  1.00  0.00     0.040 A 
HETATM   28  C   UNL     1      22.112  46.553  48.447  1.00  0.00     0.010 A 
BRANCH  25  29
HETATM   29  O   UNL     1      25.398  48.217  50.406  1.00  0.00    -0.353 OA
HETATM   30  C   UNL     1      26.651  48.223  49.733  1.00  0.00     0.210 C 
ENDBRANCH  25  29
BRANCH  26  31
HETATM   31  O   UNL     1      23.480  49.807  49.598  1.00  0.00    -0.353 OA
HETATM   32  C   UNL     1      23.118  50.736  48.587  1.00  0.00     0.210 C 
ENDBRANCH  26  31
ENDBRANCH  22  23
ENDBRANCH  21  22
ENDBRANCH  18  21
ENDBRANCH   1  17
TORSDOF 8
ENDMDL
MODEL 4
REMARK VINA RESULT:      -9.2      1.161      1.629
REMARK  8 active torsions:
REMARK  status: ('A' for Active; 'I' for Inactive)
REMARK    1  A    between atoms: C_5  and  S_6 
REMARK    2  A    between atoms: S_6  and  C_7 
REMARK    3  A    between atoms: C_7  and  C_8 
REMARK       I    between atoms: C_8  and  N_9 
REMARK    4  A    between atoms: N_9  and  C_10 
REMARK    5  A    between atoms: C_10  and  C_11 
REMARK    6  A    between atoms: C_11  and  C_12 
REMARK    7  A    between atoms: C_14  and  O_15 
REMARK    8  A    between atoms: C_17  and  O_18 
ROOT
HETATM    1  C   UNL     1      24.737  46.512  50.746  1.00  0.00     0.185 C 
ENDROOT
BRANCH   1   2
HETATM    2  S   UNL     1      25.470  46.280  52.392  1.00  0.00    -0.080 SA
BRANCH   2   3
HETATM    3  C   UNL     1      26.328  44.794  52.160  1.00  0.00     0.197 A 
HETATM    4  N   UNL     1      27.381  44.305  52.915  1.00  0.00    -0.271 N 
HETATM    5  C   UNL     1      27.623  43.048  52.362  1.00  0.00     0.165 A 
HETATM    6  C   UNL     1      28.138  44.817  54.008  1.00  0.00     0.053 A 
HETATM    7  C   UNL     1      28.618  42.182  52.910  1.00  0.00    -0.013 A 
HETATM    8  N   UNL     1      26.826  42.848  51.332  1.00  0.00    -0.128 NA
HETATM    9  C   UNL     1      28.878  40.804  52.354  1.00  0.00     0.052 C 
HETATM   10  C   UNL     1      29.335  42.625  53.962  1.00  0.00     0.024 A 
HETATM   11  C   UNL     1      29.124  43.958  54.535  1.00  0.00    -0.008 A 
HETATM   12  C   UNL     1      29.915  44.379  55.613  1.00  0.00     0.014 A 
HETATM   13  C   UNL     1      29.738  45.648  56.159  1.00  0.00     0.001 A 
HETATM   14  C   UNL     1      28.772  46.500  55.631  1.00  0.00     0.002 A 
HETATM   15  C   UNL     1      27.974  46.091  54.557  1.00  0.00     0.031 A 
HETATM   16  N   UNL     1      26.018  43.941  51.207  1.00  0.00    -0.122 NA
ENDBRANCH   2   3
ENDBRANCH   1   2
BRANCH   1  17
HETATM   17  C   UNL     1      25.368  47.715  50.070  1.00  0.00     0.227 C 
HETATM   18  N   UNL     1      24.576  48.597  49.381  1.00  0.00    -0.360 N 
HETATM   19  H   UNL     1      25.132  49.303  48.910  1.00  0.00     0.162 HD
HETATM   20  O   UNL     1      26.577  47.941  50.136  1.00  0.00    -0.273 OA
BRANCH  18  21
HETATM   21  C   UNL     1      23.233  48.353  48.884  1.00  0.00     0.127 C 
BRANCH  21  22
HETATM   22  C   UNL     1      22.723  49.502  48.014  1.00  0.00     0.058 C 
BRANCH  22  23
HETATM   23  C   UNL     1      21.506  50.153  48.626  1.00  0.00    -0.054 A 
HETATM   24  C   UNL     1      20.851  49.547  49.710  1.00  0.00     0.046 A 
HETATM   25  C   UNL     1      19.692  50.112  50.255  1.00  0.00     0.102 A 
HETATM   26  C   UNL     1      19.190  51.318  49.729  1.00  0.00     0.101 A 
HETATM   27  C   UNL     1      19.849  51.926  48.655  1.00  0.00     0.040 A 
HETATM   28  C   UNL     1      20.996  51.344  48.104  1.00  0.00     0.010 A 
BRANCH  25  29
HETATM   29  O   UNL     1      18.992  49.570  51.306  1.00  0.00    -0.353 OA
HETATM   30  C   UNL     1      18.352  48.320  51.087  1.00  0.00     0.210 C 
ENDBRANCH  25  29
BRANCH  26  31
HETATM   31  O   UNL     1      18.055  51.810  50.322  1.00  0.00    -0.353 OA
HETATM   32  C   UNL     1      16.974  52.176  49.477  1.00  0.00     0.210 C 
ENDBRANCH  26  31
ENDBRANCH  22  23
ENDBRANCH  21  22
ENDBRANCH  18  21
ENDBRANCH   1  17
TORSDOF 8
ENDMDL
MODEL 5
REMARK VINA RESULT:      -9.2      1.979      3.333
REMARK  8 active torsions:
REMARK  status: ('A' for Active; 'I' for Inactive)
REMARK    1  A    between atoms: C_5  and  S_6 
REMARK    2  A    between atoms: S_6  and  C_7 
REMARK    3  A    between atoms: C_7  and  C_8 
REMARK       I    between atoms: C_8  and  N_9 
REMARK    4  A    between atoms: N_9  and  C_10 
REMARK    5  A    between atoms: C_10  and  C_11 
REMARK    6  A    between atoms: C_11  and  C_12 
REMARK    7  A    between atoms: C_14  and  O_15 
REMARK    8  A    between atoms: C_17  and  O_18 
ROOT
HETATM    1  C   UNL     1      25.794  45.324  49.711  1.00  0.00     0.185 C 
ENDROOT
BRANCH   1   2
HETATM    2  S   UNL     1      26.422  44.403  51.146  1.00  0.00    -0.080 SA
BRANCH   2   3
HETATM    3  C   UNL     1      26.247  45.589  52.395  1.00  0.00     0.197 A 
HETATM    4  N   UNL     1      27.043  45.751  53.517  1.00  0.00    -0.271 N 
HETATM    5  C   UNL     1      26.524  46.895  54.123  1.00  0.00     0.165 A 
HETATM    6  C   UNL     1      28.147  45.033  54.061  1.00  0.00     0.053 A 
HETATM    7  C   UNL     1      27.120  47.437  55.302  1.00  0.00    -0.013 A 
HETATM    8  N   UNL     1      25.476  47.325  53.450  1.00  0.00    -0.128 NA
HETATM    9  C   UNL     1      26.601  48.693  55.959  1.00  0.00     0.052 C 
HETATM   10  C   UNL     1      28.183  46.798  55.828  1.00  0.00     0.024 A 
HETATM   11  C   UNL     1      28.721  45.572  55.230  1.00  0.00    -0.008 A 
HETATM   12  C   UNL     1      29.812  44.932  55.833  1.00  0.00     0.014 A 
HETATM   13  C   UNL     1      30.326  43.758  55.287  1.00  0.00     0.001 A 
HETATM   14  C   UNL     1      29.751  43.219  54.139  1.00  0.00     0.002 A 
HETATM   15  C   UNL     1      28.663  43.850  53.526  1.00  0.00     0.031 A 
HETATM   16  N   UNL     1      25.304  46.507  52.372  1.00  0.00    -0.122 NA
ENDBRANCH   2   3
ENDBRANCH   1   2
BRANCH   1  17
HETATM   17  C   UNL     1      26.688  46.519  49.438  1.00  0.00     0.227 C 
HETATM   18  N   UNL     1      26.171  47.786  49.527  1.00  0.00    -0.360 N 
HETATM   19  H   UNL     1      26.849  48.484  49.241  1.00  0.00     0.162 HD
HETATM   20  O   UNL     1      27.881  46.392  49.157  1.00  0.00    -0.273 OA
BRANCH  18  21
HETATM   21  C   UNL     1      24.766  48.155  49.492  1.00  0.00     0.127 C 
BRANCH  21  22
HETATM   22  C   UNL     1      24.532  49.459  48.729  1.00  0.00     0.058 C 
BRANCH  22  23
HETATM   23  C   UNL     1      23.060  49.697  48.491  1.00  0.00    -0.054 A 
HETATM   24  C   UNL     1      22.224  48.632  48.120  1.00  0.00     0.046 A 
HETATM   25  C   UNL     1      20.868  48.846  47.846  1.00  0.00     0.102 A 
HETATM   26  C   UNL     1      20.327  50.140  47.970  1.00  0.00     0.101 A 
HETATM   27  C   UNL     1      21.159  51.198  48.349  1.00  0.00     0.040 A 
HETATM   28  C   UNL     1      22.518  50.979  48.602  1.00  0.00     0.010 A 
BRANCH  25  29
HETATM   29  O   UNL     1      19.994  47.856  47.467  1.00  0.00    -0.353 OA
HETATM   30  C   UNL     1      19.634  46.893  48.449  1.00  0.00     0.210 C 
ENDBRANCH  25  29
BRANCH  26  31
HETATM   31  O   UNL     1      18.990  50.265  47.691  1.00  0.00    -0.353 OA
HETATM   32  C   UNL     1      18.626  50.920  46.485  1.00  0.00     0.210 C 
ENDBRANCH  26  31
ENDBRANCH  22  23
ENDBRANCH  21  22
ENDBRANCH  18  21
ENDBRANCH   1  17
TORSDOF 8
ENDMDL
MODEL 6
REMARK VINA RESULT:      -8.8      2.202      4.221
REMARK  8 active torsions:
REMARK  status: ('A' for Active; 'I' for Inactive)
REMARK    1  A    between atoms: C_5  and  S_6 
REMARK    2  A    between atoms: S_6  and  C_7 
REMARK    3  A    between atoms: C_7  and  C_8 
REMARK       I    between atoms: C_8  and  N_9 
REMARK    4  A    between atoms: N_9  and  C_10 
REMARK    5  A    between atoms: C_10  and  C_11 
REMARK    6  A    between atoms: C_11  and  C_12 
REMARK    7  A    between atoms: C_14  and  O_15 
REMARK    8  A    between atoms: C_17  and  O_18 
ROOT
HETATM    1  C   UNL     1      25.557  42.692  51.065  1.00  0.00     0.185 C 
ENDROOT
BRANCH   1   2
HETATM    2  S   UNL     1      27.203  43.320  51.508  1.00  0.00    -0.080 SA
BRANCH   2   3
HETATM    3  C   UNL     1      26.779  44.671  52.504  1.00  0.00     0.197 A 
HETATM    4  N   UNL     1      27.466  45.149  53.609  1.00  0.00    -0.271 N 
HETATM    5  C   UNL     1      26.753  46.292  53.967  1.00  0.00     0.165 A 
HETATM    6  C   UNL     1      28.618  44.712  54.324  1.00  0.00     0.053 A 
HETATM    7  C   UNL     1      27.184  47.120  55.048  1.00  0.00    -0.013 A 
HETATM    8  N   UNL     1      25.705  46.433  53.181  1.00  0.00    -0.128 NA
HETATM    9  C   UNL     1      26.453  48.381  55.435  1.00  0.00     0.052 C 
HETATM   10  C   UNL     1      28.286  46.750  55.729  1.00  0.00     0.024 A 
HETATM   11  C   UNL     1      29.029  45.531  55.395  1.00  0.00    -0.008 A 
HETATM   12  C   UNL     1      30.154  45.179  56.153  1.00  0.00     0.014 A 
HETATM   13  C   UNL     1      30.862  44.016  55.859  1.00  0.00     0.001 A 
HETATM   14  C   UNL     1      30.448  43.200  54.809  1.00  0.00     0.002 A 
HETATM   15  C   UNL     1      29.329  43.542  54.042  1.00  0.00     0.031 A 
HETATM   16  N   UNL     1      25.722  45.419  52.269  1.00  0.00    -0.122 NA
ENDBRANCH   2   3
ENDBRANCH   1   2
BRANCH   1  17
HETATM   17  C   UNL     1      25.508  42.387  49.580  1.00  0.00     0.227 C 
HETATM   18  N   UNL     1      25.257  43.398  48.688  1.00  0.00    -0.360 N 
HETATM   19  H   UNL     1      25.169  43.043  47.742  1.00  0.00     0.162 HD
HETATM   20  O   UNL     1      25.708  41.254  49.139  1.00  0.00    -0.273 OA
BRANCH  18  21
HETATM   21  C   UNL     1      24.658  44.688  48.985  1.00  0.00     0.127 C 
BRANCH  21  22
HETATM   22  C   UNL     1      23.147  44.689  48.752  1.00  0.00     0.058 C 
BRANCH  22  23
HETATM   23  C   UNL     1      22.599  46.096  48.726  1.00  0.00    -0.054 A 
HETATM   24  C   UNL     1      23.415  47.178  49.090  1.00  0.00     0.046 A 
HETATM   25  C   UNL     1      22.906  48.483  49.120  1.00  0.00     0.102 A 
HETATM   26  C   UNL     1      21.567  48.717  48.755  1.00  0.00     0.101 A 
HETATM   27  C   UNL     1      20.757  47.638  48.383  1.00  0.00     0.040 A 
HETATM   28  C   UNL     1      21.269  46.336  48.374  1.00  0.00     0.010 A 
BRANCH  25  29
HETATM   29  O   UNL     1      23.641  49.587  49.477  1.00  0.00    -0.353 OA
HETATM   30  C   UNL     1      24.694  49.978  48.606  1.00  0.00     0.210 C 
ENDBRANCH  25  29
BRANCH  26  31
HETATM   31  O   UNL     1      21.147  50.022  48.804  1.00  0.00    -0.353 OA
HETATM   32  C   UNL     1      20.442  50.446  49.961  1.00  0.00     0.210 C 
ENDBRANCH  26  31
ENDBRANCH  22  23
ENDBRANCH  21  22
ENDBRANCH  18  21
ENDBRANCH   1  17
TORSDOF 8
ENDMDL
MODEL 7
REMARK VINA RESULT:      -8.8      1.750      3.217
REMARK  8 active torsions:
REMARK  status: ('A' for Active; 'I' for Inactive)
REMARK    1  A    between atoms: C_5  and  S_6 
REMARK    2  A    between atoms: S_6  and  C_7 
REMARK    3  A    between atoms: C_7  and  C_8 
REMARK       I    between atoms: C_8  and  N_9 
REMARK    4  A    between atoms: N_9  and  C_10 
REMARK    5  A    between atoms: C_10  and  C_11 
REMARK    6  A    between atoms: C_11  and  C_12 
REMARK    7  A    between atoms: C_14  and  O_15 
REMARK    8  A    between atoms: C_17  and  O_18 
ROOT
HETATM    1  C   UNL     1      26.259  47.144  51.614  1.00  0.00     0.185 C 
ENDROOT
BRANCH   1   2
HETATM    2  S   UNL     1      25.544  45.956  52.790  1.00  0.00    -0.080 SA
BRANCH   2   3
HETATM    3  C   UNL     1      26.886  45.705  53.855  1.00  0.00     0.197 A 
HETATM    4  N   UNL     1      27.765  44.635  53.861  1.00  0.00    -0.271 N 
HETATM    5  C   UNL     1      28.694  44.981  54.841  1.00  0.00     0.165 A 
HETATM    6  C   UNL     1      27.849  43.417  53.125  1.00  0.00     0.053 A 
HETATM    7  C   UNL     1      29.819  44.145  55.116  1.00  0.00    -0.013 A 
HETATM    8  N   UNL     1      28.351  46.122  55.403  1.00  0.00    -0.128 NA
HETATM    9  C   UNL     1      30.859  44.512  56.146  1.00  0.00     0.052 C 
HETATM   10  C   UNL     1      29.944  42.999  54.419  1.00  0.00     0.024 A 
HETATM   11  C   UNL     1      28.957  42.596  53.411  1.00  0.00    -0.008 A 
HETATM   12  C   UNL     1      29.121  41.380  52.734  1.00  0.00     0.014 A 
HETATM   13  C   UNL     1      28.185  40.975  51.784  1.00  0.00     0.001 A 
HETATM   14  C   UNL     1      27.084  41.781  51.511  1.00  0.00     0.002 A 
HETATM   15  C   UNL     1      26.911  42.998  52.178  1.00  0.00     0.031 A 
HETATM   16  N   UNL     1      27.220  46.572  54.787  1.00  0.00    -0.122 NA
ENDBRANCH   2   3
ENDBRANCH   1   2
BRANCH   1  17
HETATM   17  C   UNL     1      26.157  46.592  50.204  1.00  0.00     0.227 C 
HETATM   18  N   UNL     1      25.217  47.098  49.345  1.00  0.00    -0.360 N 
HETATM   19  H   UNL     1      25.202  46.586  48.469  1.00  0.00     0.162 HD
HETATM   20  O   UNL     1      26.913  45.710  49.793  1.00  0.00    -0.273 OA
BRANCH  18  21
HETATM   21  C   UNL     1      24.030  47.856  49.705  1.00  0.00     0.127 C 
BRANCH  21  22
HETATM   22  C   UNL     1      23.871  49.115  48.852  1.00  0.00     0.058 C 
BRANCH  22  23
HETATM   23  C   UNL     1      22.456  49.639  48.910  1.00  0.00    -0.054 A 
HETATM   24  C   UNL     1      21.400  48.784  49.263  1.00  0.00     0.046 A 
HETATM   25  C   UNL     1      20.077  49.243  49.272  1.00  0.00     0.102 A 
HETATM   26  C   UNL     1      19.803  50.585  48.949  1.00  0.00     0.101 A 
HETATM   27  C   UNL     1      20.857  51.439  48.607  1.00  0.00     0.040 A 
HETATM   28  C   UNL     1      22.174  50.967  48.583  1.00  0.00     0.010 A 
BRANCH  25  29
HETATM   29  O   UNL     1      18.995  48.461  49.594  1.00  0.00    -0.353 OA
HETATM   30  C   UNL     1      18.691  47.378  48.725  1.00  0.00     0.210 C 
ENDBRANCH  25  29
BRANCH  26  31
HETATM   31  O   UNL     1      18.483  50.958  48.987  1.00  0.00    -0.353 OA
HETATM   32  C   UNL     1      18.145  52.112  49.743  1.00  0.00     0.210 C 
ENDBRANCH  26  31
ENDBRANCH  22  23
ENDBRANCH  21  22
ENDBRANCH  18  21
ENDBRANCH   1  17
TORSDOF 8
ENDMDL
MODEL 8
REMARK VINA RESULT:      -8.6      2.361      3.422
REMARK  8 active torsions:
REMARK  status: ('A' for Active; 'I' for Inactive)
REMARK    1  A    between atoms: C_5  and  S_6 
REMARK    2  A    between atoms: S_6  and  C_7 
REMARK    3  A    between atoms: C_7  and  C_8 
REMARK       I    between atoms: C_8  and  N_9 
REMARK    4  A    between atoms: N_9  and  C_10 
REMARK    5  A    between atoms: C_10  and  C_11 
REMARK    6  A    between atoms: C_11  and  C_12 
REMARK    7  A    between atoms: C_14  and  O_15 
REMARK    8  A    between atoms: C_17  and  O_18 
ROOT
HETATM    1  C   UNL     1      24.993  43.137  50.028  1.00  0.00     0.185 C 
ENDROOT
BRANCH   1   2
HETATM    2  S   UNL     1      25.412  44.614  51.001  1.00  0.00    -0.080 SA
BRANCH   2   3
HETATM    3  C   UNL     1      26.844  44.074  51.811  1.00  0.00     0.197 A 
HETATM    4  N   UNL     1      27.423  44.619  52.945  1.00  0.00    -0.271 N 
HETATM    5  C   UNL     1      28.480  43.753  53.220  1.00  0.00     0.165 A 
HETATM    6  C   UNL     1      27.142  45.761  53.750  1.00  0.00     0.053 A 
HETATM    7  C   UNL     1      29.305  43.941  54.371  1.00  0.00    -0.013 A 
HETATM    8  N   UNL     1      28.552  42.821  52.291  1.00  0.00    -0.128 NA
HETATM    9  C   UNL     1      30.434  42.999  54.712  1.00  0.00     0.052 C 
HETATM   10  C   UNL     1      29.050  44.995  55.170  1.00  0.00     0.024 A 
HETATM   11  C   UNL     1      27.968  45.942  54.878  1.00  0.00    -0.008 A 
HETATM   12  C   UNL     1      27.762  47.037  55.728  1.00  0.00     0.014 A 
HETATM   13  C   UNL     1      26.749  47.954  55.457  1.00  0.00     0.001 A 
HETATM   14  C   UNL     1      25.941  47.782  54.336  1.00  0.00     0.002 A 
HETATM   15  C   UNL     1      26.134  46.691  53.482  1.00  0.00     0.031 A 
HETATM   16  N   UNL     1      27.530  43.025  51.411  1.00  0.00    -0.122 NA
ENDBRANCH   2   3
ENDBRANCH   1   2
BRANCH   1  17
HETATM   17  C   UNL     1      23.488  42.946  50.010  1.00  0.00     0.227 C 
HETATM   18  N   UNL     1      22.786  43.200  48.860  1.00  0.00    -0.360 N 
HETATM   19  H   UNL     1      21.787  43.114  49.009  1.00  0.00     0.162 HD
HETATM   20  O   UNL     1      22.869  42.546  50.998  1.00  0.00    -0.273 OA
BRANCH  18  21
HETATM   21  C   UNL     1      23.235  43.992  47.727  1.00  0.00     0.127 C 
BRANCH  21  22
HETATM   22  C   UNL     1      22.160  44.967  47.244  1.00  0.00     0.058 C 
BRANCH  22  23
HETATM   23  C   UNL     1      22.325  46.323  47.886  1.00  0.00    -0.054 A 
HETATM   24  C   UNL     1      23.419  46.578  48.728  1.00  0.00     0.046 A 
HETATM   25  C   UNL     1      23.558  47.814  49.371  1.00  0.00     0.102 A 
HETATM   26  C   UNL     1      22.603  48.825  49.152  1.00  0.00     0.101 A 
HETATM   27  C   UNL     1      21.518  48.573  48.305  1.00  0.00     0.040 A 
HETATM   28  C   UNL     1      21.378  47.329  47.681  1.00  0.00     0.010 A 
BRANCH  25  29
HETATM   29  O   UNL     1      24.594  48.129  50.216  1.00  0.00    -0.353 OA
HETATM   30  C   UNL     1      25.901  48.163  49.660  1.00  0.00     0.210 C 
ENDBRANCH  25  29
BRANCH  26  31
HETATM   31  O   UNL     1      22.814  50.008  49.813  1.00  0.00    -0.353 OA
HETATM   32  C   UNL     1      23.122  51.154  49.032  1.00  0.00     0.210 C 
ENDBRANCH  26  31
ENDBRANCH  22  23
ENDBRANCH  21  22
ENDBRANCH  18  21
ENDBRANCH   1  17
TORSDOF 8
ENDMDL
MODEL 9
REMARK VINA RESULT:      -8.4      2.934     10.318
REMARK  8 active torsions:
REMARK  status: ('A' for Active; 'I' for Inactive)
REMARK    1  A    between atoms: C_5  and  S_6 
REMARK    2  A    between atoms: S_6  and  C_7 
REMARK    3  A    between atoms: C_7  and  C_8 
REMARK       I    between atoms: C_8  and  N_9 
REMARK    4  A    between atoms: N_9  and  C_10 
REMARK    5  A    between atoms: C_10  and  C_11 
REMARK    6  A    between atoms: C_11  and  C_12 
REMARK    7  A    between atoms: C_14  and  O_15 
REMARK    8  A    between atoms: C_17  and  O_18 
ROOT
HETATM    1  C   UNL     1      24.780  45.397  49.492  1.00  0.00     0.185 C 
ENDROOT
BRANCH   1   2
HETATM    2  S   UNL     1      23.885  46.978  49.498  1.00  0.00    -0.080 SA
BRANCH   2   3
HETATM    3  C   UNL     1      22.581  46.619  48.417  1.00  0.00     0.197 A 
HETATM    4  N   UNL     1      21.603  47.488  47.962  1.00  0.00    -0.271 N 
HETATM    5  C   UNL     1      20.878  46.717  47.055  1.00  0.00     0.165 A 
HETATM    6  C   UNL     1      21.278  48.847  48.241  1.00  0.00     0.053 A 
HETATM    7  C   UNL     1      19.796  47.279  46.312  1.00  0.00    -0.013 A 
HETATM    8  N   UNL     1      21.350  45.487  47.030  1.00  0.00    -0.128 NA
HETATM    9  C   UNL     1      19.016  46.479  45.298  1.00  0.00     0.052 C 
HETATM   10  C   UNL     1      19.478  48.570  46.531  1.00  0.00     0.024 A 
HETATM   11  C   UNL     1      20.202  49.389  47.509  1.00  0.00    -0.008 A 
HETATM   12  C   UNL     1      19.814  50.719  47.717  1.00  0.00     0.014 A 
HETATM   13  C   UNL     1      20.481  51.506  48.654  1.00  0.00     0.001 A 
HETATM   14  C   UNL     1      21.536  50.966  49.385  1.00  0.00     0.002 A 
HETATM   15  C   UNL     1      21.935  49.641  49.184  1.00  0.00     0.031 A 
HETATM   16  N   UNL     1      22.413  45.427  47.883  1.00  0.00    -0.122 NA
ENDBRANCH   2   3
ENDBRANCH   1   2
BRANCH   1  17
HETATM   17  C   UNL     1      24.492  44.641  50.776  1.00  0.00     0.227 C 
HETATM   18  N   UNL     1      25.474  44.519  51.725  1.00  0.00    -0.360 N 
HETATM   19  H   UNL     1      25.178  43.923  52.490  1.00  0.00     0.162 HD
HETATM   20  O   UNL     1      23.389  44.144  51.008  1.00  0.00    -0.273 OA
BRANCH  18  21
HETATM   21  C   UNL     1      26.902  44.703  51.525  1.00  0.00     0.127 C 
BRANCH  21  22
HETATM   22  C   UNL     1      27.696  43.438  51.852  1.00  0.00     0.058 C 
BRANCH  22  23
HETATM   23  C   UNL     1      28.563  43.637  53.072  1.00  0.00    -0.054 A 
HETATM   24  C   UNL     1      28.229  44.613  54.024  1.00  0.00     0.046 A 
HETATM   25  C   UNL     1      29.050  44.844  55.134  1.00  0.00     0.102 A 
HETATM   26  C   UNL     1      30.212  44.069  55.314  1.00  0.00     0.101 A 
HETATM   27  C   UNL     1      30.538  43.090  54.371  1.00  0.00     0.040 A 
HETATM   28  C   UNL     1      29.722  42.879  53.254  1.00  0.00     0.010 A 
BRANCH  25  29
HETATM   29  O   UNL     1      28.794  45.789  56.097  1.00  0.00    -0.353 OA
HETATM   30  C   UNL     1      27.963  46.883  55.732  1.00  0.00     0.210 C 
ENDBRANCH  25  29
BRANCH  26  31
HETATM   31  O   UNL     1      30.959  44.352  56.430  1.00  0.00    -0.353 OA
HETATM   32  C   UNL     1      31.501  43.258  57.155  1.00  0.00     0.210 C 
ENDBRANCH  26  31
ENDBRANCH  22  23
ENDBRANCH  21  22
ENDBRANCH  18  21
ENDBRANCH   1  17
TORSDOF 8
ENDMDL
MODEL 10
REMARK VINA RESULT:      -8.4      2.842     10.486
REMARK  8 active torsions:
REMARK  status: ('A' for Active; 'I' for Inactive)
REMARK    1  A    between atoms: C_5  and  S_6 
REMARK    2  A    between atoms: S_6  and  C_7 
REMARK    3  A    between atoms: C_7  and  C_8 
REMARK       I    between atoms: C_8  and  N_9 
REMARK    4  A    between atoms: N_9  and  C_10 
REMARK    5  A    between atoms: C_10  and  C_11 
REMARK    6  A    between atoms: C_11  and  C_12 
REMARK    7  A    between atoms: C_14  and  O_15 
REMARK    8  A    between atoms: C_17  and  O_18 
ROOT
HETATM    1  C   UNL     1      24.356  46.603  50.782  1.00  0.00     0.185 C 
ENDROOT
BRANCH   1   2
HETATM    2  S   UNL     1      23.929  46.961  49.052  1.00  0.00    -0.080 SA
BRANCH   2   3
HETATM    3  C   UNL     1      22.902  48.341  49.249  1.00  0.00     0.197 A 
HETATM    4  N   UNL     1      21.524  48.389  49.119  1.00  0.00    -0.271 N 
HETATM    5  C   UNL     1      21.207  49.699  49.475  1.00  0.00     0.165 A 
HETATM    6  C   UNL     1      20.532  47.441  48.733  1.00  0.00     0.053 A 
HETATM    7  C   UNL     1      19.850  50.140  49.524  1.00  0.00    -0.013 A 
HETATM    8  N   UNL     1      22.309  50.375  49.728  1.00  0.00    -0.128 NA
HETATM    9  C   UNL     1      19.476  51.542  49.939  1.00  0.00     0.052 C 
HETATM   10  C   UNL     1      18.884  49.262  49.192  1.00  0.00     0.024 A 
HETATM   11  C   UNL     1      19.197  47.890  48.776  1.00  0.00    -0.008 A 
HETATM   12  C   UNL     1      18.155  47.025  48.416  1.00  0.00     0.014 A 
HETATM   13  C   UNL     1      18.436  45.724  48.004  1.00  0.00     0.001 A 
HETATM   14  C   UNL     1      19.756  45.284  47.950  1.00  0.00     0.002 A 
HETATM   15  C   UNL     1      20.804  46.137  48.310  1.00  0.00     0.031 A 
HETATM   16  N   UNL     1      23.367  49.526  49.585  1.00  0.00    -0.122 NA
ENDBRANCH   2   3
ENDBRANCH   1   2
BRANCH   1  17
HETATM   17  C   UNL     1      25.768  47.081  51.069  1.00  0.00     0.227 C 
HETATM   18  N   UNL     1      26.524  46.432  52.010  1.00  0.00    -0.360 N 
HETATM   19  H   UNL     1      27.410  46.902  52.162  1.00  0.00     0.162 HD
HETATM   20  O   UNL     1      26.272  48.030  50.466  1.00  0.00    -0.273 OA
BRANCH  18  21
HETATM   21  C   UNL     1      26.037  45.552  53.060  1.00  0.00     0.127 C 
BRANCH  21  22
HETATM   22  C   UNL     1      26.732  44.190  53.038  1.00  0.00     0.058 C 
BRANCH  22  23
HETATM   23  C   UNL     1      27.954  44.186  53.924  1.00  0.00    -0.054 A 
HETATM   24  C   UNL     1      28.139  45.200  54.877  1.00  0.00     0.046 A 
HETATM   25  C   UNL     1      29.292  45.238  55.671  1.00  0.00     0.102 A 
HETATM   26  C   UNL     1      30.267  44.232  55.532  1.00  0.00     0.101 A 
HETATM   27  C   UNL     1      30.077  43.216  54.589  1.00  0.00     0.040 A 
HETATM   28  C   UNL     1      28.930  43.197  53.787  1.00  0.00     0.010 A 
BRANCH  25  29
HETATM   29  O   UNL     1      29.545  46.205  56.613  1.00  0.00    -0.353 OA
HETATM   30  C   UNL     1      28.915  46.063  57.879  1.00  0.00     0.210 C 
ENDBRANCH  25  29
BRANCH  26  31
HETATM   31  O   UNL     1      31.363  44.336  56.351  1.00  0.00    -0.353 OA
HETATM   32  C   UNL     1      31.686  43.220  57.166  1.00  0.00     0.210 C 
ENDBRANCH  26  31
ENDBRANCH  22  23
ENDBRANCH  21  22
ENDBRANCH  18  21
ENDBRANCH   1  17
TORSDOF 8
ENDMDL
