MODEL 1
REMARK VINA RESULT:      -9.3      0.000      0.000
REMARK  3 active torsions:
REMARK  status: ('A' for Active; 'I' for Inactive)
REMARK    1  A    between atoms: C_4  and  N_5 
REMARK       I    between atoms: N_5  and  C_6 
REMARK    2  A    between atoms: C_6  and  C_7 
REMARK    3  A    between atoms: C_7  and  C_8 
ROOT
HETATM    1  C   UNL     1      25.975  43.278  51.034  1.00  0.00     0.286 C 
HETATM    2  N   UNL     1      26.759  44.239  50.110  1.00  0.00    -0.056 N 
HETATM    3  H   UNL     1      27.770  44.076  50.204  1.00  0.00     0.278 HD
HETATM    4  H   UNL     1      26.513  44.000  49.139  1.00  0.00     0.278 HD
HETATM    5  C   UNL     1      26.411  45.685  50.371  1.00  0.00     0.209 C 
HETATM    6  C   UNL     1      24.891  45.875  50.170  1.00  0.00     0.115 C 
HETATM    7  N   UNL     1      24.112  44.937  50.965  1.00  0.00    -0.353 N 
HETATM    8  C   UNL     1      24.463  43.607  51.042  1.00  0.00     0.249 C 
HETATM    9  O   UNL     1      23.606  42.732  51.108  1.00  0.00    -0.271 OA
HETATM   10  C   UNL     1      27.205  46.589  49.435  1.00  0.00     0.035 C 
HETATM   11  C   UNL     1      26.824  48.051  49.669  1.00  0.00     0.002 C 
HETATM   12  C   UNL     1      25.316  48.283  49.562  1.00  0.00     0.002 C 
HETATM   13  C   UNL     1      24.510  47.329  50.448  1.00  0.00     0.027 C 
HETATM   14  H   UNL     1      23.098  45.052  50.970  1.00  0.00     0.163 HD
ENDROOT
BRANCH   1  15
HETATM   15  C   UNL     1      26.686  43.215  52.389  1.00  0.00     0.146 C 
BRANCH  15  16
HETATM   16  C   UNL     1      27.853  42.256  52.390  1.00  0.00     0.224 C 
HETATM   17  N   UNL     1      29.041  42.596  52.960  1.00  0.00    -0.327 N 
HETATM   18  H   UNL     1      29.804  41.995  52.659  1.00  0.00     0.169 HD
HETATM   19  O   UNL     1      27.743  41.174  51.814  1.00  0.00    -0.273 OA
BRANCH  17  20
HETATM   20  C   UNL     1      29.356  43.489  54.001  1.00  0.00     0.035 A 
HETATM   21  C   UNL     1      28.661  44.678  54.240  1.00  0.00     0.036 A 
HETATM   22  C   UNL     1      29.013  45.512  55.311  1.00  0.00    -0.059 A 
HETATM   23  C   UNL     1      28.252  46.777  55.589  1.00  0.00     0.048 C 
HETATM   24  C   UNL     1      30.044  45.122  56.171  1.00  0.00     0.013 A 
HETATM   25  C   UNL     1      30.720  43.914  55.975  1.00  0.00    -0.059 A 
HETATM   26  C   UNL     1      30.362  43.099  54.892  1.00  0.00     0.036 A 
HETATM   27  C   UNL     1      31.794  43.495  56.937  1.00  0.00     0.048 C 
ENDBRANCH  17  20
ENDBRANCH  15  16
ENDBRANCH   1  15
TORSDOF 3
ENDMDL
MODEL 2
REMARK VINA RESULT:      -9.3      1.756      5.855
REMARK  3 active torsions:
REMARK  status: ('A' for Active; 'I' for Inactive)
REMARK    1  A    between atoms: C_4  and  N_5 
REMARK       I    between atoms: N_5  and  C_6 
REMARK    2  A    between atoms: C_6  and  C_7 
REMARK    3  A    between atoms: C_7  and  C_8 
ROOT
HETATM    1  C   UNL     1      26.751  41.492  50.956  1.00  0.00     0.286 C 
HETATM    2  N   UNL     1      26.557  42.180  52.326  1.00  0.00    -0.056 N 
HETATM    3  H   UNL     1      25.760  42.830  52.287  1.00  0.00     0.278 HD
HETATM    4  H   UNL     1      26.303  41.448  53.004  1.00  0.00     0.278 HD
HETATM    5  C   UNL     1      27.811  42.879  52.792  1.00  0.00     0.209 C 
HETATM    6  C   UNL     1      28.955  41.844  52.874  1.00  0.00     0.115 C 
HETATM    7  N   UNL     1      29.126  41.116  51.625  1.00  0.00    -0.353 N 
HETATM    8  C   UNL     1      28.038  40.633  50.930  1.00  0.00     0.249 C 
HETATM    9  O   UNL     1      28.099  39.568  50.326  1.00  0.00    -0.271 OA
HETATM   10  C   UNL     1      27.569  43.537  54.146  1.00  0.00     0.035 C 
HETATM   11  C   UNL     1      28.850  44.210  54.639  1.00  0.00     0.002 C 
HETATM   12  C   UNL     1      30.040  43.248  54.664  1.00  0.00     0.002 C 
HETATM   13  C   UNL     1      30.244  42.531  53.326  1.00  0.00     0.027 C 
HETATM   14  H   UNL     1      29.920  40.480  51.556  1.00  0.00     0.163 HD
ENDROOT
BRANCH   1  15
HETATM   15  C   UNL     1      26.587  42.543  49.854  1.00  0.00     0.146 C 
BRANCH  15  16
HETATM   16  C   UNL     1      25.141  42.895  49.596  1.00  0.00     0.224 C 
HETATM   17  N   UNL     1      24.552  43.947  50.226  1.00  0.00    -0.327 N 
HETATM   18  H   UNL     1      23.537  43.910  50.180  1.00  0.00     0.169 HD
HETATM   19  O   UNL     1      24.472  42.183  48.847  1.00  0.00    -0.273 OA
BRANCH  17  20
HETATM   20  C   UNL     1      25.085  45.137  50.756  1.00  0.00     0.035 A 
HETATM   21  C   UNL     1      25.173  45.405  52.126  1.00  0.00     0.036 A 
HETATM   22  C   UNL     1      25.737  46.602  52.588  1.00  0.00    -0.059 A 
HETATM   23  C   UNL     1      25.859  46.883  54.058  1.00  0.00     0.048 C 
HETATM   24  C   UNL     1      26.255  47.515  51.663  1.00  0.00     0.013 A 
HETATM   25  C   UNL     1      26.219  47.243  50.292  1.00  0.00    -0.059 A 
HETATM   26  C   UNL     1      25.639  46.046  49.849  1.00  0.00     0.036 A 
HETATM   27  C   UNL     1      26.821  48.218  49.322  1.00  0.00     0.048 C 
ENDBRANCH  17  20
ENDBRANCH  15  16
ENDBRANCH   1  15
TORSDOF 3
ENDMDL
MODEL 3
REMARK VINA RESULT:      -9.1      2.368      7.075
REMARK  3 active torsions:
REMARK  status: ('A' for Active; 'I' for Inactive)
REMARK    1  A    between atoms: C_4  and  N_5 
REMARK       I    between atoms: N_5  and  C_6 
REMARK    2  A    between atoms: C_6  and  C_7 
REMARK    3  A    between atoms: C_7  and  C_8 
ROOT
HETATM    1  C   UNL     1      27.840  45.399  54.419  1.00  0.00     0.286 C 
HETATM    2  N   UNL     1      29.236  44.735  54.477  1.00  0.00    -0.056 N 
HETATM    3  H   UNL     1      29.246  43.879  53.907  1.00  0.00     0.278 HD
HETATM    4  H   UNL     1      29.903  45.385  54.037  1.00  0.00     0.278 HD
HETATM    5  C   UNL     1      29.672  44.456  55.895  1.00  0.00     0.209 C 
HETATM    6  C   UNL     1      29.680  45.784  56.683  1.00  0.00     0.115 C 
HETATM    7  N   UNL     1      28.407  46.483  56.594  1.00  0.00    -0.353 N 
HETATM    8  C   UNL     1      27.741  46.597  55.393  1.00  0.00     0.249 C 
HETATM    9  O   UNL     1      27.107  47.610  55.118  1.00  0.00    -0.271 OA
HETATM   10  C   UNL     1      31.051  43.807  55.897  1.00  0.00     0.035 C 
HETATM   11  C   UNL     1      31.512  43.560  57.334  1.00  0.00     0.002 C 
HETATM   12  C   UNL     1      31.464  44.830  58.186  1.00  0.00     0.002 C 
HETATM   13  C   UNL     1      30.100  45.524  58.130  1.00  0.00     0.027 C 
HETATM   14  H   UNL     1      28.289  47.321  57.162  1.00  0.00     0.163 HD
ENDROOT
BRANCH   1  15
HETATM   15  C   UNL     1      26.775  44.306  54.541  1.00  0.00     0.146 C 
BRANCH  15  16
HETATM   16  C   UNL     1      27.035  43.134  53.624  1.00  0.00     0.224 C 
HETATM   17  N   UNL     1      26.344  42.984  52.462  1.00  0.00    -0.327 N 
HETATM   18  H   UNL     1      26.412  42.042  52.086  1.00  0.00     0.169 HD
HETATM   19  O   UNL     1      27.844  42.271  53.965  1.00  0.00    -0.273 OA
BRANCH  17  20
HETATM   20  C   UNL     1      25.722  43.923  51.617  1.00  0.00     0.035 A 
HETATM   21  C   UNL     1      26.321  45.120  51.214  1.00  0.00     0.036 A 
HETATM   22  C   UNL     1      25.654  46.000  50.350  1.00  0.00    -0.059 A 
HETATM   23  C   UNL     1      26.302  47.275  49.893  1.00  0.00     0.048 C 
HETATM   24  C   UNL     1      24.393  45.649  49.856  1.00  0.00     0.013 A 
HETATM   25  C   UNL     1      23.800  44.434  50.210  1.00  0.00    -0.059 A 
HETATM   26  C   UNL     1      24.476  43.572  51.085  1.00  0.00     0.036 A 
HETATM   27  C   UNL     1      22.465  44.058  49.632  1.00  0.00     0.048 C 
ENDBRANCH  17  20
ENDBRANCH  15  16
ENDBRANCH   1  15
TORSDOF 3
ENDMDL
MODEL 4
REMARK VINA RESULT:      -8.9      2.320      3.488
REMARK  3 active torsions:
REMARK  status: ('A' for Active; 'I' for Inactive)
REMARK    1  A    between atoms: C_4  and  N_5 
REMARK       I    between atoms: N_5  and  C_6 
REMARK    2  A    between atoms: C_6  and  C_7 
REMARK    3  A    between atoms: C_7  and  C_8 
ROOT
HETATM    1  C   UNL     1      26.323  46.424  51.290  1.00  0.00     0.286 C 
HETATM    2  N   UNL     1      26.720  47.158  49.987  1.00  0.00    -0.056 N 
HETATM    3  H   UNL     1      27.700  47.463  50.036  1.00  0.00     0.278 HD
HETATM    4  H   UNL     1      26.667  46.472  49.221  1.00  0.00     0.278 HD
HETATM    5  C   UNL     1      25.799  48.315  49.686  1.00  0.00     0.209 C 
HETATM    6  C   UNL     1      24.353  47.785  49.580  1.00  0.00     0.115 C 
HETATM    7  N   UNL     1      23.960  47.022  50.755  1.00  0.00    -0.353 N 
HETATM    8  C   UNL     1      24.812  46.096  51.318  1.00  0.00     0.249 C 
HETATM    9  O   UNL     1      24.380  45.060  51.811  1.00  0.00    -0.271 OA
HETATM   10  C   UNL     1      26.229  49.000  48.394  1.00  0.00     0.035 C 
HETATM   11  C   UNL     1      25.273  50.148  48.065  1.00  0.00     0.002 C 
HETATM   12  C   UNL     1      23.812  49.695  48.026  1.00  0.00     0.002 C 
HETATM   13  C   UNL     1      23.396  48.943  49.294  1.00  0.00     0.027 C 
HETATM   14  H   UNL     1      22.990  46.714  50.815  1.00  0.00     0.163 HD
ENDROOT
BRANCH   1  15
HETATM   15  C   UNL     1      26.895  47.201  52.480  1.00  0.00     0.146 C 
BRANCH  15  16
HETATM   16  C   UNL     1      26.158  46.918  53.768  1.00  0.00     0.224 C 
HETATM   17  N   UNL     1      26.326  45.741  54.429  1.00  0.00    -0.327 N 
HETATM   18  H   UNL     1      25.589  45.567  55.108  1.00  0.00     0.169 HD
HETATM   19  O   UNL     1      25.350  47.744  54.193  1.00  0.00    -0.273 OA
BRANCH  17  20
HETATM   20  C   UNL     1      27.403  44.836  54.468  1.00  0.00     0.035 A 
HETATM   21  C   UNL     1      28.605  45.090  55.134  1.00  0.00     0.036 A 
HETATM   22  C   UNL     1      29.630  44.133  55.154  1.00  0.00    -0.059 A 
HETATM   23  C   UNL     1      30.913  44.389  55.891  1.00  0.00     0.048 C 
HETATM   24  C   UNL     1      29.424  42.897  54.534  1.00  0.00     0.013 A 
HETATM   25  C   UNL     1      28.210  42.607  53.903  1.00  0.00    -0.059 A 
HETATM   26  C   UNL     1      27.201  43.580  53.883  1.00  0.00     0.036 A 
HETATM   27  C   UNL     1      27.995  41.257  53.282  1.00  0.00     0.048 C 
ENDBRANCH  17  20
ENDBRANCH  15  16
ENDBRANCH   1  15
TORSDOF 3
ENDMDL
MODEL 5
REMARK VINA RESULT:      -8.9      4.414      7.111
REMARK  3 active torsions:
REMARK  status: ('A' for Active; 'I' for Inactive)
REMARK    1  A    between atoms: C_4  and  N_5 
REMARK       I    between atoms: N_5  and  C_6 
REMARK    2  A    between atoms: C_6  and  C_7 
REMARK    3  A    between atoms: C_7  and  C_8 
ROOT
HETATM    1  C   UNL     1      23.048  49.187  48.129  1.00  0.00     0.286 C 
HETATM    2  N   UNL     1      22.069  50.334  47.787  1.00  0.00    -0.056 N 
HETATM    3  H   UNL     1      22.591  51.190  47.560  1.00  0.00     0.278 HD
HETATM    4  H   UNL     1      21.567  50.063  46.931  1.00  0.00     0.278 HD
HETATM    5  C   UNL     1      21.073  50.577  48.895  1.00  0.00     0.209 C 
HETATM    6  C   UNL     1      20.292  49.271  49.157  1.00  0.00     0.115 C 
HETATM    7  N   UNL     1      21.178  48.144  49.410  1.00  0.00    -0.353 N 
HETATM    8  C   UNL     1      22.298  47.932  48.636  1.00  0.00     0.249 C 
HETATM    9  O   UNL     1      22.669  46.796  48.361  1.00  0.00    -0.271 OA
HETATM   10  C   UNL     1      20.131  51.711  48.508  1.00  0.00     0.035 C 
HETATM   11  C   UNL     1      19.095  51.933  49.611  1.00  0.00     0.002 C 
HETATM   12  C   UNL     1      18.345  50.648  49.970  1.00  0.00     0.002 C 
HETATM   13  C   UNL     1      19.288  49.486  50.290  1.00  0.00     0.027 C 
HETATM   14  H   UNL     1      20.749  47.261  49.688  1.00  0.00     0.163 HD
ENDROOT
BRANCH   1  15
HETATM   15  C   UNL     1      24.162  49.745  49.021  1.00  0.00     0.146 C 
BRANCH  15  16
HETATM   16  C   UNL     1      25.542  49.443  48.487  1.00  0.00     0.224 C 
HETATM   17  N   UNL     1      26.362  48.561  49.119  1.00  0.00    -0.327 N 
HETATM   18  H   UNL     1      27.332  48.653  48.828  1.00  0.00     0.169 HD
HETATM   19  O   UNL     1      25.950  50.050  47.497  1.00  0.00    -0.273 OA
BRANCH  17  20
HETATM   20  C   UNL     1      26.086  47.455  49.944  1.00  0.00     0.035 A 
HETATM   21  C   UNL     1      25.876  46.160  49.460  1.00  0.00     0.036 A 
HETATM   22  C   UNL     1      25.629  45.097  50.341  1.00  0.00    -0.059 A 
HETATM   23  C   UNL     1      25.428  43.700  49.829  1.00  0.00     0.048 C 
HETATM   24  C   UNL     1      25.638  45.334  51.719  1.00  0.00     0.013 A 
HETATM   25  C   UNL     1      25.894  46.613  52.223  1.00  0.00    -0.059 A 
HETATM   26  C   UNL     1      26.126  47.666  51.327  1.00  0.00     0.036 A 
HETATM   27  C   UNL     1      25.943  46.835  53.707  1.00  0.00     0.048 C 
ENDBRANCH  17  20
ENDBRANCH  15  16
ENDBRANCH   1  15
TORSDOF 3
ENDMDL
MODEL 6
REMARK VINA RESULT:      -8.9      2.331      4.203
REMARK  3 active torsions:
REMARK  status: ('A' for Active; 'I' for Inactive)
REMARK    1  A    between atoms: C_4  and  N_5 
REMARK       I    between atoms: N_5  and  C_6 
REMARK    2  A    between atoms: C_6  and  C_7 
REMARK    3  A    between atoms: C_7  and  C_8 
ROOT
HETATM    1  C   UNL     1      25.438  44.699  51.454  1.00  0.00     0.286 C 
HETATM    2  N   UNL     1      25.843  43.308  51.994  1.00  0.00    -0.056 N 
HETATM    3  H   UNL     1      26.205  43.391  52.953  1.00  0.00     0.278 HD
HETATM    4  H   UNL     1      24.985  42.741  52.055  1.00  0.00     0.278 HD
HETATM    5  C   UNL     1      26.835  42.616  51.090  1.00  0.00     0.209 C 
HETATM    6  C   UNL     1      26.215  42.481  49.682  1.00  0.00     0.115 C 
HETATM    7  N   UNL     1      25.750  43.759  49.163  1.00  0.00    -0.353 N 
HETATM    8  C   UNL     1      25.043  44.635  49.959  1.00  0.00     0.249 C 
HETATM    9  O   UNL     1      24.141  45.322  49.494  1.00  0.00    -0.271 OA
HETATM   10  C   UNL     1      27.198  41.251  51.663  1.00  0.00     0.035 C 
HETATM   11  C   UNL     1      28.172  40.532  50.729  1.00  0.00     0.002 C 
HETATM   12  C   UNL     1      27.642  40.440  49.296  1.00  0.00     0.002 C 
HETATM   13  C   UNL     1      27.210  41.801  48.742  1.00  0.00     0.027 C 
HETATM   14  H   UNL     1      25.413  43.782  48.201  1.00  0.00     0.163 HD
ENDROOT
BRANCH   1  15
HETATM   15  C   UNL     1      26.518  45.709  51.851  1.00  0.00     0.146 C 
BRANCH  15  16
HETATM   16  C   UNL     1      26.150  46.501  53.084  1.00  0.00     0.224 C 
HETATM   17  N   UNL     1      26.633  46.158  54.309  1.00  0.00    -0.327 N 
HETATM   18  H   UNL     1      26.107  46.584  55.068  1.00  0.00     0.169 HD
HETATM   19  O   UNL     1      25.356  47.436  52.984  1.00  0.00    -0.273 OA
BRANCH  17  20
HETATM   20  C   UNL     1      27.806  45.484  54.696  1.00  0.00     0.035 A 
HETATM   21  C   UNL     1      28.390  44.454  53.953  1.00  0.00     0.036 A 
HETATM   22  C   UNL     1      29.574  43.841  54.386  1.00  0.00    -0.059 A 
HETATM   23  C   UNL     1      30.221  42.752  53.578  1.00  0.00     0.048 C 
HETATM   24  C   UNL     1      30.196  44.299  55.552  1.00  0.00     0.013 A 
HETATM   25  C   UNL     1      29.652  45.360  56.282  1.00  0.00    -0.059 A 
HETATM   26  C   UNL     1      28.460  45.952  55.842  1.00  0.00     0.036 A 
HETATM   27  C   UNL     1      30.360  45.864  57.507  1.00  0.00     0.048 C 
ENDBRANCH  17  20
ENDBRANCH  15  16
ENDBRANCH   1  15
TORSDOF 3
ENDMDL
MODEL 7
REMARK VINA RESULT:      -8.8      2.012      2.569
REMARK  3 active torsions:
REMARK  status: ('A' for Active; 'I' for Inactive)
REMARK    1  A    between atoms: C_4  and  N_5 
REMARK       I    between atoms: N_5  and  C_6 
REMARK    2  A    between atoms: C_6  and  C_7 
REMARK    3  A    between atoms: C_7  and  C_8 
ROOT
HETATM    1  C   UNL     1      25.966  43.671  52.314  1.00  0.00     0.286 C 
HETATM    2  N   UNL     1      25.128  42.666  51.491  1.00  0.00    -0.056 N 
HETATM    3  H   UNL     1      25.672  41.812  51.313  1.00  0.00     0.278 HD
HETATM    4  H   UNL     1      24.326  42.386  52.073  1.00  0.00     0.278 HD
HETATM    5  C   UNL     1      24.622  43.271  50.203  1.00  0.00     0.209 C 
HETATM    6  C   UNL     1      23.777  44.520  50.539  1.00  0.00     0.115 C 
HETATM    7  N   UNL     1      24.502  45.463  51.378  1.00  0.00    -0.353 N 
HETATM    8  C   UNL     1      25.241  45.031  52.458  1.00  0.00     0.249 C 
HETATM    9  O   UNL     1      25.308  45.699  53.484  1.00  0.00    -0.271 OA
HETATM   10  C   UNL     1      23.801  42.244  49.433  1.00  0.00     0.035 C 
HETATM   11  C   UNL     1      23.252  42.867  48.148  1.00  0.00     0.002 C 
HETATM   12  C   UNL     1      22.472  44.156  48.414  1.00  0.00     0.002 C 
HETATM   13  C   UNL     1      23.268  45.163  49.249  1.00  0.00     0.027 C 
HETATM   14  H   UNL     1      24.057  46.360  51.571  1.00  0.00     0.163 HD
ENDROOT
BRANCH   1  15
HETATM   15  C   UNL     1      27.391  43.693  51.753  1.00  0.00     0.146 C 
BRANCH  15  16
HETATM   16  C   UNL     1      28.185  42.465  52.132  1.00  0.00     0.224 C 
HETATM   17  N   UNL     1      29.222  42.543  53.008  1.00  0.00    -0.327 N 
HETATM   18  H   UNL     1      29.830  41.728  52.966  1.00  0.00     0.169 HD
HETATM   19  O   UNL     1      27.924  41.390  51.593  1.00  0.00    -0.273 OA
BRANCH  17  20
HETATM   20  C   UNL     1      29.493  43.439  54.059  1.00  0.00     0.035 A 
HETATM   21  C   UNL     1      28.762  44.608  54.289  1.00  0.00     0.036 A 
HETATM   22  C   UNL     1      29.070  45.445  55.370  1.00  0.00    -0.059 A 
HETATM   23  C   UNL     1      28.272  46.689  55.638  1.00  0.00     0.048 C 
HETATM   24  C   UNL     1      30.095  45.079  56.249  1.00  0.00     0.013 A 
HETATM   25  C   UNL     1      30.805  43.889  56.063  1.00  0.00    -0.059 A 
HETATM   26  C   UNL     1      30.491  43.071  54.969  1.00  0.00     0.036 A 
HETATM   27  C   UNL     1      31.870  43.494  57.044  1.00  0.00     0.048 C 
ENDBRANCH  17  20
ENDBRANCH  15  16
ENDBRANCH   1  15
TORSDOF 3
ENDMDL
MODEL 8
REMARK VINA RESULT:      -8.8      2.475      4.207
REMARK  3 active torsions:
REMARK  status: ('A' for Active; 'I' for Inactive)
REMARK    1  A    between atoms: C_4  and  N_5 
REMARK       I    between atoms: N_5  and  C_6 
REMARK    2  A    between atoms: C_6  and  C_7 
REMARK    3  A    between atoms: C_7  and  C_8 
ROOT
HETATM    1  C   UNL     1      25.068  45.991  52.401  1.00  0.00     0.286 C 
HETATM    2  N   UNL     1      24.237  44.831  51.803  1.00  0.00    -0.056 N 
HETATM    3  H   UNL     1      23.611  44.439  52.518  1.00  0.00     0.278 HD
HETATM    4  H   UNL     1      23.632  45.233  51.073  1.00  0.00     0.278 HD
HETATM    5  C   UNL     1      25.113  43.763  51.194  1.00  0.00     0.209 C 
HETATM    6  C   UNL     1      25.994  44.405  50.101  1.00  0.00     0.115 C 
HETATM    7  N   UNL     1      26.739  45.551  50.600  1.00  0.00    -0.353 N 
HETATM    8  C   UNL     1      26.137  46.496  51.403  1.00  0.00     0.249 C 
HETATM    9  O   UNL     1      26.439  47.681  51.316  1.00  0.00    -0.271 OA
HETATM   10  C   UNL     1      24.248  42.648  50.618  1.00  0.00     0.035 C 
HETATM   11  C   UNL     1      25.130  41.583  49.964  1.00  0.00     0.002 C 
HETATM   12  C   UNL     1      26.084  42.178  48.925  1.00  0.00     0.002 C 
HETATM   13  C   UNL     1      26.905  43.345  49.481  1.00  0.00     0.027 C 
HETATM   14  H   UNL     1      27.420  45.979  49.974  1.00  0.00     0.163 HD
ENDROOT
BRANCH   1  15
HETATM   15  C   UNL     1      25.550  45.578  53.795  1.00  0.00     0.146 C 
BRANCH  15  16
HETATM   16  C   UNL     1      26.316  46.675  54.496  1.00  0.00     0.224 C 
HETATM   17  N   UNL     1      27.476  46.410  55.155  1.00  0.00    -0.327 N 
HETATM   18  H   UNL     1      27.737  47.155  55.797  1.00  0.00     0.169 HD
HETATM   19  O   UNL     1      25.851  47.814  54.517  1.00  0.00    -0.273 OA
BRANCH  17  20
HETATM   20  C   UNL     1      28.444  45.404  54.978  1.00  0.00     0.035 A 
HETATM   21  C   UNL     1      29.465  45.141  55.895  1.00  0.00     0.036 A 
HETATM   22  C   UNL     1      30.384  44.106  55.668  1.00  0.00    -0.059 A 
HETATM   23  C   UNL     1      31.467  43.800  56.662  1.00  0.00     0.048 C 
HETATM   24  C   UNL     1      30.244  43.305  54.530  1.00  0.00     0.013 A 
HETATM   25  C   UNL     1      29.199  43.523  53.626  1.00  0.00    -0.059 A 
HETATM   26  C   UNL     1      28.299  44.571  53.863  1.00  0.00     0.036 A 
HETATM   27  C   UNL     1      29.043  42.623  52.434  1.00  0.00     0.048 C 
ENDBRANCH  17  20
ENDBRANCH  15  16
ENDBRANCH   1  15
TORSDOF 3
ENDMDL
MODEL 9
REMARK VINA RESULT:      -8.7     12.215     14.305
REMARK  3 active torsions:
REMARK  status: ('A' for Active; 'I' for Inactive)
REMARK    1  A    between atoms: C_4  and  N_5 
REMARK       I    between atoms: N_5  and  C_6 
REMARK    2  A    between atoms: C_6  and  C_7 
REMARK    3  A    between atoms: C_7  and  C_8 
ROOT
HETATM    1  C   UNL     1      27.940  51.253  40.561  1.00  0.00     0.286 C 
HETATM    2  N   UNL     1      28.388  50.151  41.549  1.00  0.00    -0.056 N 
HETATM    3  H   UNL     1      28.258  50.469  42.518  1.00  0.00     0.278 HD
HETATM    4  H   UNL     1      27.758  49.347  41.419  1.00  0.00     0.278 HD
HETATM    5  C   UNL     1      29.812  49.713  41.302  1.00  0.00     0.209 C 
HETATM    6  C   UNL     1      29.931  49.206  39.849  1.00  0.00     0.115 C 
HETATM    7  N   UNL     1      29.449  50.184  38.885  1.00  0.00    -0.353 N 
HETATM    8  C   UNL     1      28.275  50.874  39.099  1.00  0.00     0.249 C 
HETATM    9  O   UNL     1      27.535  51.163  38.165  1.00  0.00    -0.271 OA
HETATM   10  C   UNL     1      30.202  48.627  42.297  1.00  0.00     0.035 C 
HETATM   11  C   UNL     1      31.630  48.153  42.023  1.00  0.00     0.002 C 
HETATM   12  C   UNL     1      31.828  47.712  40.571  1.00  0.00     0.002 C 
HETATM   13  C   UNL     1      31.370  48.774  39.567  1.00  0.00     0.027 C 
HETATM   14  H   UNL     1      29.578  49.973  37.895  1.00  0.00     0.163 HD
ENDROOT
BRANCH   1  15
HETATM   15  C   UNL     1      28.454  52.603  41.070  1.00  0.00     0.146 C 
BRANCH  15  16
HETATM   16  C   UNL     1      29.352  53.298  40.075  1.00  0.00     0.224 C 
HETATM   17  N   UNL     1      30.688  53.422  40.300  1.00  0.00    -0.327 N 
HETATM   18  H   UNL     1      31.119  54.129  39.710  1.00  0.00     0.169 HD
HETATM   19  O   UNL     1      28.855  53.811  39.072  1.00  0.00    -0.273 OA
BRANCH  17  20
HETATM   20  C   UNL     1      31.585  52.641  41.053  1.00  0.00     0.035 A 
HETATM   21  C   UNL     1      32.663  51.947  40.497  1.00  0.00     0.036 A 
HETATM   22  C   UNL     1      33.534  51.206  41.309  1.00  0.00    -0.059 A 
HETATM   23  C   UNL     1      34.710  50.481  40.721  1.00  0.00     0.048 C 
HETATM   24  C   UNL     1      33.340  51.201  42.694  1.00  0.00     0.013 A 
HETATM   25  C   UNL     1      32.294  51.928  43.272  1.00  0.00    -0.059 A 
HETATM   26  C   UNL     1      31.426  52.653  42.443  1.00  0.00     0.036 A 
HETATM   27  C   UNL     1      32.132  51.943  44.765  1.00  0.00     0.048 C 
ENDBRANCH  17  20
ENDBRANCH  15  16
ENDBRANCH   1  15
TORSDOF 3
ENDMDL
MODEL 10
REMARK VINA RESULT:      -8.7     12.654     14.710
REMARK  3 active torsions:
REMARK  status: ('A' for Active; 'I' for Inactive)
REMARK    1  A    between atoms: C_4  and  N_5 
REMARK       I    between atoms: N_5  and  C_6 
REMARK    2  A    between atoms: C_6  and  C_7 
REMARK    3  A    between atoms: C_7  and  C_8 
ROOT
HETATM    1  C   UNL     1      28.159  51.708  39.217  1.00  0.00     0.286 C 
HETATM    2  N   UNL     1      27.503  50.344  39.530  1.00  0.00    -0.056 N 
HETATM    3  H   UNL     1      26.797  50.451  40.270  1.00  0.00     0.278 HD
HETATM    4  H   UNL     1      26.995  50.047  38.684  1.00  0.00     0.278 HD
HETATM    5  C   UNL     1      28.524  49.294  39.894  1.00  0.00     0.209 C 
HETATM    6  C   UNL     1      29.525  49.148  38.727  1.00  0.00     0.115 C 
HETATM    7  N   UNL     1      30.114  50.423  38.346  1.00  0.00    -0.353 N 
HETATM    8  C   UNL     1      29.338  51.556  38.226  1.00  0.00     0.249 C 
HETATM    9  O   UNL     1      29.578  52.396  37.366  1.00  0.00    -0.271 OA
HETATM   10  C   UNL     1      27.828  47.970  40.189  1.00  0.00     0.035 C 
HETATM   11  C   UNL     1      28.864  46.894  40.518  1.00  0.00     0.002 C 
HETATM   12  C   UNL     1      29.930  46.762  39.429  1.00  0.00     0.002 C 
HETATM   13  C   UNL     1      30.583  48.102  39.079  1.00  0.00     0.027 C 
HETATM   14  H   UNL     1      30.857  50.409  37.648  1.00  0.00     0.163 HD
ENDROOT
BRANCH   1  15
HETATM   15  C   UNL     1      28.442  52.428  40.539  1.00  0.00     0.146 C 
BRANCH  15  16
HETATM   16  C   UNL     1      29.513  53.486  40.408  1.00  0.00     0.224 C 
HETATM   17  N   UNL     1      30.750  53.302  40.943  1.00  0.00    -0.327 N 
HETATM   18  H   UNL     1      31.272  54.171  41.026  1.00  0.00     0.169 HD
HETATM   19  O   UNL     1      29.240  54.554  39.861  1.00  0.00    -0.273 OA
BRANCH  17  20
HETATM   20  C   UNL     1      31.484  52.134  41.222  1.00  0.00     0.035 A 
HETATM   21  C   UNL     1      30.955  51.030  41.897  1.00  0.00     0.036 A 
HETATM   22  C   UNL     1      31.735  49.886  42.122  1.00  0.00    -0.059 A 
HETATM   23  C   UNL     1      31.165  48.687  42.823  1.00  0.00     0.048 C 
HETATM   24  C   UNL     1      33.041  49.841  41.625  1.00  0.00     0.013 A 
HETATM   25  C   UNL     1      33.571  50.917  40.905  1.00  0.00    -0.059 A 
HETATM   26  C   UNL     1      32.781  52.057  40.702  1.00  0.00     0.036 A 
HETATM   27  C   UNL     1      34.960  50.828  40.343  1.00  0.00     0.048 C 
ENDBRANCH  17  20
ENDBRANCH  15  16
ENDBRANCH   1  15
TORSDOF 3
ENDMDL
