MODEL 1
REMARK VINA RESULT:      -7.8      0.000      0.000
REMARK  3 active torsions:
REMARK  status: ('A' for Active; 'I' for Inactive)
REMARK    1  A    between atoms: C_2  and  C_3 
REMARK    2  A    between atoms: C_7  and  N_8 
REMARK       I    between atoms: N_8  and  C_9 
REMARK    3  A    between atoms: C_9  and  C_10 
ROOT
HETATM    1  N   UNL     1      26.971  42.010  52.576  1.00  0.00    -0.309 N 
HETATM    2  C   UNL     1      26.890  43.354  52.260  1.00  0.00     0.234 C 
HETATM    3  O   UNL     1      27.484  43.941  51.357  1.00  0.00    -0.272 OA
HETATM    4  H   UNL     1      26.434  41.661  53.356  1.00  0.00     0.170 HD
ENDROOT
BRANCH   2   5
HETATM    5  C   UNL     1      25.966  44.152  53.170  1.00  0.00     0.138 C 
HETATM    6  C   UNL     1      26.658  45.176  53.999  1.00  0.00    -0.008 A 
HETATM    7  C   UNL     1      26.385  46.437  53.489  1.00  0.00     0.076 A 
HETATM    8  C   UNL     1      27.502  45.013  55.084  1.00  0.00     0.030 A 
HETATM    9  C   UNL     1      26.942  47.578  54.025  1.00  0.00     0.039 A 
HETATM   10  O   UNL     1      25.570  46.417  52.387  1.00  0.00    -0.349 OA
HETATM   11  C   UNL     1      27.790  47.435  55.127  1.00  0.00     0.022 A 
HETATM   12  C   UNL     1      28.064  46.160  55.648  1.00  0.00     0.011 A 
HETATM   13 BR   UNL     1      29.226  45.993  57.132  1.00  0.00    -0.051 Br
HETATM   14  C   UNL     1      25.028  45.067  52.378  1.00  0.00     0.194 C 
ENDBRANCH   2   5
BRANCH   1  15
HETATM   15  C   UNL     1      27.699  41.063  51.883  1.00  0.00     0.158 A 
HETATM   16  N   UNL     1      28.874  40.577  52.272  1.00  0.00    -0.156 NA
HETATM   17  N   UNL     1      29.232  39.728  51.306  1.00  0.00    -0.280 N 
HETATM   18  C   UNL     1      28.324  39.637  50.290  1.00  0.00     0.037 A 
HETATM   19  H   UNL     1      30.121  39.249  51.400  1.00  0.00     0.189 HD
HETATM   20  C   UNL     1      27.287  40.487  50.642  1.00  0.00     0.010 A 
HETATM   21  C   UNL     1      26.041  40.750  49.881  1.00  0.00     0.054 C 
BRANCH  18  22
HETATM   22  C   UNL     1      28.552  38.758  49.111  1.00  0.00     0.055 C 
HETATM   23  C   UNL     1      29.934  38.124  49.143  1.00  0.00     0.011 C 
ENDBRANCH  18  22
ENDBRANCH   1  15
TORSDOF 3
ENDMDL
MODEL 2
REMARK VINA RESULT:      -7.7      4.301      6.821
REMARK  3 active torsions:
REMARK  status: ('A' for Active; 'I' for Inactive)
REMARK    1  A    between atoms: C_2  and  C_3 
REMARK    2  A    between atoms: C_7  and  N_8 
REMARK       I    between atoms: N_8  and  C_9 
REMARK    3  A    between atoms: C_9  and  C_10 
ROOT
HETATM    1  N   UNL     1      25.331  46.244  50.119  1.00  0.00    -0.309 N 
HETATM    2  C   UNL     1      26.346  45.312  50.003  1.00  0.00     0.234 C 
HETATM    3  O   UNL     1      27.389  45.426  49.362  1.00  0.00    -0.272 OA
HETATM    4  H   UNL     1      24.519  46.013  50.672  1.00  0.00     0.170 HD
ENDROOT
BRANCH   2   5
HETATM    5  C   UNL     1      26.085  44.012  50.754  1.00  0.00     0.138 C 
HETATM    6  C   UNL     1      26.604  43.997  52.148  1.00  0.00    -0.008 A 
HETATM    7  C   UNL     1      25.542  44.109  53.032  1.00  0.00     0.076 A 
HETATM    8  C   UNL     1      27.910  43.939  52.605  1.00  0.00     0.030 A 
HETATM    9  C   UNL     1      25.731  44.179  54.396  1.00  0.00     0.039 A 
HETATM   10  O   UNL     1      24.322  44.201  52.414  1.00  0.00    -0.349 OA
HETATM   11  C   UNL     1      27.041  44.114  54.878  1.00  0.00     0.022 A 
HETATM   12  C   UNL     1      28.119  43.995  53.985  1.00  0.00     0.011 A 
HETATM   13 BR   UNL     1      29.883  43.922  54.663  1.00  0.00    -0.051 Br
HETATM   14  C   UNL     1      24.596  43.803  51.042  1.00  0.00     0.194 C 
ENDBRANCH   2   5
BRANCH   1  15
HETATM   15  C   UNL     1      25.340  47.514  49.577  1.00  0.00     0.158 A 
HETATM   16  N   UNL     1      26.388  48.333  49.582  1.00  0.00    -0.156 NA
HETATM   17  N   UNL     1      25.955  49.450  48.995  1.00  0.00    -0.280 N 
HETATM   18  C   UNL     1      24.650  49.392  48.598  1.00  0.00     0.037 A 
HETATM   19  H   UNL     1      26.605  50.224  48.908  1.00  0.00     0.189 HD
HETATM   20  C   UNL     1      24.213  48.124  48.945  1.00  0.00     0.010 A 
HETATM   21  C   UNL     1      22.864  47.544  48.724  1.00  0.00     0.054 C 
BRANCH  18  22
HETATM   22  C   UNL     1      23.978  50.547  47.942  1.00  0.00     0.055 C 
HETATM   23  C   UNL     1      22.942  51.186  48.855  1.00  0.00     0.011 C 
ENDBRANCH  18  22
ENDBRANCH   1  15
TORSDOF 3
ENDMDL
MODEL 3
REMARK VINA RESULT:      -7.5      3.684      6.235
REMARK  3 active torsions:
REMARK  status: ('A' for Active; 'I' for Inactive)
REMARK    1  A    between atoms: C_2  and  C_3 
REMARK    2  A    between atoms: C_7  and  N_8 
REMARK       I    between atoms: N_8  and  C_9 
REMARK    3  A    between atoms: C_9  and  C_10 
ROOT
HETATM    1  N   UNL     1      27.910  44.795  52.897  1.00  0.00    -0.309 N 
HETATM    2  C   UNL     1      26.592  44.406  52.743  1.00  0.00     0.234 C 
HETATM    3  O   UNL     1      25.886  43.831  53.569  1.00  0.00    -0.272 OA
HETATM    4  H   UNL     1      28.375  45.252  52.126  1.00  0.00     0.170 HD
ENDROOT
BRANCH   2   5
HETATM    5  C   UNL     1      26.002  44.734  51.376  1.00  0.00     0.138 C 
HETATM    6  C   UNL     1      25.906  43.569  50.457  1.00  0.00    -0.008 A 
HETATM    7  C   UNL     1      24.580  43.176  50.353  1.00  0.00     0.076 A 
HETATM    8  C   UNL     1      26.909  42.874  49.801  1.00  0.00     0.030 A 
HETATM    9  C   UNL     1      24.198  42.081  49.608  1.00  0.00     0.039 A 
HETATM   10  O   UNL     1      23.723  43.941  51.100  1.00  0.00    -0.349 OA
HETATM   11  C   UNL     1      25.195  41.372  48.931  1.00  0.00     0.022 A 
HETATM   12  C   UNL     1      26.538  41.770  49.030  1.00  0.00     0.011 A 
HETATM   13 BR   UNL     1      27.869  40.785  48.115  1.00  0.00    -0.051 Br
HETATM   14  C   UNL     1      24.519  45.103  51.464  1.00  0.00     0.194 C 
ENDBRANCH   2   5
BRANCH   1  15
HETATM   15  C   UNL     1      28.659  44.658  54.048  1.00  0.00     0.158 A 
HETATM   16  N   UNL     1      28.576  45.459  55.107  1.00  0.00    -0.156 NA
HETATM   17  N   UNL     1      29.486  44.993  55.963  1.00  0.00    -0.280 N 
HETATM   18  C   UNL     1      30.169  43.903  55.502  1.00  0.00     0.037 A 
HETATM   19  H   UNL     1      29.599  45.478  56.848  1.00  0.00     0.189 HD
HETATM   20  C   UNL     1      29.639  43.637  54.250  1.00  0.00     0.010 A 
HETATM   21  C   UNL     1      30.025  42.544  53.323  1.00  0.00     0.054 C 
BRANCH  18  22
HETATM   22  C   UNL     1      31.240  43.252  56.304  1.00  0.00     0.055 C 
HETATM   23  C   UNL     1      31.484  43.984  57.615  1.00  0.00     0.011 C 
ENDBRANCH  18  22
ENDBRANCH   1  15
TORSDOF 3
ENDMDL
MODEL 4
REMARK VINA RESULT:      -7.4      5.504      7.145
REMARK  3 active torsions:
REMARK  status: ('A' for Active; 'I' for Inactive)
REMARK    1  A    between atoms: C_2  and  C_3 
REMARK    2  A    between atoms: C_7  and  N_8 
REMARK       I    between atoms: N_8  and  C_9 
REMARK    3  A    between atoms: C_9  and  C_10 
ROOT
HETATM    1  N   UNL     1      24.237  46.014  49.662  1.00  0.00    -0.309 N 
HETATM    2  C   UNL     1      24.264  47.371  49.925  1.00  0.00     0.234 C 
HETATM    3  O   UNL     1      24.657  47.921  50.952  1.00  0.00    -0.272 OA
HETATM    4  H   UNL     1      23.875  45.697  48.775  1.00  0.00     0.170 HD
ENDROOT
BRANCH   2   5
HETATM    5  C   UNL     1      23.720  48.235  48.793  1.00  0.00     0.138 C 
HETATM    6  C   UNL     1      22.372  48.808  49.056  1.00  0.00    -0.008 A 
HETATM    7  C   UNL     1      22.497  50.162  49.326  1.00  0.00     0.076 A 
HETATM    8  C   UNL     1      21.138  48.181  49.103  1.00  0.00     0.030 A 
HETATM    9  C   UNL     1      21.412  50.943  49.663  1.00  0.00     0.039 A 
HETATM   10  O   UNL     1      23.791  50.612  49.282  1.00  0.00    -0.349 OA
HETATM   11  C   UNL     1      20.156  50.332  49.707  1.00  0.00     0.022 A 
HETATM   12  C   UNL     1      20.026  48.961  49.429  1.00  0.00     0.011 A 
HETATM   13 BR   UNL     1      18.317  48.155  49.510  1.00  0.00    -0.051 Br
HETATM   14  C   UNL     1      24.514  49.533  48.627  1.00  0.00     0.194 C 
ENDBRANCH   2   5
BRANCH   1  15
HETATM   15  C   UNL     1      24.713  45.024  50.498  1.00  0.00     0.158 A 
HETATM   16  N   UNL     1      23.958  44.295  51.316  1.00  0.00    -0.156 NA
HETATM   17  N   UNL     1      24.815  43.495  51.953  1.00  0.00    -0.280 N 
HETATM   18  C   UNL     1      26.116  43.672  51.579  1.00  0.00     0.037 A 
HETATM   19  H   UNL     1      24.442  42.854  52.646  1.00  0.00     0.189 HD
HETATM   20  C   UNL     1      26.090  44.658  50.605  1.00  0.00     0.010 A 
HETATM   21  C   UNL     1      27.245  45.218  49.860  1.00  0.00     0.054 C 
BRANCH  18  22
HETATM   22  C   UNL     1      27.222  42.888  52.192  1.00  0.00     0.055 C 
HETATM   23  C   UNL     1      27.799  43.589  53.412  1.00  0.00     0.011 C 
ENDBRANCH  18  22
ENDBRANCH   1  15
TORSDOF 3
ENDMDL
MODEL 5
REMARK VINA RESULT:      -7.3      2.051      2.471
REMARK  3 active torsions:
REMARK  status: ('A' for Active; 'I' for Inactive)
REMARK    1  A    between atoms: C_2  and  C_3 
REMARK    2  A    between atoms: C_7  and  N_8 
REMARK       I    between atoms: N_8  and  C_9 
REMARK    3  A    between atoms: C_9  and  C_10 
ROOT
HETATM    1  N   UNL     1      27.172  41.962  52.030  1.00  0.00    -0.309 N 
HETATM    2  C   UNL     1      27.806  43.095  52.505  1.00  0.00     0.234 C 
HETATM    3  O   UNL     1      28.682  43.747  51.940  1.00  0.00    -0.272 OA
HETATM    4  H   UNL     1      26.474  41.517  52.608  1.00  0.00     0.170 HD
ENDROOT
BRANCH   2   5
HETATM    5  C   UNL     1      27.346  43.530  53.891  1.00  0.00     0.138 C 
HETATM    6  C   UNL     1      28.423  44.107  54.740  1.00  0.00    -0.008 A 
HETATM    7  C   UNL     1      28.251  45.481  54.825  1.00  0.00     0.076 A 
HETATM    8  C   UNL     1      29.500  43.483  55.348  1.00  0.00     0.030 A 
HETATM    9  C   UNL     1      29.139  46.287  55.505  1.00  0.00     0.039 A 
HETATM   10  O   UNL     1      27.165  45.941  54.129  1.00  0.00    -0.349 OA
HETATM   11  C   UNL     1      30.227  45.676  56.133  1.00  0.00     0.022 A 
HETATM   12  C   UNL     1      30.402  44.284  56.053  1.00  0.00     0.011 A 
HETATM   13 BR   UNL     1      31.890  43.483  56.902  1.00  0.00    -0.051 Br
HETATM   14  C   UNL     1      26.405  44.736  53.833  1.00  0.00     0.194 C 
ENDBRANCH   2   5
BRANCH   1  15
HETATM   15  C   UNL     1      27.370  41.390  50.789  1.00  0.00     0.158 A 
HETATM   16  N   UNL     1      28.263  40.439  50.527  1.00  0.00    -0.156 NA
HETATM   17  N   UNL     1      28.145  40.207  49.219  1.00  0.00    -0.280 N 
HETATM   18  C   UNL     1      27.196  40.975  48.608  1.00  0.00     0.037 A 
HETATM   19  H   UNL     1      28.756  39.512  48.802  1.00  0.00     0.189 HD
HETATM   20  C   UNL     1      26.647  41.756  49.613  1.00  0.00     0.010 A 
HETATM   21  C   UNL     1      25.563  42.761  49.481  1.00  0.00     0.054 C 
BRANCH  18  22
HETATM   22  C   UNL     1      26.929  40.877  47.146  1.00  0.00     0.055 C 
HETATM   23  C   UNL     1      28.216  40.922  46.337  1.00  0.00     0.011 C 
ENDBRANCH  18  22
ENDBRANCH   1  15
TORSDOF 3
ENDMDL
MODEL 6
REMARK VINA RESULT:      -7.3      2.582      3.514
REMARK  3 active torsions:
REMARK  status: ('A' for Active; 'I' for Inactive)
REMARK    1  A    between atoms: C_2  and  C_3 
REMARK    2  A    between atoms: C_7  and  N_8 
REMARK       I    between atoms: N_8  and  C_9 
REMARK    3  A    between atoms: C_9  and  C_10 
ROOT
HETATM    1  N   UNL     1      28.331  41.284  50.996  1.00  0.00    -0.309 N 
HETATM    2  C   UNL     1      28.533  41.612  52.324  1.00  0.00     0.234 C 
HETATM    3  O   UNL     1      28.092  41.024  53.309  1.00  0.00    -0.272 OA
HETATM    4  H   UNL     1      28.746  41.866  50.283  1.00  0.00     0.170 HD
ENDROOT
BRANCH   2   5
HETATM    5  C   UNL     1      29.387  42.857  52.534  1.00  0.00     0.138 C 
HETATM    6  C   UNL     1      28.692  43.962  53.247  1.00  0.00    -0.008 A 
HETATM    7  C   UNL     1      29.180  44.048  54.543  1.00  0.00     0.076 A 
HETATM    8  C   UNL     1      27.675  44.795  52.812  1.00  0.00     0.030 A 
HETATM    9  C   UNL     1      28.676  44.950  55.456  1.00  0.00     0.039 A 
HETATM   10  O   UNL     1      30.150  43.122  54.824  1.00  0.00    -0.349 OA
HETATM   11  C   UNL     1      27.655  45.805  55.032  1.00  0.00     0.022 A 
HETATM   12  C   UNL     1      27.162  45.725  53.720  1.00  0.00     0.011 A 
HETATM   13 BR   UNL     1      25.771  46.885  53.176  1.00  0.00    -0.051 Br
HETATM   14  C   UNL     1      30.533  42.609  53.518  1.00  0.00     0.194 C 
ENDBRANCH   2   5
BRANCH   1  15
HETATM   15  C   UNL     1      27.637  40.183  50.537  1.00  0.00     0.158 A 
HETATM   16  N   UNL     1      26.316  40.040  50.596  1.00  0.00    -0.156 NA
HETATM   17  N   UNL     1      26.076  38.833  50.082  1.00  0.00    -0.280 N 
HETATM   18  C   UNL     1      27.203  38.172  49.681  1.00  0.00     0.037 A 
HETATM   19  H   UNL     1      25.114  38.514  50.045  1.00  0.00     0.189 HD
HETATM   20  C   UNL     1      28.253  39.037  49.945  1.00  0.00     0.010 A 
HETATM   21  C   UNL     1      29.696  38.805  49.687  1.00  0.00     0.054 C 
BRANCH  18  22
HETATM   22  C   UNL     1      27.144  36.803  49.101  1.00  0.00     0.055 C 
HETATM   23  C   UNL     1      26.077  36.695  48.022  1.00  0.00     0.011 C 
ENDBRANCH  18  22
ENDBRANCH   1  15
TORSDOF 3
ENDMDL
MODEL 7
REMARK VINA RESULT:      -7.2      2.522      3.250
REMARK  3 active torsions:
REMARK  status: ('A' for Active; 'I' for Inactive)
REMARK    1  A    between atoms: C_2  and  C_3 
REMARK    2  A    between atoms: C_7  and  N_8 
REMARK       I    between atoms: N_8  and  C_9 
REMARK    3  A    between atoms: C_9  and  C_10 
ROOT
HETATM    1  N   UNL     1      26.965  42.599  52.255  1.00  0.00    -0.309 N 
HETATM    2  C   UNL     1      27.505  43.821  52.614  1.00  0.00     0.234 C 
HETATM    3  O   UNL     1      28.696  44.114  52.685  1.00  0.00    -0.272 OA
HETATM    4  H   UNL     1      25.961  42.493  52.251  1.00  0.00     0.170 HD
ENDROOT
BRANCH   2   5
HETATM    5  C   UNL     1      26.467  44.878  52.971  1.00  0.00     0.138 C 
HETATM    6  C   UNL     1      26.064  45.747  51.833  1.00  0.00    -0.008 A 
HETATM    7  C   UNL     1      24.791  45.391  51.414  1.00  0.00     0.076 A 
HETATM    8  C   UNL     1      26.777  46.740  51.181  1.00  0.00     0.030 A 
HETATM    9  C   UNL     1      24.181  45.993  50.334  1.00  0.00     0.039 A 
HETATM   10  O   UNL     1      24.245  44.361  52.136  1.00  0.00    -0.349 OA
HETATM   11  C   UNL     1      24.881  47.003  49.669  1.00  0.00     0.022 A 
HETATM   12  C   UNL     1      26.169  47.370  50.093  1.00  0.00     0.011 A 
HETATM   13 BR   UNL     1      27.100  48.732  49.168  1.00  0.00    -0.051 Br
HETATM   14  C   UNL     1      25.106  44.260  53.304  1.00  0.00     0.194 C 
ENDBRANCH   2   5
BRANCH   1  15
HETATM   15  C   UNL     1      27.682  41.493  51.844  1.00  0.00     0.158 A 
HETATM   16  N   UNL     1      28.561  40.838  52.597  1.00  0.00    -0.156 NA
HETATM   17  N   UNL     1      29.039  39.873  51.809  1.00  0.00    -0.280 N 
HETATM   18  C   UNL     1      28.498  39.870  50.555  1.00  0.00     0.037 A 
HETATM   19  H   UNL     1      29.746  39.254  52.190  1.00  0.00     0.189 HD
HETATM   20  C   UNL     1      27.583  40.911  50.543  1.00  0.00     0.010 A 
HETATM   21  C   UNL     1      26.713  41.332  49.417  1.00  0.00     0.054 C 
BRANCH  18  22
HETATM   22  C   UNL     1      28.917  38.883  49.523  1.00  0.00     0.055 C 
HETATM   23  C   UNL     1      29.970  37.924  50.058  1.00  0.00     0.011 C 
ENDBRANCH  18  22
ENDBRANCH   1  15
TORSDOF 3
ENDMDL
MODEL 8
REMARK VINA RESULT:      -7.1      3.930      6.105
REMARK  3 active torsions:
REMARK  status: ('A' for Active; 'I' for Inactive)
REMARK    1  A    between atoms: C_2  and  C_3 
REMARK    2  A    between atoms: C_7  and  N_8 
REMARK       I    between atoms: N_8  and  C_9 
REMARK    3  A    between atoms: C_9  and  C_10 
ROOT
HETATM    1  N   UNL     1      26.157  45.715  52.990  1.00  0.00    -0.309 N 
HETATM    2  C   UNL     1      26.850  46.367  53.993  1.00  0.00     0.234 C 
HETATM    3  O   UNL     1      27.144  47.560  54.038  1.00  0.00    -0.272 OA
HETATM    4  H   UNL     1      25.995  44.723  53.077  1.00  0.00     0.170 HD
ENDROOT
BRANCH   2   5
HETATM    5  C   UNL     1      27.292  45.460  55.135  1.00  0.00     0.138 C 
HETATM    6  C   UNL     1      28.223  44.373  54.728  1.00  0.00    -0.008 A 
HETATM    7  C   UNL     1      29.501  44.678  55.171  1.00  0.00     0.076 A 
HETATM    8  C   UNL     1      27.979  43.232  53.983  1.00  0.00     0.030 A 
HETATM    9  C   UNL     1      30.584  43.873  54.887  1.00  0.00     0.039 A 
HETATM   10  O   UNL     1      29.577  45.864  55.852  1.00  0.00    -0.349 OA
HETATM   11  C   UNL     1      30.357  42.711  54.144  1.00  0.00     0.022 A 
HETATM   12  C   UNL     1      29.063  42.398  53.698  1.00  0.00     0.011 A 
HETATM   13 BR   UNL     1      28.784  40.826  52.683  1.00  0.00    -0.051 Br
HETATM   14  C   UNL     1      28.189  46.192  56.137  1.00  0.00     0.194 C 
ENDBRANCH   2   5
BRANCH   1  15
HETATM   15  C   UNL     1      25.609  46.312  51.872  1.00  0.00     0.158 A 
HETATM   16  N   UNL     1      25.885  47.547  51.460  1.00  0.00    -0.156 NA
HETATM   17  N   UNL     1      25.123  47.728  50.381  1.00  0.00    -0.280 N 
HETATM   18  C   UNL     1      24.351  46.647  50.065  1.00  0.00     0.037 A 
HETATM   19  H   UNL     1      25.170  48.626  49.910  1.00  0.00     0.189 HD
HETATM   20  C   UNL     1      24.657  45.683  51.012  1.00  0.00     0.010 A 
HETATM   21  C   UNL     1      24.098  44.312  51.115  1.00  0.00     0.054 C 
BRANCH  18  22
HETATM   22  C   UNL     1      23.417  46.662  48.906  1.00  0.00     0.055 C 
HETATM   23  C   UNL     1      22.732  48.011  48.754  1.00  0.00     0.011 C 
ENDBRANCH  18  22
ENDBRANCH   1  15
TORSDOF 3
ENDMDL
MODEL 9
REMARK VINA RESULT:      -7.1      8.641     10.798
REMARK  3 active torsions:
REMARK  status: ('A' for Active; 'I' for Inactive)
REMARK    1  A    between atoms: C_2  and  C_3 
REMARK    2  A    between atoms: C_7  and  N_8 
REMARK       I    between atoms: N_8  and  C_9 
REMARK    3  A    between atoms: C_9  and  C_10 
ROOT
HETATM    1  N   UNL     1      21.757  48.834  49.313  1.00  0.00    -0.309 N 
HETATM    2  C   UNL     1      20.990  49.900  49.747  1.00  0.00     0.234 C 
HETATM    3  O   UNL     1      21.393  50.958  50.226  1.00  0.00    -0.272 OA
HETATM    4  H   UNL     1      21.291  48.016  48.949  1.00  0.00     0.170 HD
ENDROOT
BRANCH   2   5
HETATM    5  C   UNL     1      19.488  49.680  49.612  1.00  0.00     0.138 C 
HETATM    6  C   UNL     1      19.035  49.388  48.225  1.00  0.00    -0.008 A 
HETATM    7  C   UNL     1      18.711  48.043  48.125  1.00  0.00     0.076 A 
HETATM    8  C   UNL     1      18.960  50.225  47.124  1.00  0.00     0.030 A 
HETATM    9  C   UNL     1      18.311  47.475  46.934  1.00  0.00     0.039 A 
HETATM   10  O   UNL     1      18.884  47.350  49.294  1.00  0.00    -0.349 OA
HETATM   11  C   UNL     1      18.221  48.305  45.813  1.00  0.00     0.022 A 
HETATM   12  C   UNL     1      18.544  49.668  45.912  1.00  0.00     0.011 A 
HETATM   13 BR   UNL     1      18.426  50.766  44.377  1.00  0.00    -0.051 Br
HETATM   14  C   UNL     1      19.031  48.391  50.299  1.00  0.00     0.194 C 
ENDBRANCH   2   5
BRANCH   1  15
HETATM   15  C   UNL     1      23.137  48.796  49.284  1.00  0.00     0.158 A 
HETATM   16  N   UNL     1      23.888  47.976  50.014  1.00  0.00    -0.156 NA
HETATM   17  N   UNL     1      25.146  48.295  49.706  1.00  0.00    -0.280 N 
HETATM   18  C   UNL     1      25.249  49.302  48.788  1.00  0.00     0.037 A 
HETATM   19  H   UNL     1      25.893  47.790  50.171  1.00  0.00     0.189 HD
HETATM   20  C   UNL     1      23.945  49.646  48.468  1.00  0.00     0.010 A 
HETATM   21  C   UNL     1      23.499  50.685  47.506  1.00  0.00     0.054 C 
BRANCH  18  22
HETATM   22  C   UNL     1      26.570  49.814  48.331  1.00  0.00     0.055 C 
HETATM   23  C   UNL     1      27.717  49.169  49.095  1.00  0.00     0.011 C 
ENDBRANCH  18  22
ENDBRANCH   1  15
TORSDOF 3
ENDMDL
MODEL 10
REMARK VINA RESULT:      -7.1     13.828     15.046
REMARK  3 active torsions:
REMARK  status: ('A' for Active; 'I' for Inactive)
REMARK    1  A    between atoms: C_2  and  C_3 
REMARK    2  A    between atoms: C_7  and  N_8 
REMARK       I    between atoms: N_8  and  C_9 
REMARK    3  A    between atoms: C_9  and  C_10 
ROOT
HETATM    1  N   UNL     1      29.439  50.819  40.072  1.00  0.00    -0.309 N 
HETATM    2  C   UNL     1      29.604  50.043  38.940  1.00  0.00     0.234 C 
HETATM    3  O   UNL     1      30.664  49.744  38.393  1.00  0.00    -0.272 OA
HETATM    4  H   UNL     1      28.504  50.996  40.408  1.00  0.00     0.170 HD
ENDROOT
BRANCH   2   5
HETATM    5  C   UNL     1      28.299  49.542  38.333  1.00  0.00     0.138 C 
HETATM    6  C   UNL     1      27.696  48.385  39.047  1.00  0.00    -0.008 A 
HETATM    7  C   UNL     1      26.589  48.817  39.762  1.00  0.00     0.076 A 
HETATM    8  C   UNL     1      28.115  47.066  39.108  1.00  0.00     0.030 A 
HETATM    9  C   UNL     1      25.862  47.966  40.568  1.00  0.00     0.039 A 
HETATM   10  O   UNL     1      26.340  50.158  39.629  1.00  0.00    -0.349 OA
HETATM   11  C   UNL     1      26.263  46.629  40.635  1.00  0.00     0.022 A 
HETATM   12  C   UNL     1      27.381  46.188  39.909  1.00  0.00     0.011 A 
HETATM   13 BR   UNL     1      27.911  44.376  40.028  1.00  0.00    -0.051 Br
HETATM   14  C   UNL     1      27.163  50.555  38.497  1.00  0.00     0.194 C 
ENDBRANCH   2   5
BRANCH   1  15
HETATM   15  C   UNL     1      30.457  51.355  40.835  1.00  0.00     0.158 A 
HETATM   16  N   UNL     1      30.969  52.571  40.670  1.00  0.00    -0.156 NA
HETATM   17  N   UNL     1      31.938  52.664  41.582  1.00  0.00    -0.280 N 
HETATM   18  C   UNL     1      32.079  51.543  42.350  1.00  0.00     0.037 A 
HETATM   19  H   UNL     1      32.475  53.523  41.620  1.00  0.00     0.189 HD
HETATM   20  C   UNL     1      31.107  50.662  41.903  1.00  0.00     0.010 A 
HETATM   21  C   UNL     1      30.826  49.297  42.412  1.00  0.00     0.054 C 
BRANCH  18  22
HETATM   22  C   UNL     1      33.120  51.445  43.410  1.00  0.00     0.055 C 
HETATM   23  C   UNL     1      32.599  51.928  44.755  1.00  0.00     0.011 C 
ENDBRANCH  18  22
ENDBRANCH   1  15
TORSDOF 3
ENDMDL
