MODEL 1
REMARK VINA RESULT:      -8.4      0.000      0.000
REMARK  11 active torsions:
REMARK  status: ('A' for Active; 'I' for Inactive)
REMARK    1  A    between atoms: C_2  and  C_3 
REMARK    2  A    between atoms: C_3  and  N_4 
REMARK    3  A    between atoms: N_4  and  C_6 
REMARK    4  A    between atoms: N_4  and  C_30 
REMARK    5  A    between atoms: C_6  and  C_7 
REMARK    6  A    between atoms: N_8  and  C_9 
REMARK    7  A    between atoms: C_13  and  N_14 
REMARK    8  A    between atoms: C_17  and  C_18 
REMARK       I    between atoms: C_18  and  N_19 
REMARK    9  A    between atoms: N_19  and  N_20 
REMARK   10  A    between atoms: C_21  and  C_22 
REMARK   11  A    between atoms: C_30  and  C_31 
ROOT
HETATM    1  C   UNL     1      24.287  44.793  49.926  1.00  0.00     0.096 A 
HETATM    2  N   UNL     1      23.202  44.473  49.115  1.00  0.00    -0.215 N 
HETATM    3  N   UNL     1      22.585  43.374  49.626  1.00  0.00     0.012 NA
HETATM    4  N   UNL     1      23.169  43.032  50.761  1.00  0.00    -0.152 NA
HETATM    5  C   UNL     1      24.215  43.880  50.971  1.00  0.00     0.170 A 
ENDROOT
BRANCH   5   6
HETATM    6  C   UNL     1      25.078  43.829  52.145  1.00  0.00     0.293 C 
HETATM    7  N   UNL     1      26.387  43.482  51.873  1.00  0.00    -0.242 N 
HETATM    8  H   UNL     1      26.687  43.305  50.917  1.00  0.00     0.192 HD
HETATM    9  O   UNL     1      24.609  44.029  53.263  1.00  0.00    -0.264 OA
BRANCH   7  10
HETATM   10  N   UNL     1      27.243  43.279  52.911  1.00  0.00    -0.184 NA
HETATM   11  C   UNL     1      28.118  44.207  53.127  1.00  0.00     0.150 C 
BRANCH  11  12
HETATM   12  C   UNL     1      29.111  44.081  54.214  1.00  0.00    -0.016 A 
HETATM   13  C   UNL     1      29.022  44.934  55.315  1.00  0.00     0.032 A 
HETATM   14  C   UNL     1      29.970  44.829  56.333  1.00  0.00     0.011 A 
HETATM   15 BR   UNL     1      29.866  45.983  57.828  1.00  0.00    -0.051 Br
HETATM   16  C   UNL     1      30.994  43.884  56.262  1.00  0.00     0.019 A 
HETATM   17  C   UNL     1      31.076  43.033  55.160  1.00  0.00     0.002 A 
HETATM   18  C   UNL     1      30.136  43.131  54.134  1.00  0.00     0.013 A 
ENDBRANCH  11  12
ENDBRANCH   7  10
ENDBRANCH   5   6
BRANCH   1  19
HETATM   19  C   UNL     1      25.315  45.827  49.638  1.00  0.00     0.296 C 
BRANCH  19  20
HETATM   20  N   UNL     1      25.213  47.121  50.439  1.00  0.00    -0.066 N 
HETATM   21  H   UNL     1      24.252  47.159  50.801  1.00  0.00     0.280 HD
BRANCH  20  22
HETATM   22  C   UNL     1      25.427  48.323  49.522  1.00  0.00     0.235 C 
BRANCH  22  23
HETATM   23  C   UNL     1      26.895  48.513  49.145  1.00  0.00     0.023 C 
HETATM   24  C   UNL     1      27.235  49.939  48.737  1.00  0.00     0.007 C 
ENDBRANCH  22  23
ENDBRANCH  20  22
BRANCH  20  25
HETATM   25  C   UNL     1      26.181  47.153  51.615  1.00  0.00     0.235 C 
BRANCH  25  26
HETATM   26  C   UNL     1      25.486  47.370  52.959  1.00  0.00     0.023 C 
HETATM   27  C   UNL     1      26.430  47.354  54.151  1.00  0.00     0.007 C 
ENDBRANCH  25  26
ENDBRANCH  20  25
ENDBRANCH  19  20
ENDBRANCH   1  19
BRANCH   2  28
HETATM   28  C   UNL     1      22.716  45.152  47.974  1.00  0.00     0.225 A 
HETATM   29  N   UNL     1      22.877  44.614  46.763  1.00  0.00    -0.081 NA
HETATM   30  O   UNL     1      22.298  45.555  45.904  1.00  0.00    -0.103 OA
HETATM   31  N   UNL     1      21.828  46.653  46.609  1.00  0.00    -0.083 NA
HETATM   32  C   UNL     1      22.088  46.407  47.891  1.00  0.00     0.201 A 
BRANCH  32  33
HETATM   33  N   UNL     1      21.783  47.232  48.903  1.00  0.00    -0.379 N 
HETATM   34  H   UNL     1      22.520  47.695  49.430  1.00  0.00     0.158 HD
HETATM   35  H   UNL     1      20.847  47.347  49.286  1.00  0.00     0.158 HD
ENDBRANCH  32  33
ENDBRANCH   2  28
TORSDOF 11
ENDMDL
MODEL 2
REMARK VINA RESULT:      -8.1      4.095      8.666
REMARK  11 active torsions:
REMARK  status: ('A' for Active; 'I' for Inactive)
REMARK    1  A    between atoms: C_2  and  C_3 
REMARK    2  A    between atoms: C_3  and  N_4 
REMARK    3  A    between atoms: N_4  and  C_6 
REMARK    4  A    between atoms: N_4  and  C_30 
REMARK    5  A    between atoms: C_6  and  C_7 
REMARK    6  A    between atoms: N_8  and  C_9 
REMARK    7  A    between atoms: C_13  and  N_14 
REMARK    8  A    between atoms: C_17  and  C_18 
REMARK       I    between atoms: C_18  and  N_19 
REMARK    9  A    between atoms: N_19  and  N_20 
REMARK   10  A    between atoms: C_21  and  C_22 
REMARK   11  A    between atoms: C_30  and  C_31 
ROOT
HETATM    1  C   UNL     1      26.702  44.901  51.709  1.00  0.00     0.096 A 
HETATM    2  N   UNL     1      27.362  43.774  51.227  1.00  0.00    -0.215 N 
HETATM    3  N   UNL     1      27.204  43.720  49.877  1.00  0.00     0.012 NA
HETATM    4  N   UNL     1      26.552  44.795  49.469  1.00  0.00    -0.152 NA
HETATM    5  C   UNL     1      26.229  45.536  50.566  1.00  0.00     0.170 A 
ENDROOT
BRANCH   5   6
HETATM    6  C   UNL     1      25.529  46.813  50.505  1.00  0.00     0.293 C 
HETATM    7  N   UNL     1      24.347  46.779  49.790  1.00  0.00    -0.242 N 
HETATM    8  H   UNL     1      24.019  45.911  49.374  1.00  0.00     0.192 HD
HETATM    9  O   UNL     1      26.027  47.813  51.015  1.00  0.00    -0.264 OA
BRANCH   7  10
HETATM   10  N   UNL     1      23.683  47.945  49.562  1.00  0.00    -0.184 NA
HETATM   11  C   UNL     1      22.501  47.843  49.046  1.00  0.00     0.150 C 
BRANCH  11  12
HETATM   12  C   UNL     1      21.699  49.044  48.735  1.00  0.00    -0.016 A 
HETATM   13  C   UNL     1      20.747  48.978  47.715  1.00  0.00     0.032 A 
HETATM   14  C   UNL     1      20.001  50.116  47.408  1.00  0.00     0.011 A 
HETATM   15 BR   UNL     1      18.714  50.043  46.025  1.00  0.00    -0.051 Br
HETATM   16  C   UNL     1      20.195  51.308  48.108  1.00  0.00     0.019 A 
HETATM   17  C   UNL     1      21.145  51.367  49.126  1.00  0.00     0.002 A 
HETATM   18  C   UNL     1      21.899  50.236  49.441  1.00  0.00     0.013 A 
ENDBRANCH  11  12
ENDBRANCH   7  10
ENDBRANCH   5   6
BRANCH   1  19
HETATM   19  C   UNL     1      26.496  45.246  53.140  1.00  0.00     0.296 C 
BRANCH  19  20
HETATM   20  N   UNL     1      27.711  45.792  53.883  1.00  0.00    -0.066 N 
HETATM   21  H   UNL     1      28.518  45.633  53.268  1.00  0.00     0.280 HD
BRANCH  20  22
HETATM   22  C   UNL     1      27.932  45.006  55.174  1.00  0.00     0.235 C 
BRANCH  22  23
HETATM   23  C   UNL     1      29.227  45.402  55.881  1.00  0.00     0.023 C 
HETATM   24  C   UNL     1      30.329  44.361  55.750  1.00  0.00     0.007 C 
ENDBRANCH  22  23
ENDBRANCH  20  22
BRANCH  20  25
HETATM   25  C   UNL     1      27.595  47.284  54.166  1.00  0.00     0.235 C 
BRANCH  25  26
HETATM   26  C   UNL     1      26.228  47.684  54.721  1.00  0.00     0.023 C 
HETATM   27  C   UNL     1      26.297  48.668  55.879  1.00  0.00     0.007 C 
ENDBRANCH  25  26
ENDBRANCH  20  25
ENDBRANCH  19  20
ENDBRANCH   1  19
BRANCH   2  28
HETATM   28  C   UNL     1      28.139  42.830  51.937  1.00  0.00     0.225 A 
HETATM   29  N   UNL     1      29.307  43.197  52.468  1.00  0.00    -0.081 NA
HETATM   30  O   UNL     1      29.782  42.023  53.064  1.00  0.00    -0.103 OA
HETATM   31  N   UNL     1      28.907  40.967  52.855  1.00  0.00    -0.083 NA
HETATM   32  C   UNL     1      27.890  41.464  52.156  1.00  0.00     0.201 A 
BRANCH  32  33
HETATM   33  N   UNL     1      26.824  40.756  51.752  1.00  0.00    -0.379 N 
HETATM   34  H   UNL     1      26.454  40.874  50.812  1.00  0.00     0.158 HD
HETATM   35  H   UNL     1      26.255  40.177  52.367  1.00  0.00     0.158 HD
ENDBRANCH  32  33
ENDBRANCH   2  28
TORSDOF 11
ENDMDL
MODEL 3
REMARK VINA RESULT:      -7.9      2.434      3.679
REMARK  11 active torsions:
REMARK  status: ('A' for Active; 'I' for Inactive)
REMARK    1  A    between atoms: C_2  and  C_3 
REMARK    2  A    between atoms: C_3  and  N_4 
REMARK    3  A    between atoms: N_4  and  C_6 
REMARK    4  A    between atoms: N_4  and  C_30 
REMARK    5  A    between atoms: C_6  and  C_7 
REMARK    6  A    between atoms: N_8  and  C_9 
REMARK    7  A    between atoms: C_13  and  N_14 
REMARK    8  A    between atoms: C_17  and  C_18 
REMARK       I    between atoms: C_18  and  N_19 
REMARK    9  A    between atoms: N_19  and  N_20 
REMARK   10  A    between atoms: C_21  and  C_22 
REMARK   11  A    between atoms: C_30  and  C_31 
ROOT
HETATM    1  C   UNL     1      22.642  46.699  49.009  1.00  0.00     0.096 A 
HETATM    2  N   UNL     1      21.517  46.448  48.229  1.00  0.00    -0.215 N 
HETATM    3  N   UNL     1      21.531  45.143  47.849  1.00  0.00     0.012 NA
HETATM    4  N   UNL     1      22.560  44.534  48.414  1.00  0.00    -0.152 NA
HETATM    5  C   UNL     1      23.260  45.460  49.129  1.00  0.00     0.170 A 
ENDROOT
BRANCH   5   6
HETATM    6  C   UNL     1      24.446  45.149  49.916  1.00  0.00     0.293 C 
HETATM    7  N   UNL     1      24.214  45.038  51.273  1.00  0.00    -0.242 N 
HETATM    8  H   UNL     1      23.276  45.152  51.649  1.00  0.00     0.192 HD
HETATM    9  O   UNL     1      25.543  45.063  49.369  1.00  0.00    -0.264 OA
BRANCH   7  10
HETATM   10  N   UNL     1      25.275  44.879  52.111  1.00  0.00    -0.184 NA
HETATM   11  C   UNL     1      25.686  45.941  52.727  1.00  0.00     0.150 C 
BRANCH  11  12
HETATM   12  C   UNL     1      26.844  45.890  53.643  1.00  0.00    -0.016 A 
HETATM   13  C   UNL     1      27.666  44.761  53.635  1.00  0.00     0.032 A 
HETATM   14  C   UNL     1      28.749  44.704  54.512  1.00  0.00     0.011 A 
HETATM   15 BR   UNL     1      29.865  43.178  54.517  1.00  0.00    -0.051 Br
HETATM   16  C   UNL     1      29.017  45.757  55.387  1.00  0.00     0.019 A 
HETATM   17  C   UNL     1      28.194  46.883  55.389  1.00  0.00     0.002 A 
HETATM   18  C   UNL     1      27.106  46.951  54.518  1.00  0.00     0.013 A 
ENDBRANCH  11  12
ENDBRANCH   7  10
ENDBRANCH   5   6
BRANCH   1  19
HETATM   19  C   UNL     1      23.087  48.031  49.495  1.00  0.00     0.296 C 
BRANCH  19  20
HETATM   20  N   UNL     1      24.098  48.765  48.621  1.00  0.00    -0.066 N 
HETATM   21  H   UNL     1      24.051  48.322  47.695  1.00  0.00     0.280 HD
BRANCH  20  22
HETATM   22  C   UNL     1      25.508  48.570  49.174  1.00  0.00     0.235 C 
BRANCH  22  23
HETATM   23  C   UNL     1      26.518  49.526  48.543  1.00  0.00     0.023 C 
HETATM   24  C   UNL     1      27.914  49.409  49.137  1.00  0.00     0.007 C 
ENDBRANCH  22  23
ENDBRANCH  20  22
BRANCH  20  25
HETATM   25  C   UNL     1      23.771  50.245  48.473  1.00  0.00     0.235 C 
BRANCH  25  26
HETATM   26  C   UNL     1      22.493  50.500  47.674  1.00  0.00     0.023 C 
HETATM   27  C   UNL     1      21.363  51.103  48.494  1.00  0.00     0.007 C 
ENDBRANCH  25  26
ENDBRANCH  20  25
ENDBRANCH  19  20
ENDBRANCH   1  19
BRANCH   2  28
HETATM   28  C   UNL     1      20.458  47.323  47.892  1.00  0.00     0.225 A 
HETATM   29  N   UNL     1      20.354  47.788  46.645  1.00  0.00    -0.081 NA
HETATM   30  O   UNL     1      19.225  48.614  46.694  1.00  0.00    -0.103 OA
HETATM   31  N   UNL     1      18.690  48.654  47.973  1.00  0.00    -0.083 NA
HETATM   32  C   UNL     1      19.454  47.857  48.718  1.00  0.00     0.201 A 
BRANCH  32  33
HETATM   33  N   UNL     1      19.265  47.622  50.024  1.00  0.00    -0.379 N 
HETATM   34  H   UNL     1      20.034  47.298  50.606  1.00  0.00     0.158 HD
HETATM   35  H   UNL     1      18.354  47.622  50.480  1.00  0.00     0.158 HD
ENDBRANCH  32  33
ENDBRANCH   2  28
TORSDOF 11
ENDMDL
MODEL 4
REMARK VINA RESULT:      -7.9      1.752      2.591
REMARK  11 active torsions:
REMARK  status: ('A' for Active; 'I' for Inactive)
REMARK    1  A    between atoms: C_2  and  C_3 
REMARK    2  A    between atoms: C_3  and  N_4 
REMARK    3  A    between atoms: N_4  and  C_6 
REMARK    4  A    between atoms: N_4  and  C_30 
REMARK    5  A    between atoms: C_6  and  C_7 
REMARK    6  A    between atoms: N_8  and  C_9 
REMARK    7  A    between atoms: C_13  and  N_14 
REMARK    8  A    between atoms: C_17  and  C_18 
REMARK       I    between atoms: C_18  and  N_19 
REMARK    9  A    between atoms: N_19  and  N_20 
REMARK   10  A    between atoms: C_21  and  C_22 
REMARK   11  A    between atoms: C_30  and  C_31 
ROOT
HETATM    1  C   UNL     1      23.991  45.420  49.117  1.00  0.00     0.096 A 
HETATM    2  N   UNL     1      22.991  45.287  48.158  1.00  0.00    -0.215 N 
HETATM    3  N   UNL     1      23.213  44.147  47.451  1.00  0.00     0.012 NA
HETATM    4  N   UNL     1      24.251  43.509  47.965  1.00  0.00    -0.152 NA
HETATM    5  C   UNL     1      24.750  44.264  48.984  1.00  0.00     0.170 A 
ENDROOT
BRANCH   5   6
HETATM    6  C   UNL     1      25.882  43.865  49.810  1.00  0.00     0.293 C 
HETATM    7  N   UNL     1      25.542  43.476  51.091  1.00  0.00    -0.242 N 
HETATM    8  H   UNL     1      24.569  43.465  51.387  1.00  0.00     0.192 HD
HETATM    9  O   UNL     1      27.026  43.945  49.367  1.00  0.00    -0.264 OA
BRANCH   7  10
HETATM   10  N   UNL     1      26.535  43.209  51.982  1.00  0.00    -0.184 NA
HETATM   11  C   UNL     1      27.228  44.222  52.394  1.00  0.00     0.150 C 
BRANCH  11  12
HETATM   12  C   UNL     1      28.344  44.047  53.345  1.00  0.00    -0.016 A 
HETATM   13  C   UNL     1      28.419  44.880  54.463  1.00  0.00     0.032 A 
HETATM   14  C   UNL     1      29.483  44.727  55.352  1.00  0.00     0.011 A 
HETATM   15 BR   UNL     1      29.601  45.853  56.867  1.00  0.00    -0.051 Br
HETATM   16  C   UNL     1      30.461  43.756  55.137  1.00  0.00     0.019 A 
HETATM   17  C   UNL     1      30.380  42.926  54.020  1.00  0.00     0.002 A 
HETATM   18  C   UNL     1      29.322  43.070  53.122  1.00  0.00     0.013 A 
ENDBRANCH  11  12
ENDBRANCH   7  10
ENDBRANCH   5   6
BRANCH   1  19
HETATM   19  C   UNL     1      24.207  46.602  49.992  1.00  0.00     0.296 C 
BRANCH  19  20
HETATM   20  N   UNL     1      25.015  47.748  49.391  1.00  0.00    -0.066 N 
HETATM   21  H   UNL     1      25.205  47.483  48.417  1.00  0.00     0.280 HD
BRANCH  20  22
HETATM   22  C   UNL     1      26.350  47.885  50.119  1.00  0.00     0.235 C 
BRANCH  22  23
HETATM   23  C   UNL     1      27.507  48.173  49.163  1.00  0.00     0.023 C 
HETATM   24  C   UNL     1      27.789  49.657  48.987  1.00  0.00     0.007 C 
ENDBRANCH  22  23
ENDBRANCH  20  22
BRANCH  20  25
HETATM   25  C   UNL     1      24.250  49.064  49.402  1.00  0.00     0.235 C 
BRANCH  25  26
HETATM   26  C   UNL     1      24.165  49.721  48.024  1.00  0.00     0.023 C 
HETATM   27  C   UNL     1      23.084  50.784  47.913  1.00  0.00     0.007 C 
ENDBRANCH  25  26
ENDBRANCH  20  25
ENDBRANCH  19  20
ENDBRANCH   1  19
BRANCH   2  28
HETATM   28  C   UNL     1      21.866  46.113  47.928  1.00  0.00     0.225 A 
HETATM   29  N   UNL     1      21.955  47.131  47.069  1.00  0.00    -0.081 NA
HETATM   30  O   UNL     1      20.683  47.713  47.115  1.00  0.00    -0.103 OA
HETATM   31  N   UNL     1      19.863  47.054  48.020  1.00  0.00    -0.083 NA
HETATM   32  C   UNL     1      20.595  46.064  48.527  1.00  0.00     0.201 A 
BRANCH  32  33
HETATM   33  N   UNL     1      20.160  45.186  49.442  1.00  0.00    -0.379 N 
HETATM   34  H   UNL     1      20.814  44.746  50.085  1.00  0.00     0.158 HD
HETATM   35  H   UNL     1      19.213  44.813  49.474  1.00  0.00     0.158 HD
ENDBRANCH  32  33
ENDBRANCH   2  28
TORSDOF 11
ENDMDL
MODEL 5
REMARK VINA RESULT:      -7.9      1.950      3.794
REMARK  11 active torsions:
REMARK  status: ('A' for Active; 'I' for Inactive)
REMARK    1  A    between atoms: C_2  and  C_3 
REMARK    2  A    between atoms: C_3  and  N_4 
REMARK    3  A    between atoms: N_4  and  C_6 
REMARK    4  A    between atoms: N_4  and  C_30 
REMARK    5  A    between atoms: C_6  and  C_7 
REMARK    6  A    between atoms: N_8  and  C_9 
REMARK    7  A    between atoms: C_13  and  N_14 
REMARK    8  A    between atoms: C_17  and  C_18 
REMARK       I    between atoms: C_18  and  N_19 
REMARK    9  A    between atoms: N_19  and  N_20 
REMARK   10  A    between atoms: C_21  and  C_22 
REMARK   11  A    between atoms: C_30  and  C_31 
ROOT
HETATM    1  C   UNL     1      23.852  46.293  49.538  1.00  0.00     0.096 A 
HETATM    2  N   UNL     1      23.138  47.440  49.204  1.00  0.00    -0.215 N 
HETATM    3  N   UNL     1      23.765  48.518  49.746  1.00  0.00     0.012 NA
HETATM    4  N   UNL     1      24.881  48.125  50.335  1.00  0.00    -0.152 NA
HETATM    5  C   UNL     1      24.962  46.769  50.227  1.00  0.00     0.170 A 
ENDROOT
BRANCH   5   6
HETATM    6  C   UNL     1      26.078  45.980  50.734  1.00  0.00     0.293 C 
HETATM    7  N   UNL     1      26.012  45.707  52.086  1.00  0.00    -0.242 N 
HETATM    8  H   UNL     1      25.224  46.031  52.642  1.00  0.00     0.192 HD
HETATM    9  O   UNL     1      26.999  45.664  49.985  1.00  0.00    -0.264 OA
BRANCH   7  10
HETATM   10  N   UNL     1      27.067  45.090  52.684  1.00  0.00    -0.184 NA
HETATM   11  C   UNL     1      27.398  45.523  53.858  1.00  0.00     0.150 C 
BRANCH  11  12
HETATM   12  C   UNL     1      28.542  44.941  54.591  1.00  0.00    -0.016 A 
HETATM   13  C   UNL     1      28.948  45.530  55.790  1.00  0.00     0.032 A 
HETATM   14  C   UNL     1      30.039  44.994  56.473  1.00  0.00     0.011 A 
HETATM   15 BR   UNL     1      30.605  45.786  58.095  1.00  0.00    -0.051 Br
HETATM   16  C   UNL     1      30.719  43.881  55.975  1.00  0.00     0.019 A 
HETATM   17  C   UNL     1      30.306  43.296  54.778  1.00  0.00     0.002 A 
HETATM   18  C   UNL     1      29.218  43.825  54.084  1.00  0.00     0.013 A 
ENDBRANCH  11  12
ENDBRANCH   7  10
ENDBRANCH   5   6
BRANCH   1  19
HETATM   19  C   UNL     1      23.426  44.894  49.277  1.00  0.00     0.296 C 
BRANCH  19  20
HETATM   20  N   UNL     1      24.187  44.149  48.185  1.00  0.00    -0.066 N 
HETATM   21  H   UNL     1      24.969  44.758  47.916  1.00  0.00     0.280 HD
BRANCH  20  22
HETATM   22  C   UNL     1      23.291  43.953  46.963  1.00  0.00     0.235 C 
BRANCH  22  23
HETATM   23  C   UNL     1      23.232  42.494  46.515  1.00  0.00     0.023 C 
HETATM   24  C   UNL     1      23.803  42.265  45.124  1.00  0.00     0.007 C 
ENDBRANCH  22  23
ENDBRANCH  20  22
BRANCH  20  25
HETATM   25  C   UNL     1      24.745  42.819  48.672  1.00  0.00     0.235 C 
BRANCH  25  26
HETATM   26  C   UNL     1      24.643  42.644  50.187  1.00  0.00     0.023 C 
HETATM   27  C   UNL     1      25.935  42.181  50.842  1.00  0.00     0.007 C 
ENDBRANCH  25  26
ENDBRANCH  20  25
ENDBRANCH  19  20
ENDBRANCH   1  19
BRANCH   2  28
HETATM   28  C   UNL     1      21.986  47.563  48.393  1.00  0.00     0.225 A 
HETATM   29  N   UNL     1      22.036  47.197  47.110  1.00  0.00    -0.081 NA
HETATM   30  O   UNL     1      20.746  47.471  46.639  1.00  0.00    -0.103 OA
HETATM   31  N   UNL     1      19.955  48.021  47.637  1.00  0.00    -0.083 NA
HETATM   32  C   UNL     1      20.722  48.082  48.723  1.00  0.00     0.201 A 
BRANCH  32  33
HETATM   33  N   UNL     1      20.322  48.555  49.913  1.00  0.00    -0.379 N 
HETATM   34  H   UNL     1      20.220  49.556  50.061  1.00  0.00     0.158 HD
HETATM   35  H   UNL     1      20.225  47.986  50.752  1.00  0.00     0.158 HD
ENDBRANCH  32  33
ENDBRANCH   2  28
TORSDOF 11
ENDMDL
MODEL 6
REMARK VINA RESULT:      -7.5      2.591      4.047
REMARK  11 active torsions:
REMARK  status: ('A' for Active; 'I' for Inactive)
REMARK    1  A    between atoms: C_2  and  C_3 
REMARK    2  A    between atoms: C_3  and  N_4 
REMARK    3  A    between atoms: N_4  and  C_6 
REMARK    4  A    between atoms: N_4  and  C_30 
REMARK    5  A    between atoms: C_6  and  C_7 
REMARK    6  A    between atoms: N_8  and  C_9 
REMARK    7  A    between atoms: C_13  and  N_14 
REMARK    8  A    between atoms: C_17  and  C_18 
REMARK       I    between atoms: C_18  and  N_19 
REMARK    9  A    between atoms: N_19  and  N_20 
REMARK   10  A    between atoms: C_21  and  C_22 
REMARK   11  A    between atoms: C_30  and  C_31 
ROOT
HETATM    1  C   UNL     1      22.061  45.940  48.298  1.00  0.00     0.096 A 
HETATM    2  N   UNL     1      20.868  45.452  47.772  1.00  0.00    -0.215 N 
HETATM    3  N   UNL     1      20.830  44.105  47.951  1.00  0.00     0.012 NA
HETATM    4  N   UNL     1      21.895  43.724  48.636  1.00  0.00    -0.152 NA
HETATM    5  C   UNL     1      22.669  44.824  48.861  1.00  0.00     0.170 A 
ENDROOT
BRANCH   5   6
HETATM    6  C   UNL     1      23.915  44.798  49.616  1.00  0.00     0.293 C 
HETATM    7  N   UNL     1      23.751  44.630  50.977  1.00  0.00    -0.242 N 
HETATM    8  H   UNL     1      22.822  44.518  51.377  1.00  0.00     0.192 HD
HETATM    9  O   UNL     1      24.987  44.975  49.042  1.00  0.00    -0.264 OA
BRANCH   7  10
HETATM   10  N   UNL     1      24.841  44.721  51.787  1.00  0.00    -0.184 NA
HETATM   11  C   UNL     1      25.036  45.864  52.363  1.00  0.00     0.150 C 
BRANCH  11  12
HETATM   12  C   UNL     1      26.200  46.084  53.246  1.00  0.00    -0.016 A 
HETATM   13  C   UNL     1      27.094  45.034  53.463  1.00  0.00     0.032 A 
HETATM   14  C   UNL     1      28.184  45.234  54.310  1.00  0.00     0.011 A 
HETATM   15 BR   UNL     1      29.398  43.818  54.619  1.00  0.00    -0.051 Br
HETATM   16  C   UNL     1      28.387  46.466  54.934  1.00  0.00     0.019 A 
HETATM   17  C   UNL     1      27.492  47.512  54.711  1.00  0.00     0.002 A 
HETATM   18  C   UNL     1      26.397  47.322  53.868  1.00  0.00     0.013 A 
ENDBRANCH  11  12
ENDBRANCH   7  10
ENDBRANCH   5   6
BRANCH   1  19
HETATM   19  C   UNL     1      22.565  47.332  48.171  1.00  0.00     0.296 C 
BRANCH  19  20
HETATM   20  N   UNL     1      22.265  48.268  49.338  1.00  0.00    -0.066 N 
HETATM   21  H   UNL     1      22.028  47.664  50.135  1.00  0.00     0.280 HD
BRANCH  20  22
HETATM   22  C   UNL     1      21.049  49.134  49.015  1.00  0.00     0.235 C 
BRANCH  22  23
HETATM   23  C   UNL     1      21.439  50.484  48.416  1.00  0.00     0.023 C 
HETATM   24  C   UNL     1      20.365  51.549  48.576  1.00  0.00     0.007 C 
ENDBRANCH  22  23
ENDBRANCH  20  22
BRANCH  20  25
HETATM   25  C   UNL     1      23.464  49.129  49.713  1.00  0.00     0.235 C 
BRANCH  25  26
HETATM   26  C   UNL     1      24.778  48.619  49.119  1.00  0.00     0.023 C 
HETATM   27  C   UNL     1      25.607  49.698  48.440  1.00  0.00     0.007 C 
ENDBRANCH  25  26
ENDBRANCH  20  25
ENDBRANCH  19  20
ENDBRANCH   1  19
BRANCH   2  28
HETATM   28  C   UNL     1      19.796  46.169  47.191  1.00  0.00     0.225 A 
HETATM   29  N   UNL     1      20.040  47.058  46.225  1.00  0.00    -0.081 NA
HETATM   30  O   UNL     1      18.772  47.565  45.916  1.00  0.00    -0.103 OA
HETATM   31  N   UNL     1      17.795  46.994  46.719  1.00  0.00    -0.083 NA
HETATM   32  C   UNL     1      18.428  46.132  47.512  1.00  0.00     0.201 A 
BRANCH  32  33
HETATM   33  N   UNL     1      17.831  45.369  48.439  1.00  0.00    -0.379 N 
HETATM   34  H   UNL     1      17.091  45.753  49.023  1.00  0.00     0.158 HD
HETATM   35  H   UNL     1      18.147  44.439  48.706  1.00  0.00     0.158 HD
ENDBRANCH  32  33
ENDBRANCH   2  28
TORSDOF 11
ENDMDL
MODEL 7
REMARK VINA RESULT:      -7.5      2.077      4.065
REMARK  11 active torsions:
REMARK  status: ('A' for Active; 'I' for Inactive)
REMARK    1  A    between atoms: C_2  and  C_3 
REMARK    2  A    between atoms: C_3  and  N_4 
REMARK    3  A    between atoms: N_4  and  C_6 
REMARK    4  A    between atoms: N_4  and  C_30 
REMARK    5  A    between atoms: C_6  and  C_7 
REMARK    6  A    between atoms: N_8  and  C_9 
REMARK    7  A    between atoms: C_13  and  N_14 
REMARK    8  A    between atoms: C_17  and  C_18 
REMARK       I    between atoms: C_18  and  N_19 
REMARK    9  A    between atoms: N_19  and  N_20 
REMARK   10  A    between atoms: C_21  and  C_22 
REMARK   11  A    between atoms: C_30  and  C_31 
ROOT
HETATM    1  C   UNL     1      23.801  46.385  49.350  1.00  0.00     0.096 A 
HETATM    2  N   UNL     1      22.712  46.959  48.701  1.00  0.00    -0.215 N 
HETATM    3  N   UNL     1      22.606  48.258  49.091  1.00  0.00     0.012 NA
HETATM    4  N   UNL     1      23.617  48.560  49.887  1.00  0.00    -0.152 NA
HETATM    5  C   UNL     1      24.365  47.434  50.066  1.00  0.00     0.170 A 
ENDROOT
BRANCH   5   6
HETATM    6  C   UNL     1      25.585  47.390  50.863  1.00  0.00     0.293 C 
HETATM    7  N   UNL     1      25.426  46.825  52.113  1.00  0.00    -0.242 N 
HETATM    8  H   UNL     1      24.522  46.465  52.408  1.00  0.00     0.192 HD
HETATM    9  O   UNL     1      26.623  47.882  50.427  1.00  0.00    -0.264 OA
BRANCH   7  10
HETATM   10  N   UNL     1      26.472  46.853  52.985  1.00  0.00    -0.184 NA
HETATM   11  C   UNL     1      26.616  45.815  53.744  1.00  0.00     0.150 C 
BRANCH  11  12
HETATM   12  C   UNL     1      27.703  45.747  54.743  1.00  0.00    -0.016 A 
HETATM   13  C   UNL     1      28.661  44.737  54.634  1.00  0.00     0.032 A 
HETATM   14  C   UNL     1      29.677  44.660  55.586  1.00  0.00     0.011 A 
HETATM   15 BR   UNL     1      30.977  43.293  55.455  1.00  0.00    -0.051 Br
HETATM   16  C   UNL     1      29.745  45.578  56.635  1.00  0.00     0.019 A 
HETATM   17  C   UNL     1      28.787  46.586  56.737  1.00  0.00     0.002 A 
HETATM   18  C   UNL     1      27.764  46.671  55.792  1.00  0.00     0.013 A 
ENDBRANCH  11  12
ENDBRANCH   7  10
ENDBRANCH   5   6
BRANCH   1  19
HETATM   19  C   UNL     1      24.172  44.946  49.324  1.00  0.00     0.296 C 
BRANCH  19  20
HETATM   20  N   UNL     1      23.699  44.106  50.506  1.00  0.00    -0.066 N 
HETATM   21  H   UNL     1      23.198  44.749  51.132  1.00  0.00     0.280 HD
BRANCH  20  22
HETATM   22  C   UNL     1      24.900  43.542  51.262  1.00  0.00     0.235 C 
BRANCH  22  23
HETATM   23  C   UNL     1      26.206  43.714  50.488  1.00  0.00     0.023 C 
HETATM   24  C   UNL     1      27.410  43.106  51.192  1.00  0.00     0.007 C 
ENDBRANCH  22  23
ENDBRANCH  20  22
BRANCH  20  25
HETATM   25  C   UNL     1      22.749  42.994  50.084  1.00  0.00     0.235 C 
BRANCH  25  26
HETATM   26  C   UNL     1      22.951  42.551  48.634  1.00  0.00     0.023 C 
HETATM   27  C   UNL     1      23.828  41.318  48.483  1.00  0.00     0.007 C 
ENDBRANCH  25  26
ENDBRANCH  20  25
ENDBRANCH  19  20
ENDBRANCH   1  19
BRANCH   2  28
HETATM   28  C   UNL     1      21.848  46.385  47.740  1.00  0.00     0.225 A 
HETATM   29  N   UNL     1      22.109  46.536  46.439  1.00  0.00    -0.081 NA
HETATM   30  O   UNL     1      21.056  45.862  45.811  1.00  0.00    -0.103 OA
HETATM   31  N   UNL     1      20.167  45.343  46.742  1.00  0.00    -0.083 NA
HETATM   32  C   UNL     1      20.655  45.668  47.937  1.00  0.00     0.201 A 
BRANCH  32  33
HETATM   33  N   UNL     1      20.084  45.345  49.107  1.00  0.00    -0.379 N 
HETATM   34  H   UNL     1      20.493  44.625  49.698  1.00  0.00     0.158 HD
HETATM   35  H   UNL     1      19.174  45.684  49.413  1.00  0.00     0.158 HD
ENDBRANCH  32  33
ENDBRANCH   2  28
TORSDOF 11
ENDMDL
MODEL 8
REMARK VINA RESULT:      -7.4      3.597      8.298
REMARK  11 active torsions:
REMARK  status: ('A' for Active; 'I' for Inactive)
REMARK    1  A    between atoms: C_2  and  C_3 
REMARK    2  A    between atoms: C_3  and  N_4 
REMARK    3  A    between atoms: N_4  and  C_6 
REMARK    4  A    between atoms: N_4  and  C_30 
REMARK    5  A    between atoms: C_6  and  C_7 
REMARK    6  A    between atoms: N_8  and  C_9 
REMARK    7  A    between atoms: C_13  and  N_14 
REMARK    8  A    between atoms: C_17  and  C_18 
REMARK       I    between atoms: C_18  and  N_19 
REMARK    9  A    between atoms: N_19  and  N_20 
REMARK   10  A    between atoms: C_21  and  C_22 
REMARK   11  A    between atoms: C_30  and  C_31 
ROOT
HETATM    1  C   UNL     1      25.383  43.841  51.733  1.00  0.00     0.096 A 
HETATM    2  N   UNL     1      26.445  42.941  51.741  1.00  0.00    -0.215 N 
HETATM    3  N   UNL     1      26.275  42.055  50.724  1.00  0.00     0.012 NA
HETATM    4  N   UNL     1      25.207  42.394  50.022  1.00  0.00    -0.152 NA
HETATM    5  C   UNL     1      24.639  43.482  50.615  1.00  0.00     0.170 A 
ENDROOT
BRANCH   5   6
HETATM    6  C   UNL     1      23.455  44.159  50.102  1.00  0.00     0.293 C 
HETATM    7  N   UNL     1      23.728  45.242  49.289  1.00  0.00    -0.242 N 
HETATM    8  H   UNL     1      24.688  45.500  49.076  1.00  0.00     0.192 HD
HETATM    9  O   UNL     1      22.335  43.788  50.446  1.00  0.00    -0.264 OA
BRANCH   7  10
HETATM   10  N   UNL     1      22.696  46.022  48.864  1.00  0.00    -0.184 NA
HETATM   11  C   UNL     1      22.892  47.301  48.891  1.00  0.00     0.150 C 
BRANCH  11  12
HETATM   12  C   UNL     1      21.833  48.243  48.473  1.00  0.00    -0.016 A 
HETATM   13  C   UNL     1      20.498  47.845  48.564  1.00  0.00     0.032 A 
HETATM   14  C   UNL     1      19.498  48.727  48.153  1.00  0.00     0.011 A 
HETATM   15 BR   UNL     1      17.685  48.199  48.264  1.00  0.00    -0.051 Br
HETATM   16  C   UNL     1      19.819  49.992  47.660  1.00  0.00     0.019 A 
HETATM   17  C   UNL     1      21.154  50.384  47.574  1.00  0.00     0.002 A 
HETATM   18  C   UNL     1      22.163  49.511  47.979  1.00  0.00     0.013 A 
ENDBRANCH  11  12
ENDBRANCH   7  10
ENDBRANCH   5   6
BRANCH   1  19
HETATM   19  C   UNL     1      25.104  44.870  52.768  1.00  0.00     0.296 C 
BRANCH  19  20
HETATM   20  N   UNL     1      25.993  46.109  52.744  1.00  0.00    -0.066 N 
HETATM   21  H   UNL     1      26.939  45.778  52.518  1.00  0.00     0.280 HD
BRANCH  20  22
HETATM   22  C   UNL     1      26.030  46.755  54.128  1.00  0.00     0.235 C 
BRANCH  22  23
HETATM   23  C   UNL     1      27.371  47.425  54.421  1.00  0.00     0.023 C 
HETATM   24  C   UNL     1      28.291  46.580  55.289  1.00  0.00     0.007 C 
ENDBRANCH  22  23
ENDBRANCH  20  22
BRANCH  20  25
HETATM   25  C   UNL     1      25.559  47.113  51.685  1.00  0.00     0.235 C 
BRANCH  25  26
HETATM   26  C   UNL     1      26.477  47.130  50.462  1.00  0.00     0.023 C 
HETATM   27  C   UNL     1      26.291  48.346  49.569  1.00  0.00     0.007 C 
ENDBRANCH  25  26
ENDBRANCH  20  25
ENDBRANCH  19  20
ENDBRANCH   1  19
BRANCH   2  28
HETATM   28  C   UNL     1      27.580  42.916  52.584  1.00  0.00     0.225 A 
HETATM   29  N   UNL     1      28.358  43.997  52.682  1.00  0.00    -0.081 NA
HETATM   30  O   UNL     1      29.363  43.601  53.572  1.00  0.00    -0.103 OA
HETATM   31  N   UNL     1      29.188  42.283  53.970  1.00  0.00    -0.083 NA
HETATM   32  C   UNL     1      28.086  41.856  53.357  1.00  0.00     0.201 A 
BRANCH  32  33
HETATM   33  N   UNL     1      27.572  40.624  53.484  1.00  0.00    -0.379 N 
HETATM   34  H   UNL     1      27.156  40.327  54.363  1.00  0.00     0.158 HD
HETATM   35  H   UNL     1      27.673  39.887  52.788  1.00  0.00     0.158 HD
ENDBRANCH  32  33
ENDBRANCH   2  28
TORSDOF 11
ENDMDL
MODEL 9
REMARK VINA RESULT:      -7.4     11.751     13.509
REMARK  11 active torsions:
REMARK  status: ('A' for Active; 'I' for Inactive)
REMARK    1  A    between atoms: C_2  and  C_3 
REMARK    2  A    between atoms: C_3  and  N_4 
REMARK    3  A    between atoms: N_4  and  C_6 
REMARK    4  A    between atoms: N_4  and  C_30 
REMARK    5  A    between atoms: C_6  and  C_7 
REMARK    6  A    between atoms: N_8  and  C_9 
REMARK    7  A    between atoms: C_13  and  N_14 
REMARK    8  A    between atoms: C_17  and  C_18 
REMARK       I    between atoms: C_18  and  N_19 
REMARK    9  A    between atoms: N_19  and  N_20 
REMARK   10  A    between atoms: C_21  and  C_22 
REMARK   11  A    between atoms: C_30  and  C_31 
ROOT
HETATM    1  C   UNL     1      30.638  50.706  42.126  1.00  0.00     0.096 A 
HETATM    2  N   UNL     1      30.111  49.498  41.677  1.00  0.00    -0.215 N 
HETATM    3  N   UNL     1      30.917  48.487  42.097  1.00  0.00     0.012 NA
HETATM    4  N   UNL     1      31.879  48.980  42.857  1.00  0.00    -0.152 NA
HETATM    5  C   UNL     1      31.737  50.336  42.892  1.00  0.00     0.170 A 
ENDROOT
BRANCH   5   6
HETATM    6  C   UNL     1      32.603  51.222  43.660  1.00  0.00     0.293 C 
HETATM    7  N   UNL     1      33.769  51.579  43.013  1.00  0.00    -0.242 N 
HETATM    8  H   UNL     1      33.961  51.245  42.071  1.00  0.00     0.192 HD
HETATM    9  O   UNL     1      32.294  51.542  44.806  1.00  0.00    -0.264 OA
BRANCH   7  10
HETATM   10  N   UNL     1      34.705  52.296  43.691  1.00  0.00    -0.184 NA
HETATM   11  C   UNL     1      35.937  51.935  43.529  1.00  0.00     0.150 C 
BRANCH  11  12
HETATM   12  C   UNL     1      37.035  52.628  44.234  1.00  0.00    -0.016 A 
HETATM   13  C   UNL     1      38.196  51.918  44.545  1.00  0.00     0.032 A 
HETATM   14  C   UNL     1      39.226  52.566  45.226  1.00  0.00     0.011 A 
HETATM   15 BR   UNL     1      40.802  51.615  45.660  1.00  0.00    -0.051 Br
HETATM   16  C   UNL     1      39.107  53.907  45.595  1.00  0.00     0.019 A 
HETATM   17  C   UNL     1      37.945  54.611  45.280  1.00  0.00     0.002 A 
HETATM   18  C   UNL     1      36.907  53.973  44.601  1.00  0.00     0.013 A 
ENDBRANCH  11  12
ENDBRANCH   7  10
ENDBRANCH   5   6
BRANCH   1  19
HETATM   19  C   UNL     1      30.151  52.061  41.757  1.00  0.00     0.296 C 
BRANCH  19  20
HETATM   20  N   UNL     1      30.416  52.505  40.322  1.00  0.00    -0.066 N 
HETATM   21  H   UNL     1      30.295  51.669  39.737  1.00  0.00     0.280 HD
BRANCH  20  22
HETATM   22  C   UNL     1      31.860  52.983  40.180  1.00  0.00     0.235 C 
BRANCH  22  23
HETATM   23  C   UNL     1      32.700  52.046  39.313  1.00  0.00     0.023 C 
HETATM   24  C   UNL     1      31.865  51.112  38.450  1.00  0.00     0.007 C 
ENDBRANCH  22  23
ENDBRANCH  20  22
BRANCH  20  25
HETATM   25  C   UNL     1      29.439  53.576  39.858  1.00  0.00     0.235 C 
BRANCH  25  26
HETATM   26  C   UNL     1      28.845  53.289  38.478  1.00  0.00     0.023 C 
HETATM   27  C   UNL     1      28.158  51.936  38.373  1.00  0.00     0.007 C 
ENDBRANCH  25  26
ENDBRANCH  20  25
ENDBRANCH  19  20
ENDBRANCH   1  19
BRANCH   2  28
HETATM   28  C   UNL     1      28.916  49.266  40.958  1.00  0.00     0.225 A 
HETATM   29  N   UNL     1      27.744  49.633  41.481  1.00  0.00    -0.081 NA
HETATM   30  O   UNL     1      26.812  49.237  40.514  1.00  0.00    -0.103 OA
HETATM   31  N   UNL     1      27.436  48.615  39.443  1.00  0.00    -0.083 NA
HETATM   32  C   UNL     1      28.739  48.629  39.717  1.00  0.00     0.201 A 
BRANCH  32  33
HETATM   33  N   UNL     1      29.691  48.121  38.920  1.00  0.00    -0.379 N 
HETATM   34  H   UNL     1      30.614  48.548  38.883  1.00  0.00     0.158 HD
HETATM   35  H   UNL     1      29.530  47.390  38.230  1.00  0.00     0.158 HD
ENDBRANCH  32  33
ENDBRANCH   2  28
TORSDOF 11
ENDMDL
MODEL 10
REMARK VINA RESULT:      -7.3      4.632      9.543
REMARK  11 active torsions:
REMARK  status: ('A' for Active; 'I' for Inactive)
REMARK    1  A    between atoms: C_2  and  C_3 
REMARK    2  A    between atoms: C_3  and  N_4 
REMARK    3  A    between atoms: N_4  and  C_6 
REMARK    4  A    between atoms: N_4  and  C_30 
REMARK    5  A    between atoms: C_6  and  C_7 
REMARK    6  A    between atoms: N_8  and  C_9 
REMARK    7  A    between atoms: C_13  and  N_14 
REMARK    8  A    between atoms: C_17  and  C_18 
REMARK       I    between atoms: C_18  and  N_19 
REMARK    9  A    between atoms: N_19  and  N_20 
REMARK   10  A    between atoms: C_21  and  C_22 
REMARK   11  A    between atoms: C_30  and  C_31 
ROOT
HETATM    1  C   UNL     1      24.361  46.522  49.424  1.00  0.00     0.096 A 
HETATM    2  N   UNL     1      25.531  46.391  50.166  1.00  0.00    -0.215 N 
HETATM    3  N   UNL     1      26.011  47.631  50.448  1.00  0.00     0.012 NA
HETATM    4  N   UNL     1      25.165  48.541  49.996  1.00  0.00    -0.152 NA
HETATM    5  C   UNL     1      24.146  47.894  49.363  1.00  0.00     0.170 A 
ENDROOT
BRANCH   5   6
HETATM    6  C   UNL     1      23.004  48.571  48.763  1.00  0.00     0.293 C 
HETATM    7  N   UNL     1      21.871  48.585  49.553  1.00  0.00    -0.242 N 
HETATM    8  H   UNL     1      21.881  48.162  50.478  1.00  0.00     0.192 HD
HETATM    9  O   UNL     1      23.085  49.022  47.622  1.00  0.00    -0.264 OA
BRANCH   7  10
HETATM   10  N   UNL     1      20.713  49.077  49.034  1.00  0.00    -0.184 NA
HETATM   11  C   UNL     1      19.712  49.172  49.848  1.00  0.00     0.150 C 
BRANCH  11  12
HETATM   12  C   UNL     1      18.400  49.672  49.388  1.00  0.00    -0.016 A 
HETATM   13  C   UNL     1      17.973  50.935  49.800  1.00  0.00     0.032 A 
HETATM   14  C   UNL     1      16.727  51.401  49.382  1.00  0.00     0.011 A 
HETATM   15 BR   UNL     1      16.133  53.108  49.939  1.00  0.00    -0.051 Br
HETATM   16  C   UNL     1      15.913  50.623  48.558  1.00  0.00     0.019 A 
HETATM   17  C   UNL     1      16.345  49.362  48.147  1.00  0.00     0.002 A 
HETATM   18  C   UNL     1      17.588  48.885  48.562  1.00  0.00     0.013 A 
ENDBRANCH  11  12
ENDBRANCH   7  10
ENDBRANCH   5   6
BRANCH   1  19
HETATM   19  C   UNL     1      23.607  45.414  48.782  1.00  0.00     0.296 C 
BRANCH  19  20
HETATM   20  N   UNL     1      22.376  44.913  49.531  1.00  0.00    -0.066 N 
HETATM   21  H   UNL     1      22.276  45.519  50.355  1.00  0.00     0.280 HD
BRANCH  20  22
HETATM   22  C   UNL     1      22.603  43.482  50.015  1.00  0.00     0.235 C 
BRANCH  22  23
HETATM   23  C   UNL     1      23.662  42.751  49.190  1.00  0.00     0.023 C 
HETATM   24  C   UNL     1      23.113  41.557  48.424  1.00  0.00     0.007 C 
ENDBRANCH  22  23
ENDBRANCH  20  22
BRANCH  20  25
HETATM   25  C   UNL     1      21.108  45.011  48.694  1.00  0.00     0.235 C 
BRANCH  25  26
HETATM   26  C   UNL     1      21.357  45.566  47.291  1.00  0.00     0.023 C 
HETATM   27  C   UNL     1      20.199  46.381  46.736  1.00  0.00     0.007 C 
ENDBRANCH  25  26
ENDBRANCH  20  25
ENDBRANCH  19  20
ENDBRANCH   1  19
BRANCH   2  28
HETATM   28  C   UNL     1      26.152  45.212  50.643  1.00  0.00     0.225 A 
HETATM   29  N   UNL     1      27.102  44.622  49.914  1.00  0.00    -0.081 NA
HETATM   30  O   UNL     1      27.460  43.507  50.680  1.00  0.00    -0.103 OA
HETATM   31  N   UNL     1      26.699  43.430  51.838  1.00  0.00    -0.083 NA
HETATM   32  C   UNL     1      25.887  44.484  51.815  1.00  0.00     0.201 A 
BRANCH  32  33
HETATM   33  N   UNL     1      24.988  44.774  52.767  1.00  0.00    -0.379 N 
HETATM   34  H   UNL     1      24.279  45.486  52.607  1.00  0.00     0.158 HD
HETATM   35  H   UNL     1      25.028  44.417  53.720  1.00  0.00     0.158 HD
ENDBRANCH  32  33
ENDBRANCH   2  28
TORSDOF 11
ENDMDL
