MODEL 1
REMARK VINA RESULT:      -9.2      0.000      0.000
REMARK  8 active torsions:
REMARK  status: ('A' for Active; 'I' for Inactive)
REMARK    1  A    between atoms: O_2  and  C_3 
REMARK    2  A    between atoms: C_3  and  C_4 
REMARK    3  A    between atoms: C_7  and  C_8 
REMARK    4  A    between atoms: C_8  and  N_9 
REMARK    5  A    between atoms: C_18  and  C_19 
REMARK    6  A    between atoms: C_19  and  N_20 
REMARK    7  A    between atoms: C_24  and  O_25 
REMARK    8  A    between atoms: C_24  and  C_26 
ROOT
HETATM    1  N   UNL     1      25.352  46.529  50.477  1.00  0.00    -0.061 N 
HETATM    2  H   UNL     1      25.362  45.510  50.601  1.00  0.00     0.280 HD
HETATM    3  C   UNL     1      24.230  46.777  49.493  1.00  0.00     0.276 C 
HETATM    4  C   UNL     1      23.872  48.219  49.264  1.00  0.00     0.002 A 
HETATM    5  C   UNL     1      24.815  49.108  48.749  1.00  0.00     0.076 A 
HETATM    6  O   UNL     1      26.060  48.681  48.382  1.00  0.00    -0.349 OA
HETATM    7  C   UNL     1      26.875  48.339  49.509  1.00  0.00     0.203 C 
HETATM    8  C   UNL     1      26.720  46.863  49.894  1.00  0.00     0.262 C 
HETATM    9  C   UNL     1      22.567  48.689  49.501  1.00  0.00     0.020 A 
HETATM   10  C   UNL     1      22.210  50.028  49.246  1.00  0.00    -0.032 A 
HETATM   11  C   UNL     1      23.191  50.901  48.757  1.00  0.00     0.011 A 
HETATM   12  C   UNL     1      24.481  50.435  48.488  1.00  0.00     0.038 A 
ENDROOT
BRANCH  10  13
HETATM   13  C   UNL     1      20.795  50.500  49.491  1.00  0.00     0.273 C 
BRANCH  13  14
HETATM   14  N   UNL     1      19.704  49.695  48.801  1.00  0.00    -0.067 N 
HETATM   15  H   UNL     1      18.892  50.319  48.712  1.00  0.00     0.280 HD
HETATM   16  C   UNL     1      20.077  49.249  47.405  1.00  0.00     0.238 C 
HETATM   17  C   UNL     1      18.916  48.492  46.787  1.00  0.00     0.071 C 
HETATM   18  C   UNL     1      18.559  47.231  47.599  1.00  0.00     0.089 C 
HETATM   19  C   UNL     1      18.184  47.716  49.014  1.00  0.00     0.071 C 
HETATM   20  C   UNL     1      19.283  48.533  49.679  1.00  0.00     0.238 C 
BRANCH  18  21
HETATM   21  O   UNL     1      17.361  46.709  47.026  1.00  0.00    -0.385 OA
HETATM   22  H   UNL     1      17.575  46.052  46.335  1.00  0.00     0.211 HD
ENDBRANCH  18  21
BRANCH  18  23
HETATM   23  C   UNL     1      19.638  46.158  47.515  1.00  0.00    -0.006 A 
HETATM   24  C   UNL     1      20.015  45.365  48.597  1.00  0.00     0.126 A 
HETATM   25  N   UNL     1      21.019  44.461  48.576  1.00  0.00    -0.272 NA
HETATM   26  C   UNL     1      21.643  44.254  47.399  1.00  0.00     0.116 A 
HETATM   27  C   UNL     1      21.313  44.931  46.243  1.00  0.00     0.020 A 
HETATM   28  C   UNL     1      20.299  45.886  46.304  1.00  0.00     0.013 A 
ENDBRANCH  18  23
ENDBRANCH  13  14
ENDBRANCH  10  13
BRANCH   1  29
HETATM   29  C   UNL     1      25.156  47.085  51.873  1.00  0.00     0.273 C 
BRANCH  29  30
HETATM   30  C   UNL     1      26.171  46.638  52.895  1.00  0.00    -0.033 A 
HETATM   31  C   UNL     1      26.690  47.523  53.850  1.00  0.00     0.010 A 
HETATM   32  C   UNL     1      27.650  47.086  54.769  1.00  0.00     0.018 A 
HETATM   33  C   UNL     1      28.091  45.757  54.765  1.00  0.00     0.039 A 
HETATM   34  C   UNL     1      27.548  44.861  53.837  1.00  0.00     0.018 A 
HETATM   35  C   UNL     1      26.595  45.298  52.914  1.00  0.00     0.010 A 
BRANCH  33  36
HETATM   36  C   UNL     1      29.131  45.353  55.752  1.00  0.00     0.292 C 
HETATM   37  O   UNL     1      29.973  44.505  55.517  1.00  0.00    -0.259 OA
BRANCH  36  38
HETATM   38  O   UNL     1      28.968  46.026  56.918  1.00  0.00    -0.323 OA
HETATM   39  C   UNL     1      30.091  45.934  57.800  1.00  0.00     0.213 C 
ENDBRANCH  36  38
ENDBRANCH  33  36
ENDBRANCH  29  30
ENDBRANCH   1  29
TORSDOF 8
ENDMDL
MODEL 2
REMARK VINA RESULT:      -9.1      2.348      4.017
REMARK  8 active torsions:
REMARK  status: ('A' for Active; 'I' for Inactive)
REMARK    1  A    between atoms: O_2  and  C_3 
REMARK    2  A    between atoms: C_3  and  C_4 
REMARK    3  A    between atoms: C_7  and  C_8 
REMARK    4  A    between atoms: C_8  and  N_9 
REMARK    5  A    between atoms: C_18  and  C_19 
REMARK    6  A    between atoms: C_19  and  N_20 
REMARK    7  A    between atoms: C_24  and  O_25 
REMARK    8  A    between atoms: C_24  and  C_26 
ROOT
HETATM    1  N   UNL     1      25.287  46.571  50.422  1.00  0.00    -0.061 N 
HETATM    2  H   UNL     1      25.280  45.550  50.525  1.00  0.00     0.280 HD
HETATM    3  C   UNL     1      24.168  46.859  49.445  1.00  0.00     0.276 C 
HETATM    4  C   UNL     1      23.835  48.310  49.246  1.00  0.00     0.002 A 
HETATM    5  C   UNL     1      24.792  49.194  48.749  1.00  0.00     0.076 A 
HETATM    6  O   UNL     1      26.030  48.754  48.372  1.00  0.00    -0.349 OA
HETATM    7  C   UNL     1      26.839  48.375  49.490  1.00  0.00     0.203 C 
HETATM    8  C   UNL     1      26.659  46.894  49.846  1.00  0.00     0.262 C 
HETATM    9  C   UNL     1      22.538  48.797  49.494  1.00  0.00     0.020 A 
HETATM   10  C   UNL     1      22.203  50.148  49.267  1.00  0.00    -0.032 A 
HETATM   11  C   UNL     1      23.199  51.014  48.795  1.00  0.00     0.011 A 
HETATM   12  C   UNL     1      24.480  50.532  48.515  1.00  0.00     0.038 A 
ENDROOT
BRANCH  10  13
HETATM   13  C   UNL     1      20.796  50.638  49.523  1.00  0.00     0.273 C 
BRANCH  13  14
HETATM   14  N   UNL     1      19.712  50.001  48.669  1.00  0.00    -0.067 N 
HETATM   15  H   UNL     1      20.095  49.110  48.325  1.00  0.00     0.280 HD
HETATM   16  C   UNL     1      18.452  49.674  49.439  1.00  0.00     0.238 C 
HETATM   17  C   UNL     1      17.450  49.008  48.514  1.00  0.00     0.071 C 
HETATM   18  C   UNL     1      17.053  49.930  47.344  1.00  0.00     0.089 C 
HETATM   19  C   UNL     1      18.355  50.245  46.578  1.00  0.00     0.071 C 
HETATM   20  C   UNL     1      19.431  50.866  47.457  1.00  0.00     0.238 C 
BRANCH  18  21
HETATM   21  O   UNL     1      16.254  49.141  46.462  1.00  0.00    -0.385 OA
HETATM   22  H   UNL     1      16.729  48.323  46.217  1.00  0.00     0.211 HD
ENDBRANCH  18  21
BRANCH  18  23
HETATM   23  C   UNL     1      16.227  51.128  47.797  1.00  0.00    -0.006 A 
HETATM   24  C   UNL     1      15.677  52.056  46.916  1.00  0.00     0.126 A 
HETATM   25  N   UNL     1      15.008  53.168  47.289  1.00  0.00    -0.272 NA
HETATM   26  C   UNL     1      14.785  53.346  48.607  1.00  0.00     0.116 A 
HETATM   27  C   UNL     1      15.223  52.460  49.570  1.00  0.00     0.020 A 
HETATM   28  C   UNL     1      15.945  51.342  49.158  1.00  0.00     0.013 A 
ENDBRANCH  18  23
ENDBRANCH  13  14
ENDBRANCH  10  13
BRANCH   1  29
HETATM   29  C   UNL     1      25.101  47.102  51.830  1.00  0.00     0.273 C 
BRANCH  29  30
HETATM   30  C   UNL     1      26.119  46.630  52.838  1.00  0.00    -0.033 A 
HETATM   31  C   UNL     1      26.669  47.502  53.789  1.00  0.00     0.010 A 
HETATM   32  C   UNL     1      27.631  47.041  54.695  1.00  0.00     0.018 A 
HETATM   33  C   UNL     1      28.043  45.703  54.681  1.00  0.00     0.039 A 
HETATM   34  C   UNL     1      27.469  44.822  53.758  1.00  0.00     0.018 A 
HETATM   35  C   UNL     1      26.514  45.282  52.848  1.00  0.00     0.010 A 
BRANCH  33  36
HETATM   36  C   UNL     1      29.086  45.275  55.654  1.00  0.00     0.292 C 
HETATM   37  O   UNL     1      29.324  45.885  56.681  1.00  0.00    -0.259 OA
BRANCH  36  38
HETATM   38  O   UNL     1      29.729  44.167  55.208  1.00  0.00    -0.323 OA
HETATM   39  C   UNL     1      30.916  43.853  55.943  1.00  0.00     0.213 C 
ENDBRANCH  36  38
ENDBRANCH  33  36
ENDBRANCH  29  30
ENDBRANCH   1  29
TORSDOF 8
ENDMDL
MODEL 3
REMARK VINA RESULT:      -8.9      3.840      7.053
REMARK  8 active torsions:
REMARK  status: ('A' for Active; 'I' for Inactive)
REMARK    1  A    between atoms: O_2  and  C_3 
REMARK    2  A    between atoms: C_3  and  C_4 
REMARK    3  A    between atoms: C_7  and  C_8 
REMARK    4  A    between atoms: C_8  and  N_9 
REMARK    5  A    between atoms: C_18  and  C_19 
REMARK    6  A    between atoms: C_19  and  N_20 
REMARK    7  A    between atoms: C_24  and  O_25 
REMARK    8  A    between atoms: C_24  and  C_26 
ROOT
HETATM    1  N   UNL     1      28.111  40.507  51.821  1.00  0.00    -0.061 N 
HETATM    2  H   UNL     1      28.159  40.390  52.839  1.00  0.00     0.280 HD
HETATM    3  C   UNL     1      26.631  40.465  51.507  1.00  0.00     0.276 C 
HETATM    4  C   UNL     1      26.256  40.793  50.090  1.00  0.00     0.002 A 
HETATM    5  C   UNL     1      26.726  40.011  49.035  1.00  0.00     0.076 A 
HETATM    6  O   UNL     1      27.481  38.895  49.266  1.00  0.00    -0.349 OA
HETATM    7  C   UNL     1      28.799  39.213  49.727  1.00  0.00     0.203 C 
HETATM    8  C   UNL     1      28.858  39.306  51.256  1.00  0.00     0.262 C 
HETATM    9  C   UNL     1      25.377  41.853  49.798  1.00  0.00     0.020 A 
HETATM   10  C   UNL     1      24.983  42.139  48.475  1.00  0.00    -0.032 A 
HETATM   11  C   UNL     1      25.498  41.351  47.437  1.00  0.00     0.011 A 
HETATM   12  C   UNL     1      26.347  40.277  47.721  1.00  0.00     0.038 A 
ENDROOT
BRANCH  10  13
HETATM   13  C   UNL     1      24.021  43.272  48.195  1.00  0.00     0.273 C 
BRANCH  13  14
HETATM   14  N   UNL     1      24.497  44.656  48.607  1.00  0.00    -0.067 N 
HETATM   15  H   UNL     1      24.530  45.222  47.749  1.00  0.00     0.280 HD
HETATM   16  C   UNL     1      23.557  45.355  49.564  1.00  0.00     0.238 C 
HETATM   17  C   UNL     1      24.095  46.738  49.883  1.00  0.00     0.071 C 
HETATM   18  C   UNL     1      25.479  46.671  50.557  1.00  0.00     0.089 C 
HETATM   19  C   UNL     1      26.414  45.955  49.560  1.00  0.00     0.071 C 
HETATM   20  C   UNL     1      25.910  44.579  49.149  1.00  0.00     0.238 C 
BRANCH  18  21
HETATM   21  O   UNL     1      25.949  48.016  50.648  1.00  0.00    -0.385 OA
HETATM   22  H   UNL     1      26.900  48.057  50.428  1.00  0.00     0.211 HD
ENDBRANCH  18  21
BRANCH  18  23
HETATM   23  C   UNL     1      25.417  46.089  51.965  1.00  0.00    -0.006 A 
HETATM   24  C   UNL     1      24.944  44.809  52.244  1.00  0.00     0.126 A 
HETATM   25  N   UNL     1      24.803  44.294  53.484  1.00  0.00    -0.272 NA
HETATM   26  C   UNL     1      25.230  45.044  54.520  1.00  0.00     0.116 A 
HETATM   27  C   UNL     1      25.778  46.301  54.363  1.00  0.00     0.020 A 
HETATM   28  C   UNL     1      25.875  46.822  53.074  1.00  0.00     0.013 A 
ENDBRANCH  18  23
ENDBRANCH  13  14
ENDBRANCH  10  13
BRANCH   1  29
HETATM   29  C   UNL     1      28.817  41.820  51.549  1.00  0.00     0.273 C 
BRANCH  29  30
HETATM   30  C   UNL     1      29.152  42.639  52.770  1.00  0.00    -0.033 A 
HETATM   31  C   UNL     1      28.349  43.715  53.174  1.00  0.00     0.010 A 
HETATM   32  C   UNL     1      28.699  44.473  54.297  1.00  0.00     0.018 A 
HETATM   33  C   UNL     1      29.841  44.160  55.044  1.00  0.00     0.039 A 
HETATM   34  C   UNL     1      30.625  43.064  54.665  1.00  0.00     0.018 A 
HETATM   35  C   UNL     1      30.280  42.310  53.540  1.00  0.00     0.010 A 
BRANCH  33  36
HETATM   36  C   UNL     1      30.177  45.016  56.215  1.00  0.00     0.292 C 
HETATM   37  O   UNL     1      29.854  46.189  56.293  1.00  0.00    -0.259 OA
BRANCH  36  38
HETATM   38  O   UNL     1      30.904  44.319  57.123  1.00  0.00    -0.323 OA
HETATM   39  C   UNL     1      31.164  45.040  58.331  1.00  0.00     0.213 C 
ENDBRANCH  36  38
ENDBRANCH  33  36
ENDBRANCH  29  30
ENDBRANCH   1  29
TORSDOF 8
ENDMDL
MODEL 4
REMARK VINA RESULT:      -8.9      3.317      5.344
REMARK  8 active torsions:
REMARK  status: ('A' for Active; 'I' for Inactive)
REMARK    1  A    between atoms: O_2  and  C_3 
REMARK    2  A    between atoms: C_3  and  C_4 
REMARK    3  A    between atoms: C_7  and  C_8 
REMARK    4  A    between atoms: C_8  and  N_9 
REMARK    5  A    between atoms: C_18  and  C_19 
REMARK    6  A    between atoms: C_19  and  N_20 
REMARK    7  A    between atoms: C_24  and  O_25 
REMARK    8  A    between atoms: C_24  and  C_26 
ROOT
HETATM    1  N   UNL     1      27.756  41.213  51.345  1.00  0.00    -0.061 N 
HETATM    2  H   UNL     1      28.119  40.816  52.219  1.00  0.00     0.280 HD
HETATM    3  C   UNL     1      26.262  40.987  51.420  1.00  0.00     0.276 C 
HETATM    4  C   UNL     1      25.450  41.638  50.336  1.00  0.00     0.002 A 
HETATM    5  C   UNL     1      25.655  41.300  48.998  1.00  0.00     0.076 A 
HETATM    6  O   UNL     1      26.550  40.329  48.646  1.00  0.00    -0.349 OA
HETATM    7  C   UNL     1      27.908  40.740  48.838  1.00  0.00     0.203 C 
HETATM    8  C   UNL     1      28.413  40.392  50.243  1.00  0.00     0.262 C 
HETATM    9  C   UNL     1      24.425  42.551  50.647  1.00  0.00     0.020 A 
HETATM   10  C   UNL     1      23.627  43.132  49.640  1.00  0.00    -0.032 A 
HETATM   11  C   UNL     1      23.881  42.791  48.304  1.00  0.00     0.011 A 
HETATM   12  C   UNL     1      24.876  41.861  47.989  1.00  0.00     0.038 A 
ENDROOT
BRANCH  10  13
HETATM   13  C   UNL     1      22.520  44.094  50.006  1.00  0.00     0.273 C 
BRANCH  13  14
HETATM   14  N   UNL     1      21.903  44.860  48.845  1.00  0.00    -0.067 N 
HETATM   15  H   UNL     1      22.067  44.294  48.002  1.00  0.00     0.280 HD
HETATM   16  C   UNL     1      20.408  45.045  48.973  1.00  0.00     0.238 C 
HETATM   17  C   UNL     1      19.883  45.781  47.753  1.00  0.00     0.071 C 
HETATM   18  C   UNL     1      20.514  47.180  47.615  1.00  0.00     0.089 C 
HETATM   19  C   UNL     1      22.036  46.959  47.487  1.00  0.00     0.071 C 
HETATM   20  C   UNL     1      22.628  46.177  48.650  1.00  0.00     0.238 C 
BRANCH  18  21
HETATM   21  O   UNL     1      20.080  47.696  46.357  1.00  0.00    -0.385 OA
HETATM   22  H   UNL     1      20.579  48.505  46.132  1.00  0.00     0.211 HD
ENDBRANCH  18  21
BRANCH  18  23
HETATM   23  C   UNL     1      20.059  48.139  48.709  1.00  0.00    -0.006 A 
HETATM   24  C   UNL     1      18.981  47.881  49.553  1.00  0.00     0.126 A 
HETATM   25  N   UNL     1      18.505  48.741  50.478  1.00  0.00    -0.272 NA
HETATM   26  C   UNL     1      19.175  49.898  50.653  1.00  0.00     0.116 A 
HETATM   27  C   UNL     1      20.296  50.235  49.923  1.00  0.00     0.020 A 
HETATM   28  C   UNL     1      20.741  49.345  48.948  1.00  0.00     0.013 A 
ENDBRANCH  18  23
ENDBRANCH  13  14
ENDBRANCH  10  13
BRANCH   1  29
HETATM   29  C   UNL     1      28.218  42.657  51.356  1.00  0.00     0.273 C 
BRANCH  29  30
HETATM   30  C   UNL     1      28.850  43.123  52.643  1.00  0.00    -0.033 A 
HETATM   31  C   UNL     1      30.060  42.586  53.104  1.00  0.00     0.010 A 
HETATM   32  C   UNL     1      30.609  43.020  54.316  1.00  0.00     0.018 A 
HETATM   33  C   UNL     1      29.972  44.009  55.076  1.00  0.00     0.039 A 
HETATM   34  C   UNL     1      28.783  44.575  54.601  1.00  0.00     0.018 A 
HETATM   35  C   UNL     1      28.230  44.137  53.395  1.00  0.00     0.010 A 
BRANCH  33  36
HETATM   36  C   UNL     1      30.591  44.416  56.368  1.00  0.00     0.292 C 
HETATM   37  O   UNL     1      31.293  43.671  57.029  1.00  0.00    -0.259 OA
BRANCH  36  38
HETATM   38  O   UNL     1      30.227  45.681  56.694  1.00  0.00    -0.323 OA
HETATM   39  C   UNL     1      30.292  45.956  58.097  1.00  0.00     0.213 C 
ENDBRANCH  36  38
ENDBRANCH  33  36
ENDBRANCH  29  30
ENDBRANCH   1  29
TORSDOF 8
ENDMDL
MODEL 5
REMARK VINA RESULT:      -8.9      6.594     10.334
REMARK  8 active torsions:
REMARK  status: ('A' for Active; 'I' for Inactive)
REMARK    1  A    between atoms: O_2  and  C_3 
REMARK    2  A    between atoms: C_3  and  C_4 
REMARK    3  A    between atoms: C_7  and  C_8 
REMARK    4  A    between atoms: C_8  and  N_9 
REMARK    5  A    between atoms: C_18  and  C_19 
REMARK    6  A    between atoms: C_19  and  N_20 
REMARK    7  A    between atoms: C_24  and  O_25 
REMARK    8  A    between atoms: C_24  and  C_26 
ROOT
HETATM    1  N   UNL     1      18.656  49.278  48.266  1.00  0.00    -0.061 N 
HETATM    2  H   UNL     1      18.976  48.363  48.602  1.00  0.00     0.280 HD
HETATM    3  C   UNL     1      17.181  49.308  48.602  1.00  0.00     0.276 C 
HETATM    4  C   UNL     1      16.488  50.622  48.378  1.00  0.00     0.002 A 
HETATM    5  C   UNL     1      16.434  51.184  47.103  1.00  0.00     0.076 A 
HETATM    6  O   UNL     1      16.949  50.529  46.020  1.00  0.00    -0.349 OA
HETATM    7  C   UNL     1      18.380  50.492  46.034  1.00  0.00     0.203 C 
HETATM    8  C   UNL     1      18.910  49.252  46.765  1.00  0.00     0.262 C 
HETATM    9  C   UNL     1      15.827  51.282  49.431  1.00  0.00     0.020 A 
HETATM   10  C   UNL     1      15.135  52.492  49.220  1.00  0.00    -0.032 A 
HETATM   11  C   UNL     1      15.126  53.044  47.932  1.00  0.00     0.011 A 
HETATM   12  C   UNL     1      15.753  52.378  46.875  1.00  0.00     0.038 A 
ENDROOT
BRANCH  10  13
HETATM   13  C   UNL     1      14.417  53.168  50.366  1.00  0.00     0.273 C 
BRANCH  13  14
HETATM   14  N   UNL     1      14.147  54.654  50.189  1.00  0.00    -0.067 N 
HETATM   15  H   UNL     1      13.945  54.798  49.191  1.00  0.00     0.280 HD
HETATM   16  C   UNL     1      12.942  55.143  50.961  1.00  0.00     0.238 C 
HETATM   17  C   UNL     1      12.733  56.622  50.689  1.00  0.00     0.071 C 
HETATM   18  C   UNL     1      13.945  57.462  51.137  1.00  0.00     0.089 C 
HETATM   19  C   UNL     1      15.155  56.942  50.335  1.00  0.00     0.071 C 
HETATM   20  C   UNL     1      15.395  55.449  50.514  1.00  0.00     0.238 C 
BRANCH  18  21
HETATM   21  O   UNL     1      13.705  58.792  50.677  1.00  0.00    -0.385 OA
HETATM   22  H   UNL     1      12.847  58.840  50.212  1.00  0.00     0.211 HD
ENDBRANCH  18  21
BRANCH  18  23
HETATM   23  C   UNL     1      14.102  57.500  52.653  1.00  0.00    -0.006 A 
HETATM   24  C   UNL     1      13.027  57.439  53.536  1.00  0.00     0.126 A 
HETATM   25  N   UNL     1      13.126  57.548  54.878  1.00  0.00    -0.272 NA
HETATM   26  C   UNL     1      14.365  57.638  55.404  1.00  0.00     0.116 A 
HETATM   27  C   UNL     1      15.510  57.641  54.634  1.00  0.00     0.020 A 
HETATM   28  C   UNL     1      15.374  57.567  53.249  1.00  0.00     0.013 A 
ENDBRANCH  18  23
ENDBRANCH  13  14
ENDBRANCH  10  13
BRANCH   1  29
HETATM   29  C   UNL     1      19.529  50.282  48.992  1.00  0.00     0.273 C 
BRANCH  29  30
HETATM   30  C   UNL     1      21.014  50.111  48.792  1.00  0.00    -0.033 A 
HETATM   31  C   UNL     1      21.660  48.902  49.084  1.00  0.00     0.010 A 
HETATM   32  C   UNL     1      23.044  48.781  48.913  1.00  0.00     0.018 A 
HETATM   33  C   UNL     1      23.801  49.856  48.430  1.00  0.00     0.039 A 
HETATM   34  C   UNL     1      23.154  51.053  48.103  1.00  0.00     0.018 A 
HETATM   35  C   UNL     1      21.774  51.177  48.280  1.00  0.00     0.010 A 
BRANCH  33  36
HETATM   36  C   UNL     1      25.273  49.677  48.290  1.00  0.00     0.292 C 
HETATM   37  O   UNL     1      25.920  50.196  47.398  1.00  0.00    -0.259 OA
BRANCH  36  38
HETATM   38  O   UNL     1      25.746  48.847  49.252  1.00  0.00    -0.323 OA
HETATM   39  C   UNL     1      27.165  48.663  49.209  1.00  0.00     0.213 C 
ENDBRANCH  36  38
ENDBRANCH  33  36
ENDBRANCH  29  30
ENDBRANCH   1  29
TORSDOF 8
ENDMDL
MODEL 6
REMARK VINA RESULT:      -8.8      3.193      7.729
REMARK  8 active torsions:
REMARK  status: ('A' for Active; 'I' for Inactive)
REMARK    1  A    between atoms: O_2  and  C_3 
REMARK    2  A    between atoms: C_3  and  C_4 
REMARK    3  A    between atoms: C_7  and  C_8 
REMARK    4  A    between atoms: C_8  and  N_9 
REMARK    5  A    between atoms: C_18  and  C_19 
REMARK    6  A    between atoms: C_19  and  N_20 
REMARK    7  A    between atoms: C_24  and  O_25 
REMARK    8  A    between atoms: C_24  and  C_26 
ROOT
HETATM    1  N   UNL     1      18.630  49.674  47.682  1.00  0.00    -0.061 N 
HETATM    2  H   UNL     1      18.806  50.630  47.355  1.00  0.00     0.280 HD
HETATM    3  C   UNL     1      19.028  48.797  46.514  1.00  0.00     0.276 C 
HETATM    4  C   UNL     1      19.040  47.319  46.784  1.00  0.00     0.002 A 
HETATM    5  C   UNL     1      17.870  46.661  47.163  1.00  0.00     0.076 A 
HETATM    6  O   UNL     1      16.678  47.325  47.236  1.00  0.00    -0.349 OA
HETATM    7  C   UNL     1      16.625  48.233  48.343  1.00  0.00     0.203 C 
HETATM    8  C   UNL     1      17.133  49.628  47.958  1.00  0.00     0.262 C 
HETATM    9  C   UNL     1      20.209  46.557  46.600  1.00  0.00     0.020 A 
HETATM   10  C   UNL     1      20.217  45.163  46.806  1.00  0.00    -0.032 A 
HETATM   11  C   UNL     1      19.031  44.538  47.215  1.00  0.00     0.011 A 
HETATM   12  C   UNL     1      17.858  45.283  47.369  1.00  0.00     0.038 A 
ENDROOT
BRANCH  10  13
HETATM   13  C   UNL     1      21.483  44.367  46.581  1.00  0.00     0.273 C 
BRANCH  13  14
HETATM   14  N   UNL     1      21.983  43.573  47.777  1.00  0.00    -0.067 N 
HETATM   15  H   UNL     1      21.336  42.782  47.894  1.00  0.00     0.280 HD
HETATM   16  C   UNL     1      23.365  42.992  47.580  1.00  0.00     0.238 C 
HETATM   17  C   UNL     1      23.756  42.187  48.806  1.00  0.00     0.071 C 
HETATM   18  C   UNL     1      23.797  43.062  50.074  1.00  0.00     0.089 C 
HETATM   19  C   UNL     1      22.377  43.639  50.250  1.00  0.00     0.071 C 
HETATM   20  C   UNL     1      21.892  44.415  49.034  1.00  0.00     0.238 C 
BRANCH  18  21
HETATM   21  O   UNL     1      24.003  42.171  51.171  1.00  0.00    -0.385 OA
HETATM   22  H   UNL     1      23.357  41.439  51.138  1.00  0.00     0.211 HD
ENDBRANCH  18  21
BRANCH  18  23
HETATM   23  C   UNL     1      24.940  44.070  50.054  1.00  0.00    -0.006 A 
HETATM   24  C   UNL     1      26.177  43.812  49.468  1.00  0.00     0.126 A 
HETATM   25  N   UNL     1      27.234  44.652  49.501  1.00  0.00    -0.272 NA
HETATM   26  C   UNL     1      27.049  45.861  50.069  1.00  0.00     0.116 A 
HETATM   27  C   UNL     1      25.848  46.255  50.623  1.00  0.00     0.020 A 
HETATM   28  C   UNL     1      24.787  45.352  50.610  1.00  0.00     0.013 A 
ENDBRANCH  18  23
ENDBRANCH  13  14
ENDBRANCH  10  13
BRANCH   1  29
HETATM   29  C   UNL     1      19.464  49.536  48.939  1.00  0.00     0.273 C 
BRANCH  29  30
HETATM   30  C   UNL     1      20.957  49.610  48.736  1.00  0.00    -0.033 A 
HETATM   31  C   UNL     1      21.808  48.584  49.169  1.00  0.00     0.010 A 
HETATM   32  C   UNL     1      23.192  48.693  48.990  1.00  0.00     0.018 A 
HETATM   33  C   UNL     1      23.746  49.814  48.360  1.00  0.00     0.039 A 
HETATM   34  C   UNL     1      22.896  50.823  47.893  1.00  0.00     0.018 A 
HETATM   35  C   UNL     1      21.515  50.719  48.078  1.00  0.00     0.010 A 
BRANCH  33  36
HETATM   36  C   UNL     1      25.226  49.885  48.217  1.00  0.00     0.292 C 
HETATM   37  O   UNL     1      25.775  50.447  47.286  1.00  0.00    -0.259 OA
BRANCH  36  38
HETATM   38  O   UNL     1      25.836  49.217  49.228  1.00  0.00    -0.323 OA
HETATM   39  C   UNL     1      27.263  49.201  49.131  1.00  0.00     0.213 C 
ENDBRANCH  36  38
ENDBRANCH  33  36
ENDBRANCH  29  30
ENDBRANCH   1  29
TORSDOF 8
ENDMDL
MODEL 7
REMARK VINA RESULT:      -8.7      5.412      9.462
REMARK  8 active torsions:
REMARK  status: ('A' for Active; 'I' for Inactive)
REMARK    1  A    between atoms: O_2  and  C_3 
REMARK    2  A    between atoms: C_3  and  C_4 
REMARK    3  A    between atoms: C_7  and  C_8 
REMARK    4  A    between atoms: C_8  and  N_9 
REMARK    5  A    between atoms: C_18  and  C_19 
REMARK    6  A    between atoms: C_19  and  N_20 
REMARK    7  A    between atoms: C_24  and  O_25 
REMARK    8  A    between atoms: C_24  and  C_26 
ROOT
HETATM    1  N   UNL     1      25.987  45.535  52.716  1.00  0.00    -0.061 N 
HETATM    2  H   UNL     1      25.045  45.935  52.634  1.00  0.00     0.280 HD
HETATM    3  C   UNL     1      25.754  44.048  52.866  1.00  0.00     0.276 C 
HETATM    4  C   UNL     1      26.985  43.188  52.828  1.00  0.00     0.002 A 
HETATM    5  C   UNL     1      27.989  43.349  53.783  1.00  0.00     0.076 A 
HETATM    6  O   UNL     1      27.852  44.243  54.808  1.00  0.00    -0.349 OA
HETATM    7  C   UNL     1      27.939  45.601  54.365  1.00  0.00     0.203 C 
HETATM    8  C   UNL     1      26.565  46.162  53.978  1.00  0.00     0.262 C 
HETATM    9  C   UNL     1      27.126  42.164  51.873  1.00  0.00     0.020 A 
HETATM   10  C   UNL     1      28.257  41.322  51.859  1.00  0.00    -0.032 A 
HETATM   11  C   UNL     1      29.260  41.532  52.815  1.00  0.00     0.011 A 
HETATM   12  C   UNL     1      29.114  42.526  53.786  1.00  0.00     0.038 A 
ENDROOT
BRANCH  10  13
HETATM   13  C   UNL     1      28.371  40.217  50.834  1.00  0.00     0.273 C 
BRANCH  13  14
HETATM   14  N   UNL     1      27.717  40.497  49.490  1.00  0.00    -0.067 N 
HETATM   15  H   UNL     1      27.357  41.459  49.534  1.00  0.00     0.280 HD
HETATM   16  C   UNL     1      28.681  40.436  48.327  1.00  0.00     0.238 C 
HETATM   17  C   UNL     1      27.946  40.767  47.040  1.00  0.00     0.071 C 
HETATM   18  C   UNL     1      26.811  39.763  46.757  1.00  0.00     0.089 C 
HETATM   19  C   UNL     1      25.845  39.848  47.957  1.00  0.00     0.071 C 
HETATM   20  C   UNL     1      26.525  39.581  49.293  1.00  0.00     0.238 C 
BRANCH  18  21
HETATM   21  O   UNL     1      26.094  40.273  45.633  1.00  0.00    -0.385 OA
HETATM   22  H   UNL     1      25.134  40.149  45.760  1.00  0.00     0.211 HD
ENDBRANCH  18  21
BRANCH  18  23
HETATM   23  C   UNL     1      27.333  38.375  46.404  1.00  0.00    -0.006 A 
HETATM   24  C   UNL     1      26.765  37.198  46.885  1.00  0.00     0.126 A 
HETATM   25  N   UNL     1      27.249  35.959  46.654  1.00  0.00    -0.272 NA
HETATM   26  C   UNL     1      28.310  35.851  45.830  1.00  0.00     0.116 A 
HETATM   27  C   UNL     1      28.918  36.940  45.239  1.00  0.00     0.020 A 
HETATM   28  C   UNL     1      28.420  38.210  45.527  1.00  0.00     0.013 A 
ENDBRANCH  18  23
ENDBRANCH  13  14
ENDBRANCH  10  13
BRANCH   1  29
HETATM   29  C   UNL     1      26.706  45.978  51.458  1.00  0.00     0.273 C 
BRANCH  29  30
HETATM   30  C   UNL     1      25.985  47.015  50.633  1.00  0.00    -0.033 A 
HETATM   31  C   UNL     1      26.684  47.968  49.878  1.00  0.00     0.010 A 
HETATM   32  C   UNL     1      25.988  48.934  49.143  1.00  0.00     0.018 A 
HETATM   33  C   UNL     1      24.588  48.954  49.133  1.00  0.00     0.039 A 
HETATM   34  C   UNL     1      23.887  47.982  49.856  1.00  0.00     0.018 A 
HETATM   35  C   UNL     1      24.580  47.021  50.596  1.00  0.00     0.010 A 
BRANCH  33  36
HETATM   36  C   UNL     1      23.901  50.019  48.352  1.00  0.00     0.292 C 
HETATM   37  O   UNL     1      23.998  50.119  47.141  1.00  0.00    -0.259 OA
BRANCH  36  38
HETATM   38  O   UNL     1      23.214  50.848  49.176  1.00  0.00    -0.323 OA
HETATM   39  C   UNL     1      21.836  51.003  48.822  1.00  0.00     0.213 C 
ENDBRANCH  36  38
ENDBRANCH  33  36
ENDBRANCH  29  30
ENDBRANCH   1  29
TORSDOF 8
ENDMDL
MODEL 8
REMARK VINA RESULT:      -8.5      4.851      8.998
REMARK  8 active torsions:
REMARK  status: ('A' for Active; 'I' for Inactive)
REMARK    1  A    between atoms: O_2  and  C_3 
REMARK    2  A    between atoms: C_3  and  C_4 
REMARK    3  A    between atoms: C_7  and  C_8 
REMARK    4  A    between atoms: C_8  and  N_9 
REMARK    5  A    between atoms: C_18  and  C_19 
REMARK    6  A    between atoms: C_19  and  N_20 
REMARK    7  A    between atoms: C_24  and  O_25 
REMARK    8  A    between atoms: C_24  and  C_26 
ROOT
HETATM    1  N   UNL     1      26.152  46.671  53.824  1.00  0.00    -0.061 N 
HETATM    2  H   UNL     1      25.206  47.069  53.841  1.00  0.00     0.280 HD
HETATM    3  C   UNL     1      25.952  45.209  54.157  1.00  0.00     0.276 C 
HETATM    4  C   UNL     1      27.169  44.338  54.026  1.00  0.00     0.002 A 
HETATM    5  C   UNL     1      28.303  44.586  54.801  1.00  0.00     0.076 A 
HETATM    6  O   UNL     1      28.313  45.580  55.738  1.00  0.00    -0.349 OA
HETATM    7  C   UNL     1      28.326  46.886  55.151  1.00  0.00     0.203 C 
HETATM    8  C   UNL     1      26.907  47.418  54.916  1.00  0.00     0.262 C 
HETATM    9  C   UNL     1      27.173  43.221  53.171  1.00  0.00     0.020 A 
HETATM   10  C   UNL     1      28.295  42.372  53.076  1.00  0.00    -0.032 A 
HETATM   11  C   UNL     1      29.427  42.668  53.846  1.00  0.00     0.011 A 
HETATM   12  C   UNL     1      29.420  43.757  54.722  1.00  0.00     0.038 A 
ENDROOT
BRANCH  10  13
HETATM   13  C   UNL     1      28.262  41.167  52.163  1.00  0.00     0.273 C 
BRANCH  13  14
HETATM   14  N   UNL     1      27.549  41.366  50.835  1.00  0.00    -0.067 N 
HETATM   15  H   UNL     1      27.357  42.374  50.755  1.00  0.00     0.280 HD
HETATM   16  C   UNL     1      28.387  40.978  49.638  1.00  0.00     0.238 C 
HETATM   17  C   UNL     1      27.607  41.250  48.364  1.00  0.00     0.071 C 
HETATM   18  C   UNL     1      26.304  40.430  48.305  1.00  0.00     0.089 C 
HETATM   19  C   UNL     1      25.472  40.847  49.536  1.00  0.00     0.071 C 
HETATM   20  C   UNL     1      26.212  40.654  50.852  1.00  0.00     0.238 C 
BRANCH  18  21
HETATM   21  O   UNL     1      25.585  40.895  47.163  1.00  0.00    -0.385 OA
HETATM   22  H   UNL     1      25.880  40.420  46.362  1.00  0.00     0.211 HD
ENDBRANCH  18  21
BRANCH  18  23
HETATM   23  C   UNL     1      26.559  38.936  48.136  1.00  0.00    -0.006 A 
HETATM   24  C   UNL     1      26.863  38.346  46.911  1.00  0.00     0.126 A 
HETATM   25  N   UNL     1      27.018  37.019  46.714  1.00  0.00    -0.272 NA
HETATM   26  C   UNL     1      26.956  36.219  47.797  1.00  0.00     0.116 A 
HETATM   27  C   UNL     1      26.727  36.696  49.072  1.00  0.00     0.020 A 
HETATM   28  C   UNL     1      26.532  38.065  49.239  1.00  0.00     0.013 A 
ENDBRANCH  18  23
ENDBRANCH  13  14
ENDBRANCH  10  13
BRANCH   1  29
HETATM   29  C   UNL     1      26.674  46.977  52.435  1.00  0.00     0.273 C 
BRANCH  29  30
HETATM   30  C   UNL     1      25.914  46.333  51.302  1.00  0.00    -0.033 A 
HETATM   31  C   UNL     1      24.638  46.777  50.928  1.00  0.00     0.010 A 
HETATM   32  C   UNL     1      23.947  46.143  49.890  1.00  0.00     0.018 A 
HETATM   33  C   UNL     1      24.523  45.072  49.196  1.00  0.00     0.039 A 
HETATM   34  C   UNL     1      25.812  44.649  49.542  1.00  0.00     0.018 A 
HETATM   35  C   UNL     1      26.501  45.277  50.583  1.00  0.00     0.010 A 
BRANCH  33  36
HETATM   36  C   UNL     1      23.731  44.421  48.116  1.00  0.00     0.292 C 
HETATM   37  O   UNL     1      23.944  43.284  47.732  1.00  0.00    -0.259 OA
BRANCH  36  38
HETATM   38  O   UNL     1      22.803  45.277  47.623  1.00  0.00    -0.323 OA
HETATM   39  C   UNL     1      22.364  44.953  46.300  1.00  0.00     0.213 C 
ENDBRANCH  36  38
ENDBRANCH  33  36
ENDBRANCH  29  30
ENDBRANCH   1  29
TORSDOF 8
ENDMDL
MODEL 9
REMARK VINA RESULT:      -8.3      2.659      4.399
REMARK  8 active torsions:
REMARK  status: ('A' for Active; 'I' for Inactive)
REMARK    1  A    between atoms: O_2  and  C_3 
REMARK    2  A    between atoms: C_3  and  C_4 
REMARK    3  A    between atoms: C_7  and  C_8 
REMARK    4  A    between atoms: C_8  and  N_9 
REMARK    5  A    between atoms: C_18  and  C_19 
REMARK    6  A    between atoms: C_19  and  N_20 
REMARK    7  A    between atoms: C_24  and  O_25 
REMARK    8  A    between atoms: C_24  and  C_26 
ROOT
HETATM    1  N   UNL     1      25.782  42.461  51.575  1.00  0.00    -0.061 N 
HETATM    2  H   UNL     1      25.836  42.255  52.579  1.00  0.00     0.280 HD
HETATM    3  C   UNL     1      24.357  42.925  51.363  1.00  0.00     0.276 C 
HETATM    4  C   UNL     1      24.046  43.468  49.997  1.00  0.00     0.002 A 
HETATM    5  C   UNL     1      24.185  42.661  48.867  1.00  0.00     0.076 A 
HETATM    6  O   UNL     1      24.543  41.347  48.978  1.00  0.00    -0.349 OA
HETATM    7  C   UNL     1      25.912  41.184  49.365  1.00  0.00     0.203 C 
HETATM    8  C   UNL     1      26.068  41.132  50.890  1.00  0.00     0.262 C 
HETATM    9  C   UNL     1      23.550  44.774  49.831  1.00  0.00     0.020 A 
HETATM   10  C   UNL     1      23.211  45.276  48.558  1.00  0.00    -0.032 A 
HETATM   11  C   UNL     1      23.392  44.448  47.441  1.00  0.00     0.011 A 
HETATM   12  C   UNL     1      23.854  43.139  47.601  1.00  0.00     0.038 A 
ENDROOT
BRANCH  10  13
HETATM   13  C   UNL     1      22.661  46.677  48.413  1.00  0.00     0.273 C 
BRANCH  13  14
HETATM   14  N   UNL     1      21.211  46.860  48.833  1.00  0.00    -0.067 N 
HETATM   15  H   UNL     1      21.081  46.305  49.689  1.00  0.00     0.280 HD
HETATM   16  C   UNL     1      20.859  48.291  49.174  1.00  0.00     0.238 C 
HETATM   17  C   UNL     1      19.409  48.365  49.617  1.00  0.00     0.071 C 
HETATM   18  C   UNL     1      18.448  47.902  48.505  1.00  0.00     0.089 C 
HETATM   19  C   UNL     1      18.829  46.443  48.179  1.00  0.00     0.071 C 
HETATM   20  C   UNL     1      20.289  46.281  47.778  1.00  0.00     0.238 C 
BRANCH  18  21
HETATM   21  O   UNL     1      17.147  47.852  49.092  1.00  0.00    -0.385 OA
HETATM   22  H   UNL     1      16.462  47.853  48.396  1.00  0.00     0.211 HD
ENDBRANCH  18  21
BRANCH  18  23
HETATM   23  C   UNL     1      18.406  48.870  47.328  1.00  0.00    -0.006 A 
HETATM   24  C   UNL     1      18.441  50.255  47.475  1.00  0.00     0.126 A 
HETATM   25  N   UNL     1      18.327  51.139  46.460  1.00  0.00    -0.272 NA
HETATM   26  C   UNL     1      18.258  50.643  45.208  1.00  0.00     0.116 A 
HETATM   27  C   UNL     1      18.282  49.290  44.934  1.00  0.00     0.020 A 
HETATM   28  C   UNL     1      18.360  48.401  46.004  1.00  0.00     0.013 A 
ENDBRANCH  18  23
ENDBRANCH  13  14
ENDBRANCH  10  13
BRANCH   1  29
HETATM   29  C   UNL     1      26.866  43.492  51.334  1.00  0.00     0.273 C 
BRANCH  29  30
HETATM   30  C   UNL     1      27.708  43.839  52.536  1.00  0.00    -0.033 A 
HETATM   31  C   UNL     1      27.394  44.926  53.364  1.00  0.00     0.010 A 
HETATM   32  C   UNL     1      28.209  45.239  54.457  1.00  0.00     0.018 A 
HETATM   33  C   UNL     1      29.336  44.462  54.755  1.00  0.00     0.039 A 
HETATM   34  C   UNL     1      29.632  43.354  53.953  1.00  0.00     0.018 A 
HETATM   35  C   UNL     1      28.823  43.045  52.856  1.00  0.00     0.010 A 
BRANCH  33  36
HETATM   36  C   UNL     1      30.179  44.856  55.917  1.00  0.00     0.292 C 
HETATM   37  O   UNL     1      31.111  44.180  56.319  1.00  0.00    -0.259 OA
BRANCH  36  38
HETATM   38  O   UNL     1      29.735  46.017  56.458  1.00  0.00    -0.323 OA
HETATM   39  C   UNL     1      29.377  45.912  57.839  1.00  0.00     0.213 C 
ENDBRANCH  36  38
ENDBRANCH  33  36
ENDBRANCH  29  30
ENDBRANCH   1  29
TORSDOF 8
ENDMDL
MODEL 10
REMARK VINA RESULT:      -8.3      3.075      7.483
REMARK  8 active torsions:
REMARK  status: ('A' for Active; 'I' for Inactive)
REMARK    1  A    between atoms: O_2  and  C_3 
REMARK    2  A    between atoms: C_3  and  C_4 
REMARK    3  A    between atoms: C_7  and  C_8 
REMARK    4  A    between atoms: C_8  and  N_9 
REMARK    5  A    between atoms: C_18  and  C_19 
REMARK    6  A    between atoms: C_19  and  N_20 
REMARK    7  A    between atoms: C_24  and  O_25 
REMARK    8  A    between atoms: C_24  and  C_26 
ROOT
HETATM    1  N   UNL     1      30.970  43.687  55.605  1.00  0.00    -0.061 N 
HETATM    2  H   UNL     1      31.741  43.290  55.056  1.00  0.00     0.280 HD
HETATM    3  C   UNL     1      30.667  45.007  54.930  1.00  0.00     0.276 C 
HETATM    4  C   UNL     1      29.445  45.727  55.426  1.00  0.00     0.002 A 
HETATM    5  C   UNL     1      29.358  46.136  56.757  1.00  0.00     0.076 A 
HETATM    6  O   UNL     1      30.399  45.951  57.621  1.00  0.00    -0.349 OA
HETATM    7  C   UNL     1      30.584  44.575  57.970  1.00  0.00     0.203 C 
HETATM    8  C   UNL     1      31.543  43.868  57.004  1.00  0.00     0.262 C 
HETATM    9  C   UNL     1      28.394  46.060  54.551  1.00  0.00     0.020 A 
HETATM   10  C   UNL     1      27.265  46.776  54.998  1.00  0.00    -0.032 A 
HETATM   11  C   UNL     1      27.197  47.145  56.348  1.00  0.00     0.011 A 
HETATM   12  C   UNL     1      28.251  46.846  57.216  1.00  0.00     0.038 A 
ENDROOT
BRANCH  10  13
HETATM   13  C   UNL     1      26.160  47.137  54.031  1.00  0.00     0.273 C 
BRANCH  13  14
HETATM   14  N   UNL     1      26.147  46.355  52.726  1.00  0.00    -0.067 N 
HETATM   15  H   UNL     1      26.833  45.596  52.833  1.00  0.00     0.280 HD
HETATM   16  C   UNL     1      24.813  45.710  52.425  1.00  0.00     0.238 C 
HETATM   17  C   UNL     1      24.912  44.923  51.130  1.00  0.00     0.071 C 
HETATM   18  C   UNL     1      25.269  45.831  49.937  1.00  0.00     0.089 C 
HETATM   19  C   UNL     1      26.631  46.474  50.272  1.00  0.00     0.071 C 
HETATM   20  C   UNL     1      26.625  47.236  51.589  1.00  0.00     0.238 C 
BRANCH  18  21
HETATM   21  O   UNL     1      25.501  44.964  48.827  1.00  0.00    -0.385 OA
HETATM   22  H   UNL     1      24.672  44.517  48.568  1.00  0.00     0.211 HD
ENDBRANCH  18  21
BRANCH  18  23
HETATM   23  C   UNL     1      24.141  46.788  49.570  1.00  0.00    -0.006 A 
HETATM   24  C   UNL     1      24.186  48.157  49.821  1.00  0.00     0.126 A 
HETATM   25  N   UNL     1      23.174  49.017  49.580  1.00  0.00    -0.272 NA
HETATM   26  C   UNL     1      22.072  48.527  48.977  1.00  0.00     0.116 A 
HETATM   27  C   UNL     1      21.938  47.201  48.620  1.00  0.00     0.020 A 
HETATM   28  C   UNL     1      22.984  46.329  48.916  1.00  0.00     0.013 A 
ENDBRANCH  18  23
ENDBRANCH  13  14
ENDBRANCH  10  13
BRANCH   1  29
HETATM   29  C   UNL     1      29.877  42.638  55.548  1.00  0.00     0.273 C 
BRANCH  29  30
HETATM   30  C   UNL     1      29.125  42.558  54.243  1.00  0.00    -0.033 A 
HETATM   31  C   UNL     1      27.738  42.747  54.183  1.00  0.00     0.010 A 
HETATM   32  C   UNL     1      27.064  42.640  52.961  1.00  0.00     0.018 A 
HETATM   33  C   UNL     1      27.763  42.364  51.780  1.00  0.00     0.039 A 
HETATM   34  C   UNL     1      29.154  42.210  51.831  1.00  0.00     0.018 A 
HETATM   35  C   UNL     1      29.827  42.310  53.051  1.00  0.00     0.010 A 
BRANCH  33  36
HETATM   36  C   UNL     1      26.991  42.239  50.513  1.00  0.00     0.292 C 
HETATM   37  O   UNL     1      27.273  42.858  49.502  1.00  0.00    -0.259 OA
BRANCH  36  38
HETATM   38  O   UNL     1      25.943  41.393  50.674  1.00  0.00    -0.323 OA
HETATM   39  C   UNL     1      26.240  40.035  50.333  1.00  0.00     0.213 C 
ENDBRANCH  36  38
ENDBRANCH  33  36
ENDBRANCH  29  30
ENDBRANCH   1  29
TORSDOF 8
ENDMDL
