MODEL 1
REMARK VINA RESULT:      -8.7      0.000      0.000
REMARK  4 active torsions:
REMARK  status: ('A' for Active; 'I' for Inactive)
REMARK    1  A    between atoms: C_2  and  C_3 
REMARK    2  A    between atoms: C_10  and  C_11 
REMARK       I    between atoms: C_11  and  N_12 
REMARK    3  A    between atoms: N_12  and  C_13 
REMARK    4  A    between atoms: C_20  and  C_21 
REMARK       I    between atoms: C_21  and  N_22 
ROOT
HETATM    1  C   UNL     1      22.105  48.964  49.187  1.00  0.00     0.035 A 
HETATM    2  C   UNL     1      23.321  48.338  49.478  1.00  0.00     0.046 A 
HETATM    3  C   UNL     1      24.530  48.881  48.988  1.00  0.00     0.030 A 
HETATM    4  C   UNL     1      24.487  50.031  48.212  1.00  0.00     0.063 A 
HETATM    5  N   UNL     1      25.788  50.301  47.889  1.00  0.00    -0.277 N 
HETATM    6  H   UNL     1      26.134  51.069  47.326  1.00  0.00     0.189 HD
HETATM    7  N   UNL     1      26.678  49.431  48.396  1.00  0.00    -0.168 NA
HETATM    8  C   UNL     1      25.915  48.547  49.079  1.00  0.00     0.156 A 
HETATM    9  C   UNL     1      23.298  50.685  47.894  1.00  0.00     0.034 A 
HETATM   10  C   UNL     1      22.115  50.128  48.399  1.00  0.00     0.032 A 
ENDROOT
BRANCH   1  11
HETATM   11  N   UNL     1      20.839  48.531  49.624  1.00  0.00    -0.324 N 
HETATM   12  C   UNL     1      19.635  48.324  49.022  1.00  0.00     0.246 C 
HETATM   13  O   UNL     1      18.689  47.906  49.691  1.00  0.00    -0.268 OA
HETATM   14  H   UNL     1      20.759  48.326  50.614  1.00  0.00     0.169 HD
BRANCH  12  15
HETATM   15  C   UNL     1      19.460  48.553  47.578  1.00  0.00     0.082 C 
HETATM   16  C   UNL     1      18.755  49.585  47.077  1.00  0.00    -0.045 C 
HETATM   17  C   UNL     1      18.575  49.782  45.598  1.00  0.00     0.049 C 
BRANCH  16  18
HETATM   18  C   UNL     1      18.102  50.596  47.935  1.00  0.00    -0.008 A 
HETATM   19  C   UNL     1      16.766  50.502  48.359  1.00  0.00     0.044 A 
HETATM   20 CL   UNL     1      15.746  49.185  47.897  1.00  0.00    -0.083 Cl
HETATM   21  C   UNL     1      16.211  51.494  49.175  1.00  0.00     0.024 A 
HETATM   22  C   UNL     1      16.979  52.589  49.572  1.00  0.00     0.002 A 
HETATM   23  C   UNL     1      18.303  52.696  49.153  1.00  0.00     0.001 A 
HETATM   24  C   UNL     1      18.861  51.706  48.341  1.00  0.00     0.013 A 
ENDBRANCH  16  18
ENDBRANCH  12  15
ENDBRANCH   1  11
BRANCH   8  25
HETATM   25  C   UNL     1      26.513  47.421  49.808  1.00  0.00     0.270 C 
HETATM   26  N   UNL     1      26.231  47.409  51.147  1.00  0.00    -0.365 N 
HETATM   27  H   UNL     1      25.649  48.146  51.526  1.00  0.00     0.159 HD
HETATM   28  H   UNL     1      26.592  46.671  51.729  1.00  0.00     0.159 HD
HETATM   29  O   UNL     1      27.201  46.546  49.292  1.00  0.00    -0.266 OA
ENDBRANCH   8  25
TORSDOF 4
ENDMDL
MODEL 2
REMARK VINA RESULT:      -8.6     11.229     13.477
REMARK  4 active torsions:
REMARK  status: ('A' for Active; 'I' for Inactive)
REMARK    1  A    between atoms: C_2  and  C_3 
REMARK    2  A    between atoms: C_10  and  C_11 
REMARK       I    between atoms: C_11  and  N_12 
REMARK    3  A    between atoms: N_12  and  C_13 
REMARK    4  A    between atoms: C_20  and  C_21 
REMARK       I    between atoms: C_21  and  N_22 
ROOT
HETATM    1  C   UNL     1      32.300  49.603  42.077  1.00  0.00     0.035 A 
HETATM    2  C   UNL     1      33.604  49.871  41.649  1.00  0.00     0.046 A 
HETATM    3  C   UNL     1      34.383  50.840  42.323  1.00  0.00     0.030 A 
HETATM    4  C   UNL     1      33.830  51.518  43.400  1.00  0.00     0.063 A 
HETATM    5  N   UNL     1      34.805  52.376  43.828  1.00  0.00    -0.277 N 
HETATM    6  H   UNL     1      34.750  53.033  44.598  1.00  0.00     0.189 HD
HETATM    7  N   UNL     1      35.951  52.309  43.129  1.00  0.00    -0.168 NA
HETATM    8  C   UNL     1      35.705  51.362  42.195  1.00  0.00     0.156 A 
HETATM    9  C   UNL     1      32.535  51.285  43.857  1.00  0.00     0.034 A 
HETATM   10  C   UNL     1      31.788  50.316  43.175  1.00  0.00     0.032 A 
ENDROOT
BRANCH   1  11
HETATM   11  N   UNL     1      31.430  48.657  41.501  1.00  0.00    -0.324 N 
HETATM   12  C   UNL     1      30.948  48.436  40.246  1.00  0.00     0.246 C 
HETATM   13  O   UNL     1      30.197  47.480  40.048  1.00  0.00    -0.268 OA
HETATM   14  H   UNL     1      31.043  47.969  42.136  1.00  0.00     0.169 HD
BRANCH  12  15
HETATM   15  C   UNL     1      31.344  49.298  39.120  1.00  0.00     0.082 C 
HETATM   16  C   UNL     1      30.776  50.494  38.874  1.00  0.00    -0.045 C 
HETATM   17  C   UNL     1      31.185  51.343  37.703  1.00  0.00     0.049 C 
BRANCH  16  18
HETATM   18  C   UNL     1      29.711  51.061  39.727  1.00  0.00    -0.008 A 
HETATM   19  C   UNL     1      29.917  52.140  40.603  1.00  0.00     0.044 A 
HETATM   20 CL   UNL     1      31.460  52.901  40.776  1.00  0.00    -0.083 Cl
HETATM   21  C   UNL     1      28.863  52.632  41.381  1.00  0.00     0.024 A 
HETATM   22  C   UNL     1      27.597  52.052  41.296  1.00  0.00     0.002 A 
HETATM   23  C   UNL     1      27.382  50.978  40.436  1.00  0.00     0.001 A 
HETATM   24  C   UNL     1      28.431  50.487  39.656  1.00  0.00     0.013 A 
ENDBRANCH  16  18
ENDBRANCH  12  15
ENDBRANCH   1  11
BRANCH   8  25
HETATM   25  C   UNL     1      36.727  50.968  41.215  1.00  0.00     0.270 C 
HETATM   26  N   UNL     1      37.903  50.546  41.774  1.00  0.00    -0.365 N 
HETATM   27  H   UNL     1      37.982  50.532  42.784  1.00  0.00     0.159 HD
HETATM   28  H   UNL     1      38.662  50.249  41.182  1.00  0.00     0.159 HD
HETATM   29  O   UNL     1      36.571  50.992  39.999  1.00  0.00    -0.266 OA
ENDBRANCH   8  25
TORSDOF 4
ENDMDL
MODEL 3
REMARK VINA RESULT:      -8.5      5.898      8.833
REMARK  4 active torsions:
REMARK  status: ('A' for Active; 'I' for Inactive)
REMARK    1  A    between atoms: C_2  and  C_3 
REMARK    2  A    between atoms: C_10  and  C_11 
REMARK       I    between atoms: C_11  and  N_12 
REMARK    3  A    between atoms: N_12  and  C_13 
REMARK    4  A    between atoms: C_20  and  C_21 
REMARK       I    between atoms: C_21  and  N_22 
ROOT
HETATM    1  C   UNL     1      27.575  46.222  54.285  1.00  0.00     0.035 A 
HETATM    2  C   UNL     1      27.834  44.908  53.884  1.00  0.00     0.046 A 
HETATM    3  C   UNL     1      28.883  44.178  54.489  1.00  0.00     0.030 A 
HETATM    4  C   UNL     1      29.648  44.788  55.472  1.00  0.00     0.063 A 
HETATM    5  N   UNL     1      30.568  43.850  55.851  1.00  0.00    -0.277 N 
HETATM    6  H   UNL     1      31.295  43.951  56.550  1.00  0.00     0.189 HD
HETATM    7  N   UNL     1      30.463  42.676  55.205  1.00  0.00    -0.168 NA
HETATM    8  C   UNL     1      29.423  42.863  54.360  1.00  0.00     0.156 A 
HETATM    9  C   UNL     1      29.428  46.096  55.900  1.00  0.00     0.034 A 
HETATM   10  C   UNL     1      28.378  46.794  55.287  1.00  0.00     0.032 A 
ENDROOT
BRANCH   1  11
HETATM   11  N   UNL     1      26.556  47.047  53.772  1.00  0.00    -0.324 N 
HETATM   12  C   UNL     1      25.729  46.990  52.691  1.00  0.00     0.246 C 
HETATM   13  O   UNL     1      24.898  47.883  52.520  1.00  0.00    -0.268 OA
HETATM   14  H   UNL     1      26.370  47.896  54.294  1.00  0.00     0.169 HD
BRANCH  12  15
HETATM   15  C   UNL     1      25.789  45.860  51.750  1.00  0.00     0.082 C 
HETATM   16  C   UNL     1      25.969  46.015  50.424  1.00  0.00    -0.045 C 
HETATM   17  C   UNL     1      26.004  44.843  49.484  1.00  0.00     0.049 C 
BRANCH  16  18
HETATM   18  C   UNL     1      26.141  47.340  49.793  1.00  0.00    -0.008 A 
HETATM   19  C   UNL     1      25.068  48.121  49.333  1.00  0.00     0.044 A 
HETATM   20 CL   UNL     1      23.427  47.589  49.452  1.00  0.00    -0.083 Cl
HETATM   21  C   UNL     1      25.301  49.370  48.747  1.00  0.00     0.024 A 
HETATM   22  C   UNL     1      26.604  49.850  48.611  1.00  0.00     0.002 A 
HETATM   23  C   UNL     1      27.676  49.082  49.057  1.00  0.00     0.001 A 
HETATM   24  C   UNL     1      27.447  47.836  49.645  1.00  0.00     0.013 A 
ENDBRANCH  16  18
ENDBRANCH  12  15
ENDBRANCH   1  11
BRANCH   8  25
HETATM   25  C   UNL     1      28.962  41.794  53.464  1.00  0.00     0.270 C 
HETATM   26  N   UNL     1      29.398  41.922  52.173  1.00  0.00    -0.365 N 
HETATM   27  H   UNL     1      29.988  42.711  51.936  1.00  0.00     0.159 HD
HETATM   28  H   UNL     1      29.138  41.233  51.485  1.00  0.00     0.159 HD
HETATM   29  O   UNL     1      28.257  40.852  53.810  1.00  0.00    -0.266 OA
ENDBRANCH   8  25
TORSDOF 4
ENDMDL
MODEL 4
REMARK VINA RESULT:      -8.5     11.290     14.160
REMARK  4 active torsions:
REMARK  status: ('A' for Active; 'I' for Inactive)
REMARK    1  A    between atoms: C_2  and  C_3 
REMARK    2  A    between atoms: C_10  and  C_11 
REMARK       I    between atoms: C_11  and  N_12 
REMARK    3  A    between atoms: N_12  and  C_13 
REMARK    4  A    between atoms: C_20  and  C_21 
REMARK       I    between atoms: C_21  and  N_22 
ROOT
HETATM    1  C   UNL     1      30.125  52.074  41.657  1.00  0.00     0.035 A 
HETATM    2  C   UNL     1      29.327  50.963  41.367  1.00  0.00     0.046 A 
HETATM    3  C   UNL     1      28.483  50.977  40.233  1.00  0.00     0.030 A 
HETATM    4  C   UNL     1      28.455  52.106  39.427  1.00  0.00     0.063 A 
HETATM    5  N   UNL     1      27.557  51.823  38.436  1.00  0.00    -0.277 N 
HETATM    6  H   UNL     1      27.281  52.424  37.668  1.00  0.00     0.189 HD
HETATM    7  N   UNL     1      27.002  50.602  38.521  1.00  0.00    -0.168 NA
HETATM    8  C   UNL     1      27.566  50.065  39.627  1.00  0.00     0.156 A 
HETATM    9  C   UNL     1      29.231  53.235  39.681  1.00  0.00     0.034 A 
HETATM   10  C   UNL     1      30.063  53.192  40.808  1.00  0.00     0.032 A 
ENDROOT
BRANCH   1  11
HETATM   11  N   UNL     1      31.014  52.179  42.744  1.00  0.00    -0.324 N 
HETATM   12  C   UNL     1      31.877  51.327  43.364  1.00  0.00     0.246 C 
HETATM   13  O   UNL     1      32.557  51.736  44.306  1.00  0.00    -0.268 OA
HETATM   14  H   UNL     1      31.041  53.081  43.207  1.00  0.00     0.169 HD
BRANCH  12  15
HETATM   15  C   UNL     1      32.035  49.938  42.900  1.00  0.00     0.082 C 
HETATM   16  C   UNL     1      32.917  49.576  41.950  1.00  0.00    -0.045 C 
HETATM   17  C   UNL     1      33.042  48.154  41.480  1.00  0.00     0.049 C 
BRANCH  16  18
HETATM   18  C   UNL     1      33.825  50.541  41.296  1.00  0.00    -0.008 A 
HETATM   19  C   UNL     1      33.558  51.127  40.047  1.00  0.00     0.044 A 
HETATM   20 CL   UNL     1      32.131  50.756  39.144  1.00  0.00    -0.083 Cl
HETATM   21  C   UNL     1      34.460  52.038  39.485  1.00  0.00     0.024 A 
HETATM   22  C   UNL     1      35.636  52.370  40.159  1.00  0.00     0.002 A 
HETATM   23  C   UNL     1      35.914  51.790  41.394  1.00  0.00     0.001 A 
HETATM   24  C   UNL     1      35.015  50.884  41.959  1.00  0.00     0.013 A 
ENDBRANCH  16  18
ENDBRANCH  12  15
ENDBRANCH   1  11
BRANCH   8  25
HETATM   25  C   UNL     1      27.234  48.706  40.075  1.00  0.00     0.270 C 
HETATM   26  N   UNL     1      26.354  48.663  41.122  1.00  0.00    -0.365 N 
HETATM   27  H   UNL     1      26.004  49.537  41.497  1.00  0.00     0.159 HD
HETATM   28  H   UNL     1      26.061  47.775  41.495  1.00  0.00     0.159 HD
HETATM   29  O   UNL     1      27.680  47.680  39.573  1.00  0.00    -0.266 OA
ENDBRANCH   8  25
TORSDOF 4
ENDMDL
MODEL 5
REMARK VINA RESULT:      -8.1     11.343     13.181
REMARK  4 active torsions:
REMARK  status: ('A' for Active; 'I' for Inactive)
REMARK    1  A    between atoms: C_2  and  C_3 
REMARK    2  A    between atoms: C_10  and  C_11 
REMARK       I    between atoms: C_11  and  N_12 
REMARK    3  A    between atoms: N_12  and  C_13 
REMARK    4  A    between atoms: C_20  and  C_21 
REMARK       I    between atoms: C_21  and  N_22 
ROOT
HETATM    1  C   UNL     1      30.598  50.937  41.879  1.00  0.00     0.035 A 
HETATM    2  C   UNL     1      31.743  51.526  41.334  1.00  0.00     0.046 A 
HETATM    3  C   UNL     1      32.956  50.802  41.287  1.00  0.00     0.030 A 
HETATM    4  C   UNL     1      32.990  49.511  41.795  1.00  0.00     0.063 A 
HETATM    5  N   UNL     1      34.277  49.084  41.617  1.00  0.00    -0.277 N 
HETATM    6  H   UNL     1      34.667  48.185  41.876  1.00  0.00     0.189 HD
HETATM    7  N   UNL     1      35.084  49.982  41.026  1.00  0.00    -0.168 NA
HETATM    8  C   UNL     1      34.281  51.050  40.814  1.00  0.00     0.156 A 
HETATM    9  C   UNL     1      31.875  48.887  42.351  1.00  0.00     0.034 A 
HETATM   10  C   UNL     1      30.685  49.626  42.378  1.00  0.00     0.032 A 
ENDROOT
BRANCH   1  11
HETATM   11  N   UNL     1      29.332  51.546  41.971  1.00  0.00    -0.324 N 
HETATM   12  C   UNL     1      28.594  52.353  41.160  1.00  0.00     0.246 C 
HETATM   13  O   UNL     1      27.474  52.713  41.524  1.00  0.00    -0.268 OA
HETATM   14  H   UNL     1      28.823  51.377  42.831  1.00  0.00     0.169 HD
BRANCH  12  15
HETATM   15  C   UNL     1      29.100  52.767  39.840  1.00  0.00     0.082 C 
HETATM   16  C   UNL     1      29.025  51.987  38.746  1.00  0.00    -0.045 C 
HETATM   17  C   UNL     1      29.570  52.427  37.416  1.00  0.00     0.049 C 
BRANCH  16  18
HETATM   18  C   UNL     1      28.410  50.643  38.765  1.00  0.00    -0.008 A 
HETATM   19  C   UNL     1      29.157  49.453  38.753  1.00  0.00     0.044 A 
HETATM   20 CL   UNL     1      30.885  49.452  38.699  1.00  0.00    -0.083 Cl
HETATM   21  C   UNL     1      28.511  48.212  38.776  1.00  0.00     0.024 A 
HETATM   22  C   UNL     1      27.117  48.145  38.808  1.00  0.00     0.002 A 
HETATM   23  C   UNL     1      26.367  49.318  38.814  1.00  0.00     0.001 A 
HETATM   24  C   UNL     1      27.009  50.558  38.793  1.00  0.00     0.013 A 
ENDBRANCH  16  18
ENDBRANCH  12  15
ENDBRANCH   1  11
BRANCH   8  25
HETATM   25  C   UNL     1      34.780  52.268  40.164  1.00  0.00     0.270 C 
HETATM   26  N   UNL     1      35.761  52.914  40.866  1.00  0.00    -0.365 N 
HETATM   27  H   UNL     1      36.065  52.520  41.749  1.00  0.00     0.159 HD
HETATM   28  H   UNL     1      36.171  53.757  40.497  1.00  0.00     0.159 HD
HETATM   29  O   UNL     1      34.384  52.693  39.084  1.00  0.00    -0.266 OA
ENDBRANCH   8  25
TORSDOF 4
ENDMDL
MODEL 6
REMARK VINA RESULT:      -8.0     11.740     14.299
REMARK  4 active torsions:
REMARK  status: ('A' for Active; 'I' for Inactive)
REMARK    1  A    between atoms: C_2  and  C_3 
REMARK    2  A    between atoms: C_10  and  C_11 
REMARK       I    between atoms: C_11  and  N_12 
REMARK    3  A    between atoms: N_12  and  C_13 
REMARK    4  A    between atoms: C_20  and  C_21 
REMARK       I    between atoms: C_21  and  N_22 
ROOT
HETATM    1  C   UNL     1      30.489  52.159  39.923  1.00  0.00     0.035 A 
HETATM    2  C   UNL     1      29.826  51.073  39.343  1.00  0.00     0.046 A 
HETATM    3  C   UNL     1      28.469  50.827  39.654  1.00  0.00     0.030 A 
HETATM    4  C   UNL     1      27.818  51.669  40.544  1.00  0.00     0.063 A 
HETATM    5  N   UNL     1      26.546  51.178  40.644  1.00  0.00    -0.277 N 
HETATM    6  H   UNL     1      25.790  51.544  41.212  1.00  0.00     0.189 HD
HETATM    7  N   UNL     1      26.308  50.093  39.888  1.00  0.00    -0.168 NA
HETATM    8  C   UNL     1      27.488  49.864  39.269  1.00  0.00     0.156 A 
HETATM    9  C   UNL     1      28.441  52.760  41.147  1.00  0.00     0.034 A 
HETATM   10  C   UNL     1      29.784  52.984  40.816  1.00  0.00     0.032 A 
ENDROOT
BRANCH   1  11
HETATM   11  N   UNL     1      31.830  52.518  39.687  1.00  0.00    -0.324 N 
HETATM   12  C   UNL     1      33.012  51.842  39.652  1.00  0.00     0.246 C 
HETATM   13  O   UNL     1      34.049  52.451  39.386  1.00  0.00    -0.268 OA
HETATM   14  H   UNL     1      32.000  53.501  39.507  1.00  0.00     0.169 HD
BRANCH  12  15
HETATM   15  C   UNL     1      33.062  50.389  39.889  1.00  0.00     0.082 C 
HETATM   16  C   UNL     1      33.197  49.848  41.114  1.00  0.00    -0.045 C 
HETATM   17  C   UNL     1      33.267  48.361  41.324  1.00  0.00     0.049 C 
BRANCH  16  18
HETATM   18  C   UNL     1      33.291  50.666  42.341  1.00  0.00    -0.008 A 
HETATM   19  C   UNL     1      34.490  51.243  42.795  1.00  0.00     0.044 A 
HETATM   20 CL   UNL     1      35.986  51.032  41.954  1.00  0.00    -0.083 Cl
HETATM   21  C   UNL     1      34.508  52.010  43.964  1.00  0.00     0.024 A 
HETATM   22  C   UNL     1      33.335  52.207  44.694  1.00  0.00     0.002 A 
HETATM   23  C   UNL     1      32.143  51.635  44.258  1.00  0.00     0.001 A 
HETATM   24  C   UNL     1      32.121  50.871  43.090  1.00  0.00     0.013 A 
ENDBRANCH  16  18
ENDBRANCH  12  15
ENDBRANCH   1  11
BRANCH   8  25
HETATM   25  C   UNL     1      27.655  48.751  38.324  1.00  0.00     0.270 C 
HETATM   26  N   UNL     1      26.647  48.644  37.405  1.00  0.00    -0.365 N 
HETATM   27  H   UNL     1      25.889  49.315  37.436  1.00  0.00     0.159 HD
HETATM   28  H   UNL     1      26.677  47.915  36.710  1.00  0.00     0.159 HD
HETATM   29  O   UNL     1      28.605  47.975  38.324  1.00  0.00    -0.266 OA
ENDBRANCH   8  25
TORSDOF 4
ENDMDL
MODEL 7
REMARK VINA RESULT:      -8.0      6.916      9.847
REMARK  4 active torsions:
REMARK  status: ('A' for Active; 'I' for Inactive)
REMARK    1  A    between atoms: C_2  and  C_3 
REMARK    2  A    between atoms: C_10  and  C_11 
REMARK       I    between atoms: C_11  and  N_12 
REMARK    3  A    between atoms: N_12  and  C_13 
REMARK    4  A    between atoms: C_20  and  C_21 
REMARK       I    between atoms: C_21  and  N_22 
ROOT
HETATM    1  C   UNL     1      26.287  44.632  50.505  1.00  0.00     0.035 A 
HETATM    2  C   UNL     1      25.454  43.764  49.792  1.00  0.00     0.046 A 
HETATM    3  C   UNL     1      24.183  44.204  49.357  1.00  0.00     0.030 A 
HETATM    4  C   UNL     1      23.779  45.497  49.657  1.00  0.00     0.063 A 
HETATM    5  N   UNL     1      22.527  45.620  49.120  1.00  0.00    -0.277 N 
HETATM    6  H   UNL     1      21.923  46.434  49.150  1.00  0.00     0.189 HD
HETATM    7  N   UNL     1      22.084  44.521  48.486  1.00  0.00    -0.168 NA
HETATM    8  C   UNL     1      23.098  43.636  48.623  1.00  0.00     0.156 A 
HETATM    9  C   UNL     1      24.574  46.393  50.368  1.00  0.00     0.034 A 
HETATM   10  C   UNL     1      25.832  45.933  50.781  1.00  0.00     0.032 A 
ENDROOT
BRANCH   1  11
HETATM   11  N   UNL     1      27.576  44.321  50.980  1.00  0.00    -0.324 N 
HETATM   12  C   UNL     1      28.064  43.673  52.075  1.00  0.00     0.246 C 
HETATM   13  O   UNL     1      29.281  43.537  52.202  1.00  0.00    -0.268 OA
HETATM   14  H   UNL     1      28.348  44.646  50.410  1.00  0.00     0.169 HD
BRANCH  12  15
HETATM   15  C   UNL     1      27.157  43.102  53.084  1.00  0.00     0.082 C 
HETATM   16  C   UNL     1      26.724  43.790  54.157  1.00  0.00    -0.045 C 
HETATM   17  C   UNL     1      25.815  43.173  55.184  1.00  0.00     0.049 C 
BRANCH  16  18
HETATM   18  C   UNL     1      27.106  45.194  54.412  1.00  0.00    -0.008 A 
HETATM   19  C   UNL     1      28.353  45.571  54.939  1.00  0.00     0.044 A 
HETATM   20 CL   UNL     1      29.563  44.408  55.358  1.00  0.00    -0.083 Cl
HETATM   21  C   UNL     1      28.653  46.921  55.153  1.00  0.00     0.024 A 
HETATM   22  C   UNL     1      27.713  47.906  54.846  1.00  0.00     0.002 A 
HETATM   23  C   UNL     1      26.472  47.544  54.329  1.00  0.00     0.001 A 
HETATM   24  C   UNL     1      26.171  46.198  54.112  1.00  0.00     0.013 A 
ENDBRANCH  16  18
ENDBRANCH  12  15
ENDBRANCH   1  11
BRANCH   8  25
HETATM   25  C   UNL     1      23.021  42.286  48.050  1.00  0.00     0.270 C 
HETATM   26  N   UNL     1      22.590  42.255  46.752  1.00  0.00    -0.365 N 
HETATM   27  H   UNL     1      22.368  43.130  46.294  1.00  0.00     0.159 HD
HETATM   28  H   UNL     1      22.511  41.373  46.271  1.00  0.00     0.159 HD
HETATM   29  O   UNL     1      23.317  41.258  48.650  1.00  0.00    -0.266 OA
ENDBRANCH   8  25
TORSDOF 4
ENDMDL
MODEL 8
REMARK VINA RESULT:      -7.9     10.271     12.809
REMARK  4 active torsions:
REMARK  status: ('A' for Active; 'I' for Inactive)
REMARK    1  A    between atoms: C_2  and  C_3 
REMARK    2  A    between atoms: C_10  and  C_11 
REMARK       I    between atoms: C_11  and  N_12 
REMARK    3  A    between atoms: N_12  and  C_13 
REMARK    4  A    between atoms: C_20  and  C_21 
REMARK       I    between atoms: C_21  and  N_22 
ROOT
HETATM    1  C   UNL     1      27.049  48.967  38.757  1.00  0.00     0.035 A 
HETATM    2  C   UNL     1      25.760  49.509  38.741  1.00  0.00     0.046 A 
HETATM    3  C   UNL     1      24.702  48.835  39.393  1.00  0.00     0.030 A 
HETATM    4  C   UNL     1      24.963  47.632  40.033  1.00  0.00     0.063 A 
HETATM    5  N   UNL     1      23.764  47.229  40.552  1.00  0.00    -0.277 N 
HETATM    6  H   UNL     1      23.577  46.386  41.084  1.00  0.00     0.189 HD
HETATM    7  N   UNL     1      22.744  48.070  40.312  1.00  0.00    -0.168 NA
HETATM    8  C   UNL     1      23.309  49.069  39.597  1.00  0.00     0.156 A 
HETATM    9  C   UNL     1      26.231  47.054  40.071  1.00  0.00     0.034 A 
HETATM   10  C   UNL     1      27.262  47.747  39.422  1.00  0.00     0.032 A 
ENDROOT
BRANCH   1  11
HETATM   11  N   UNL     1      28.185  49.545  38.159  1.00  0.00    -0.324 N 
HETATM   12  C   UNL     1      28.827  50.741  38.275  1.00  0.00     0.246 C 
HETATM   13  O   UNL     1      29.844  50.947  37.612  1.00  0.00    -0.268 OA
HETATM   14  H   UNL     1      28.659  48.975  37.468  1.00  0.00     0.169 HD
BRANCH  12  15
HETATM   15  C   UNL     1      28.344  51.772  39.209  1.00  0.00     0.082 C 
HETATM   16  C   UNL     1      28.700  51.813  40.507  1.00  0.00    -0.045 C 
HETATM   17  C   UNL     1      28.174  52.865  41.443  1.00  0.00     0.049 C 
BRANCH  16  18
HETATM   18  C   UNL     1      29.626  50.833  41.112  1.00  0.00    -0.008 A 
HETATM   19  C   UNL     1      31.023  50.977  41.090  1.00  0.00     0.044 A 
HETATM   20 CL   UNL     1      31.797  52.324  40.330  1.00  0.00    -0.083 Cl
HETATM   21  C   UNL     1      31.844  50.012  41.685  1.00  0.00     0.024 A 
HETATM   22  C   UNL     1      31.280  48.896  42.304  1.00  0.00     0.002 A 
HETATM   23  C   UNL     1      29.897  48.740  42.326  1.00  0.00     0.001 A 
HETATM   24  C   UNL     1      29.076  49.702  41.736  1.00  0.00     0.013 A 
ENDBRANCH  16  18
ENDBRANCH  12  15
ENDBRANCH   1  11
BRANCH   8  25
HETATM   25  C   UNL     1      22.523  50.222  39.137  1.00  0.00     0.270 C 
HETATM   26  N   UNL     1      22.472  51.256  40.032  1.00  0.00    -0.365 N 
HETATM   27  H   UNL     1      22.963  51.159  40.912  1.00  0.00     0.159 HD
HETATM   28  H   UNL     1      21.961  52.093  39.802  1.00  0.00     0.159 HD
HETATM   29  O   UNL     1      21.959  50.289  38.050  1.00  0.00    -0.266 OA
ENDBRANCH   8  25
TORSDOF 4
ENDMDL
MODEL 9
REMARK VINA RESULT:      -7.9      7.709     10.046
REMARK  4 active torsions:
REMARK  status: ('A' for Active; 'I' for Inactive)
REMARK    1  A    between atoms: C_2  and  C_3 
REMARK    2  A    between atoms: C_10  and  C_11 
REMARK       I    between atoms: C_11  and  N_12 
REMARK    3  A    between atoms: N_12  and  C_13 
REMARK    4  A    between atoms: C_20  and  C_21 
REMARK       I    between atoms: C_21  and  N_22 
ROOT
HETATM    1  C   UNL     1      27.310  43.722  53.924  1.00  0.00     0.035 A 
HETATM    2  C   UNL     1      27.885  44.459  54.964  1.00  0.00     0.046 A 
HETATM    3  C   UNL     1      29.236  44.244  55.318  1.00  0.00     0.030 A 
HETATM    4  C   UNL     1      29.971  43.290  54.627  1.00  0.00     0.063 A 
HETATM    5  N   UNL     1      31.215  43.310  55.194  1.00  0.00    -0.277 N 
HETATM    6  H   UNL     1      32.013  42.738  54.942  1.00  0.00     0.189 HD
HETATM    7  N   UNL     1      31.359  44.201  56.189  1.00  0.00    -0.168 NA
HETATM    8  C   UNL     1      30.143  44.787  56.277  1.00  0.00     0.156 A 
HETATM    9  C   UNL     1      29.437  42.531  53.588  1.00  0.00     0.034 A 
HETATM   10  C   UNL     1      28.097  42.770  53.253  1.00  0.00     0.032 A 
ENDROOT
BRANCH   1  11
HETATM   11  N   UNL     1      25.984  43.850  53.468  1.00  0.00    -0.324 N 
HETATM   12  C   UNL     1      25.366  44.599  52.513  1.00  0.00     0.246 C 
HETATM   13  O   UNL     1      24.155  44.466  52.331  1.00  0.00    -0.268 OA
HETATM   14  H   UNL     1      25.296  43.276  53.942  1.00  0.00     0.169 HD
BRANCH  12  15
HETATM   15  C   UNL     1      26.131  45.535  51.671  1.00  0.00     0.082 C 
HETATM   16  C   UNL     1      26.447  45.279  50.388  1.00  0.00    -0.045 C 
HETATM   17  C   UNL     1      27.249  46.244  49.559  1.00  0.00     0.049 C 
BRANCH  16  18
HETATM   18  C   UNL     1      26.039  44.038  49.698  1.00  0.00    -0.008 A 
HETATM   19  C   UNL     1      24.820  43.903  49.011  1.00  0.00     0.044 A 
HETATM   20 CL   UNL     1      23.667  45.188  48.924  1.00  0.00    -0.083 Cl
HETATM   21  C   UNL     1      24.496  42.699  48.375  1.00  0.00     0.024 A 
HETATM   22  C   UNL     1      25.380  41.621  48.419  1.00  0.00     0.002 A 
HETATM   23  C   UNL     1      26.587  41.741  49.102  1.00  0.00     0.001 A 
HETATM   24  C   UNL     1      26.915  42.942  49.736  1.00  0.00     0.013 A 
ENDBRANCH  16  18
ENDBRANCH  12  15
ENDBRANCH   1  11
BRANCH   8  25
HETATM   25  C   UNL     1      29.874  45.851  57.254  1.00  0.00     0.270 C 
HETATM   26  N   UNL     1      28.592  46.328  57.221  1.00  0.00    -0.365 N 
HETATM   27  H   UNL     1      27.943  45.928  56.553  1.00  0.00     0.159 HD
HETATM   28  H   UNL     1      28.310  47.055  57.858  1.00  0.00     0.159 HD
HETATM   29  O   UNL     1      30.698  46.289  58.050  1.00  0.00    -0.266 OA
ENDBRANCH   8  25
TORSDOF 4
ENDMDL
MODEL 10
REMARK VINA RESULT:      -7.7      7.666     10.081
REMARK  4 active torsions:
REMARK  status: ('A' for Active; 'I' for Inactive)
REMARK    1  A    between atoms: C_2  and  C_3 
REMARK    2  A    between atoms: C_10  and  C_11 
REMARK       I    between atoms: C_11  and  N_12 
REMARK    3  A    between atoms: N_12  and  C_13 
REMARK    4  A    between atoms: C_20  and  C_21 
REMARK       I    between atoms: C_21  and  N_22 
ROOT
HETATM    1  C   UNL     1      26.387  45.302  54.170  1.00  0.00     0.035 A 
HETATM    2  C   UNL     1      27.537  44.555  54.444  1.00  0.00     0.046 A 
HETATM    3  C   UNL     1      28.585  45.125  55.202  1.00  0.00     0.030 A 
HETATM    4  C   UNL     1      28.456  46.431  55.655  1.00  0.00     0.063 A 
HETATM    5  N   UNL     1      29.611  46.694  56.337  1.00  0.00    -0.277 N 
HETATM    6  H   UNL     1      29.866  47.558  56.802  1.00  0.00     0.189 HD
HETATM    7  N   UNL     1      30.480  45.670  56.376  1.00  0.00    -0.168 NA
HETATM    8  C   UNL     1      29.859  44.691  55.679  1.00  0.00     0.156 A 
HETATM    9  C   UNL     1      27.330  47.212  55.402  1.00  0.00     0.034 A 
HETATM   10  C   UNL     1      26.304  46.619  54.654  1.00  0.00     0.032 A 
ENDROOT
BRANCH   1  11
HETATM   11  N   UNL     1      25.272  44.846  53.440  1.00  0.00    -0.324 N 
HETATM   12  C   UNL     1      24.853  44.972  52.150  1.00  0.00     0.246 C 
HETATM   13  O   UNL     1      23.810  44.419  51.798  1.00  0.00    -0.268 OA
HETATM   14  H   UNL     1      24.594  44.303  53.963  1.00  0.00     0.169 HD
BRANCH  12  15
HETATM   15  C   UNL     1      25.648  45.724  51.165  1.00  0.00     0.082 C 
HETATM   16  C   UNL     1      26.642  45.171  50.445  1.00  0.00    -0.045 C 
HETATM   17  C   UNL     1      27.451  45.969  49.461  1.00  0.00     0.049 C 
BRANCH  16  18
HETATM   18  C   UNL     1      27.015  43.746  50.564  1.00  0.00    -0.008 A 
HETATM   19  C   UNL     1      26.371  42.718  49.856  1.00  0.00     0.044 A 
HETATM   20 CL   UNL     1      25.056  43.029  48.777  1.00  0.00    -0.083 Cl
HETATM   21  C   UNL     1      26.777  41.388  50.013  1.00  0.00     0.024 A 
HETATM   22  C   UNL     1      27.826  41.071  50.878  1.00  0.00     0.002 A 
HETATM   23  C   UNL     1      28.467  42.081  51.590  1.00  0.00     0.001 A 
HETATM   24  C   UNL     1      28.065  43.409  51.433  1.00  0.00     0.013 A 
ENDBRANCH  16  18
ENDBRANCH  12  15
ENDBRANCH   1  11
BRANCH   8  25
HETATM   25  C   UNL     1      30.477  43.372  55.492  1.00  0.00     0.270 C 
HETATM   26  N   UNL     1      31.248  42.962  56.546  1.00  0.00    -0.365 N 
HETATM   27  H   UNL     1      31.332  43.572  57.350  1.00  0.00     0.159 HD
HETATM   28  H   UNL     1      31.708  42.067  56.512  1.00  0.00     0.159 HD
HETATM   29  O   UNL     1      30.330  42.670  54.497  1.00  0.00    -0.266 OA
ENDBRANCH   8  25
TORSDOF 4
ENDMDL
