MODEL 1
REMARK VINA RESULT:      -9.1      0.000      0.000
REMARK  2 active torsions:
REMARK  status: ('A' for Active; 'I' for Inactive)
REMARK    1  A    between atoms: C_15  and  C_16 
REMARK    2  A    between atoms: C_19  and  O_20 
ROOT
HETATM    1  C   UNL     1      32.549  43.505  57.092  1.00  0.00     0.048 C 
HETATM    2  C   UNL     1      31.217  44.095  56.727  1.00  0.00    -0.061 A 
HETATM    3  C   UNL     1      30.600  43.734  55.517  1.00  0.00     0.021 A 
HETATM    4  C   UNL     1      29.365  44.310  55.160  1.00  0.00    -0.000 A 
HETATM    5  C   UNL     1      28.774  45.225  56.037  1.00  0.00     0.043 A 
HETATM    6  N   UNL     1      27.571  45.615  55.485  1.00  0.00    -0.353 N 
HETATM    7  H   UNL     1      26.923  46.275  55.893  1.00  0.00     0.166 HD
HETATM    8  C   UNL     1      27.445  45.057  54.251  1.00  0.00     0.066 A 
HETATM    9  C   UNL     1      28.512  44.207  54.027  1.00  0.00    -0.017 A 
HETATM   10  C   UNL     1      28.654  43.425  52.749  1.00  0.00     0.043 C 
HETATM   11  C   UNL     1      27.396  43.560  51.834  1.00  0.00     0.018 C 
HETATM   12  C   UNL     1      26.856  45.004  51.854  1.00  0.00     0.065 A 
HETATM   13  C   UNL     1      26.439  45.263  53.268  1.00  0.00     0.082 A 
HETATM   14  N   UNL     1      25.191  45.505  53.487  1.00  0.00    -0.203 NA
HETATM   15  C   UNL     1      25.535  45.299  51.135  1.00  0.00     0.121 A 
HETATM   16  N   UNL     1      24.600  45.496  52.265  1.00  0.00    -0.207 NA
HETATM   17  C   UNL     1      29.380  45.621  57.234  1.00  0.00     0.031 A 
HETATM   18  C   UNL     1      30.615  45.047  57.556  1.00  0.00     0.009 A 
HETATM   19  H   UNL     1      23.808  44.853  52.225  1.00  0.00     0.149 HD
ENDROOT
BRANCH  15  20
HETATM   20  C   UNL     1      25.614  46.545  50.251  1.00  0.00    -0.038 A 
HETATM   21  C   UNL     1      26.853  47.067  49.839  1.00  0.00     0.011 A 
HETATM   22  C   UNL     1      26.931  48.268  49.122  1.00  0.00     0.037 A 
HETATM   23  C   UNL     1      25.767  48.950  48.779  1.00  0.00     0.068 A 
HETATM   24  C   UNL     1      24.528  48.396  49.084  1.00  0.00     0.037 A 
HETATM   25  C   UNL     1      24.451  47.207  49.815  1.00  0.00     0.011 A 
BRANCH  23  26
HETATM   26  O   UNL     1      25.748  50.142  48.107  1.00  0.00    -0.356 OA
HETATM   27  C   UNL     1      24.442  50.532  47.685  1.00  0.00     0.210 C 
ENDBRANCH  23  26
ENDBRANCH  15  20
TORSDOF 2
ENDMDL
MODEL 2
REMARK VINA RESULT:      -8.6      7.150     13.102
REMARK  2 active torsions:
REMARK  status: ('A' for Active; 'I' for Inactive)
REMARK    1  A    between atoms: C_15  and  C_16 
REMARK    2  A    between atoms: C_19  and  O_20 
ROOT
HETATM    1  C   UNL     1      13.376  53.741  45.332  1.00  0.00     0.048 C 
HETATM    2  C   UNL     1      14.247  52.592  45.752  1.00  0.00    -0.061 A 
HETATM    3  C   UNL     1      15.191  52.768  46.779  1.00  0.00     0.021 A 
HETATM    4  C   UNL     1      16.028  51.699  47.152  1.00  0.00    -0.000 A 
HETATM    5  C   UNL     1      15.887  50.474  46.491  1.00  0.00     0.043 A 
HETATM    6  N   UNL     1      16.785  49.591  47.054  1.00  0.00    -0.353 N 
HETATM    7  H   UNL     1      16.914  48.627  46.777  1.00  0.00     0.166 HD
HETATM    8  C   UNL     1      17.550  50.251  47.964  1.00  0.00     0.066 A 
HETATM    9  C   UNL     1      17.087  51.548  48.089  1.00  0.00    -0.017 A 
HETATM   10  C   UNL     1      17.720  52.533  49.035  1.00  0.00     0.043 C 
HETATM   11  C   UNL     1      18.799  51.865  49.944  1.00  0.00     0.018 C 
HETATM   12  C   UNL     1      19.636  50.846  49.143  1.00  0.00     0.065 A 
HETATM   13  C   UNL     1      18.673  49.788  48.702  1.00  0.00     0.082 A 
HETATM   14  N   UNL     1      18.861  48.590  49.140  1.00  0.00    -0.203 NA
HETATM   15  C   UNL     1      20.646  49.978  49.900  1.00  0.00     0.121 A 
HETATM   16  N   UNL     1      19.992  48.651  49.890  1.00  0.00    -0.207 NA
HETATM   17  C   UNL     1      14.975  50.282  45.449  1.00  0.00     0.031 A 
HETATM   18  C   UNL     1      14.167  51.365  45.086  1.00  0.00     0.009 A 
HETATM   19  H   UNL     1      19.848  48.287  50.833  1.00  0.00     0.149 HD
ENDROOT
BRANCH  15  20
HETATM   20  C   UNL     1      22.013  49.932  49.211  1.00  0.00    -0.038 A 
HETATM   21  C   UNL     1      22.932  48.905  49.489  1.00  0.00     0.011 A 
HETATM   22  C   UNL     1      24.222  48.920  48.944  1.00  0.00     0.037 A 
HETATM   23  C   UNL     1      24.603  49.950  48.088  1.00  0.00     0.068 A 
HETATM   24  C   UNL     1      23.675  50.917  47.717  1.00  0.00     0.037 A 
HETATM   25  C   UNL     1      22.393  50.911  48.275  1.00  0.00     0.011 A 
BRANCH  23  26
HETATM   26  O   UNL     1      25.848  50.063  47.533  1.00  0.00    -0.356 OA
HETATM   27  C   UNL     1      26.904  49.813  48.458  1.00  0.00     0.210 C 
ENDBRANCH  23  26
ENDBRANCH  15  20
TORSDOF 2
ENDMDL
MODEL 3
REMARK VINA RESULT:      -8.6      4.001      6.743
REMARK  2 active torsions:
REMARK  status: ('A' for Active; 'I' for Inactive)
REMARK    1  A    between atoms: C_15  and  C_16 
REMARK    2  A    between atoms: C_19  and  O_20 
ROOT
HETATM    1  C   UNL     1      27.987  44.138  53.200  1.00  0.00     0.048 C 
HETATM    2  C   UNL     1      26.783  44.315  52.321  1.00  0.00    -0.061 A 
HETATM    3  C   UNL     1      26.584  45.531  51.643  1.00  0.00     0.021 A 
HETATM    4  C   UNL     1      25.439  45.708  50.843  1.00  0.00    -0.000 A 
HETATM    5  C   UNL     1      24.528  44.653  50.732  1.00  0.00     0.043 A 
HETATM    6  N   UNL     1      23.524  45.057  49.877  1.00  0.00    -0.353 N 
HETATM    7  H   UNL     1      22.721  44.503  49.608  1.00  0.00     0.166 HD
HETATM    8  C   UNL     1      23.723  46.359  49.538  1.00  0.00     0.066 A 
HETATM    9  C   UNL     1      24.921  46.789  50.078  1.00  0.00    -0.017 A 
HETATM   10  C   UNL     1      25.432  48.189  49.869  1.00  0.00     0.043 C 
HETATM   11  C   UNL     1      24.555  48.990  48.854  1.00  0.00     0.018 C 
HETATM   12  C   UNL     1      23.058  48.689  49.067  1.00  0.00     0.065 A 
HETATM   13  C   UNL     1      22.892  47.229  48.780  1.00  0.00     0.082 A 
HETATM   14  N   UNL     1      22.133  46.897  47.792  1.00  0.00    -0.203 NA
HETATM   15  C   UNL     1      22.050  49.266  48.067  1.00  0.00     0.121 A 
HETATM   16  N   UNL     1      21.640  48.065  47.305  1.00  0.00    -0.207 NA
HETATM   17  C   UNL     1      24.689  43.444  51.417  1.00  0.00     0.031 A 
HETATM   18  C   UNL     1      25.826  43.301  52.220  1.00  0.00     0.009 A 
HETATM   19  H   UNL     1      21.814  48.168  46.304  1.00  0.00     0.149 HD
ENDROOT
BRANCH  15  20
HETATM   20  C   UNL     1      20.852  49.925  48.756  1.00  0.00    -0.038 A 
HETATM   21  C   UNL     1      19.959  49.172  49.539  1.00  0.00     0.011 A 
HETATM   22  C   UNL     1      18.804  49.751  50.078  1.00  0.00     0.037 A 
HETATM   23  C   UNL     1      18.539  51.102  49.869  1.00  0.00     0.068 A 
HETATM   24  C   UNL     1      19.463  51.887  49.188  1.00  0.00     0.037 A 
HETATM   25  C   UNL     1      20.607  51.305  48.634  1.00  0.00     0.011 A 
BRANCH  23  26
HETATM   26  O   UNL     1      17.424  51.744  50.332  1.00  0.00    -0.356 OA
HETATM   27  C   UNL     1      17.009  52.827  49.500  1.00  0.00     0.210 C 
ENDBRANCH  23  26
ENDBRANCH  15  20
TORSDOF 2
ENDMDL
MODEL 4
REMARK VINA RESULT:      -8.2     16.032     17.906
REMARK  2 active torsions:
REMARK  status: ('A' for Active; 'I' for Inactive)
REMARK    1  A    between atoms: C_15  and  C_16 
REMARK    2  A    between atoms: C_19  and  O_20 
ROOT
HETATM    1  C   UNL     1      37.158  51.233  68.374  1.00  0.00     0.048 C 
HETATM    2  C   UNL     1      37.381  50.263  67.249  1.00  0.00    -0.061 A 
HETATM    3  C   UNL     1      36.855  48.962  67.333  1.00  0.00     0.021 A 
HETATM    4  C   UNL     1      37.089  48.044  66.291  1.00  0.00    -0.000 A 
HETATM    5  C   UNL     1      37.835  48.460  65.184  1.00  0.00     0.043 A 
HETATM    6  N   UNL     1      37.895  47.404  64.299  1.00  0.00    -0.353 N 
HETATM    7  H   UNL     1      38.372  47.408  63.408  1.00  0.00     0.166 HD
HETATM    8  C   UNL     1      37.304  46.316  64.863  1.00  0.00     0.066 A 
HETATM    9  C   UNL     1      36.753  46.678  66.078  1.00  0.00    -0.017 A 
HETATM   10  C   UNL     1      36.014  45.694  66.943  1.00  0.00     0.043 C 
HETATM   11  C   UNL     1      35.807  44.321  66.228  1.00  0.00     0.018 C 
HETATM   12  C   UNL     1      37.065  43.925  65.429  1.00  0.00     0.065 A 
HETATM   13  C   UNL     1      37.229  44.980  64.381  1.00  0.00     0.082 A 
HETATM   14  N   UNL     1      37.147  44.615  63.147  1.00  0.00    -0.203 NA
HETATM   15  C   UNL     1      36.999  42.681  64.537  1.00  0.00     0.121 A 
HETATM   16  N   UNL     1      36.968  43.269  63.179  1.00  0.00    -0.207 NA
HETATM   17  C   UNL     1      38.392  49.740  65.090  1.00  0.00     0.031 A 
HETATM   18  C   UNL     1      38.159  50.627  66.146  1.00  0.00     0.009 A 
HETATM   19  H   UNL     1      36.142  42.978  62.654  1.00  0.00     0.149 HD
ENDROOT
BRANCH  15  20
HETATM   20  C   UNL     1      38.210  41.763  64.720  1.00  0.00    -0.038 A 
HETATM   21  C   UNL     1      39.500  42.291  64.910  1.00  0.00     0.011 A 
HETATM   22  C   UNL     1      40.623  41.456  64.968  1.00  0.00     0.037 A 
HETATM   23  C   UNL     1      40.470  40.075  64.866  1.00  0.00     0.068 A 
HETATM   24  C   UNL     1      39.194  39.528  64.785  1.00  0.00     0.037 A 
HETATM   25  C   UNL     1      38.075  40.363  64.709  1.00  0.00     0.011 A 
BRANCH  23  26
HETATM   26  O   UNL     1      41.509  39.186  64.883  1.00  0.00    -0.356 OA
HETATM   27  C   UNL     1      41.172  37.912  64.337  1.00  0.00     0.210 C 
ENDBRANCH  23  26
ENDBRANCH  15  20
TORSDOF 2
ENDMDL
MODEL 5
REMARK VINA RESULT:      -8.2      5.010      6.558
REMARK  2 active torsions:
REMARK  status: ('A' for Active; 'I' for Inactive)
REMARK    1  A    between atoms: C_15  and  C_16 
REMARK    2  A    between atoms: C_19  and  O_20 
ROOT
HETATM    1  C   UNL     1      29.376  46.023  55.724  1.00  0.00     0.048 C 
HETATM    2  C   UNL     1      28.478  45.272  54.783  1.00  0.00    -0.061 A 
HETATM    3  C   UNL     1      28.898  44.043  54.246  1.00  0.00     0.021 A 
HETATM    4  C   UNL     1      28.068  43.354  53.341  1.00  0.00    -0.000 A 
HETATM    5  C   UNL     1      26.829  43.912  53.008  1.00  0.00     0.043 A 
HETATM    6  N   UNL     1      26.199  43.042  52.142  1.00  0.00    -0.353 N 
HETATM    7  H   UNL     1      25.287  43.181  51.728  1.00  0.00     0.166 HD
HETATM    8  C   UNL     1      27.044  42.018  51.844  1.00  0.00     0.066 A 
HETATM    9  C   UNL     1      28.196  42.148  52.598  1.00  0.00    -0.017 A 
HETATM   10  C   UNL     1      29.325  41.157  52.505  1.00  0.00     0.043 C 
HETATM   11  C   UNL     1      28.955  39.925  51.621  1.00  0.00     0.018 C 
HETATM   12  C   UNL     1      28.146  40.362  50.383  1.00  0.00     0.065 A 
HETATM   13  C   UNL     1      26.879  40.956  50.914  1.00  0.00     0.082 A 
HETATM   14  N   UNL     1      25.771  40.374  50.604  1.00  0.00    -0.203 NA
HETATM   15  C   UNL     1      27.562  39.276  49.473  1.00  0.00     0.121 A 
HETATM   16  N   UNL     1      26.117  39.346  49.786  1.00  0.00    -0.207 NA
HETATM   17  C   UNL     1      26.401  45.146  53.507  1.00  0.00     0.031 A 
HETATM   18  C   UNL     1      27.252  45.818  54.391  1.00  0.00     0.009 A 
HETATM   19  H   UNL     1      25.752  38.452  50.116  1.00  0.00     0.149 HD
ENDROOT
BRANCH  15  20
HETATM   20  C   UNL     1      27.826  39.547  47.990  1.00  0.00    -0.038 A 
HETATM   21  C   UNL     1      28.032  40.855  47.517  1.00  0.00     0.011 A 
HETATM   22  C   UNL     1      28.164  41.117  46.148  1.00  0.00     0.037 A 
HETATM   23  C   UNL     1      28.123  40.070  45.231  1.00  0.00     0.068 A 
HETATM   24  C   UNL     1      28.027  38.760  45.687  1.00  0.00     0.037 A 
HETATM   25  C   UNL     1      27.877  38.500  47.053  1.00  0.00     0.011 A 
BRANCH  23  26
HETATM   26  O   UNL     1      28.214  40.234  43.876  1.00  0.00    -0.356 OA
HETATM   27  C   UNL     1      29.500  40.678  43.446  1.00  0.00     0.210 C 
ENDBRANCH  23  26
ENDBRANCH  15  20
TORSDOF 2
ENDMDL
MODEL 6
REMARK VINA RESULT:      -7.7     12.638     15.462
REMARK  2 active torsions:
REMARK  status: ('A' for Active; 'I' for Inactive)
REMARK    1  A    between atoms: C_15  and  C_16 
REMARK    2  A    between atoms: C_19  and  O_20 
ROOT
HETATM    1  C   UNL     1      21.413  46.925  38.555  1.00  0.00     0.048 C 
HETATM    2  C   UNL     1      22.550  47.901  38.454  1.00  0.00    -0.061 A 
HETATM    3  C   UNL     1      23.876  47.434  38.480  1.00  0.00     0.021 A 
HETATM    4  C   UNL     1      24.943  48.351  38.416  1.00  0.00    -0.000 A 
HETATM    5  C   UNL     1      24.650  49.715  38.313  1.00  0.00     0.043 A 
HETATM    6  N   UNL     1      25.848  50.394  38.233  1.00  0.00    -0.353 N 
HETATM    7  H   UNL     1      25.952  51.397  38.154  1.00  0.00     0.166 HD
HETATM    8  C   UNL     1      26.872  49.513  38.388  1.00  0.00     0.066 A 
HETATM    9  C   UNL     1      26.359  48.231  38.460  1.00  0.00    -0.017 A 
HETATM   10  C   UNL     1      27.246  47.026  38.620  1.00  0.00     0.043 C 
HETATM   11  C   UNL     1      28.760  47.391  38.512  1.00  0.00     0.018 C 
HETATM   12  C   UNL     1      29.055  48.724  39.229  1.00  0.00     0.065 A 
HETATM   13  C   UNL     1      28.268  49.763  38.494  1.00  0.00     0.082 A 
HETATM   14  N   UNL     1      28.924  50.705  37.906  1.00  0.00    -0.203 NA
HETATM   15  C   UNL     1      30.459  49.324  39.103  1.00  0.00     0.121 A 
HETATM   16  N   UNL     1      30.231  50.472  38.197  1.00  0.00    -0.207 NA
HETATM   17  C   UNL     1      23.340  50.206  38.313  1.00  0.00     0.031 A 
HETATM   18  C   UNL     1      22.299  49.275  38.396  1.00  0.00     0.009 A 
HETATM   19  H   UNL     1      30.808  50.418  37.356  1.00  0.00     0.149 HD
ENDROOT
BRANCH  15  20
HETATM   20  C   UNL     1      31.026  49.781  40.449  1.00  0.00    -0.038 A 
HETATM   21  C   UNL     1      31.398  48.848  41.434  1.00  0.00     0.011 A 
HETATM   22  C   UNL     1      31.812  49.265  42.706  1.00  0.00     0.037 A 
HETATM   23  C   UNL     1      31.890  50.623  43.002  1.00  0.00     0.068 A 
HETATM   24  C   UNL     1      31.629  51.561  42.009  1.00  0.00     0.037 A 
HETATM   25  C   UNL     1      31.198  51.145  40.746  1.00  0.00     0.011 A 
BRANCH  23  26
HETATM   26  O   UNL     1      32.256  51.121  44.223  1.00  0.00    -0.356 OA
HETATM   27  C   UNL     1      33.475  51.860  44.189  1.00  0.00     0.210 C 
ENDBRANCH  23  26
ENDBRANCH  15  20
TORSDOF 2
ENDMDL
MODEL 7
REMARK VINA RESULT:      -7.7      8.022     13.780
REMARK  2 active torsions:
REMARK  status: ('A' for Active; 'I' for Inactive)
REMARK    1  A    between atoms: C_15  and  C_16 
REMARK    2  A    between atoms: C_19  and  O_20 
ROOT
HETATM    1  C   UNL     1      11.957  49.921  43.387  1.00  0.00     0.048 C 
HETATM    2  C   UNL     1      12.997  49.173  44.170  1.00  0.00    -0.061 A 
HETATM    3  C   UNL     1      13.668  49.810  45.229  1.00  0.00     0.021 A 
HETATM    4  C   UNL     1      14.665  49.119  45.943  1.00  0.00    -0.000 A 
HETATM    5  C   UNL     1      14.954  47.798  45.585  1.00  0.00     0.043 A 
HETATM    6  N   UNL     1      15.928  47.335  46.445  1.00  0.00    -0.353 N 
HETATM    7  H   UNL     1      16.340  46.412  46.425  1.00  0.00     0.166 HD
HETATM    8  C   UNL     1      16.329  48.353  47.253  1.00  0.00     0.066 A 
HETATM    9  C   UNL     1      15.543  49.463  47.008  1.00  0.00    -0.017 A 
HETATM   10  C   UNL     1      15.731  50.755  47.757  1.00  0.00     0.043 C 
HETATM   11  C   UNL     1      16.762  50.615  48.921  1.00  0.00     0.018 C 
HETATM   12  C   UNL     1      17.955  49.736  48.493  1.00  0.00     0.065 A 
HETATM   13  C   UNL     1      17.382  48.383  48.209  1.00  0.00     0.082 A 
HETATM   14  N   UNL     1      17.781  47.399  48.941  1.00  0.00    -0.203 NA
HETATM   15  C   UNL     1      18.998  49.359  49.550  1.00  0.00     0.121 A 
HETATM   16  N   UNL     1      18.708  47.927  49.782  1.00  0.00    -0.207 NA
HETATM   17  C   UNL     1      14.320  47.152  44.519  1.00  0.00     0.031 A 
HETATM   18  C   UNL     1      13.346  47.867  43.814  1.00  0.00     0.009 A 
HETATM   19  H   UNL     1      18.493  47.732  50.761  1.00  0.00     0.149 HD
ENDROOT
BRANCH  15  20
HETATM   20  C   UNL     1      20.433  49.565  49.058  1.00  0.00    -0.038 A 
HETATM   21  C   UNL     1      20.989  50.853  48.958  1.00  0.00     0.011 A 
HETATM   22  C   UNL     1      22.261  51.052  48.406  1.00  0.00     0.037 A 
HETATM   23  C   UNL     1      23.010  49.961  47.972  1.00  0.00     0.068 A 
HETATM   24  C   UNL     1      22.522  48.673  48.160  1.00  0.00     0.037 A 
HETATM   25  C   UNL     1      21.245  48.475  48.695  1.00  0.00     0.011 A 
BRANCH  23  26
HETATM   26  O   UNL     1      24.246  50.062  47.395  1.00  0.00    -0.356 OA
HETATM   27  C   UNL     1      25.314  49.755  48.289  1.00  0.00     0.210 C 
ENDBRANCH  23  26
ENDBRANCH  15  20
TORSDOF 2
ENDMDL
MODEL 8
REMARK VINA RESULT:      -7.6      4.627      5.590
REMARK  2 active torsions:
REMARK  status: ('A' for Active; 'I' for Inactive)
REMARK    1  A    between atoms: C_15  and  C_16 
REMARK    2  A    between atoms: C_19  and  O_20 
ROOT
HETATM    1  C   UNL     1      29.866  38.178  48.834  1.00  0.00     0.048 C 
HETATM    2  C   UNL     1      28.906  39.079  49.556  1.00  0.00    -0.061 A 
HETATM    3  C   UNL     1      27.850  39.683  48.851  1.00  0.00     0.021 A 
HETATM    4  C   UNL     1      26.967  40.552  49.520  1.00  0.00    -0.000 A 
HETATM    5  C   UNL     1      27.159  40.781  50.887  1.00  0.00     0.043 A 
HETATM    6  N   UNL     1      26.157  41.630  51.312  1.00  0.00    -0.353 N 
HETATM    7  H   UNL     1      26.040  41.976  52.255  1.00  0.00     0.166 HD
HETATM    8  C   UNL     1      25.416  42.018  50.240  1.00  0.00     0.066 A 
HETATM    9  C   UNL     1      25.854  41.340  49.117  1.00  0.00    -0.017 A 
HETATM   10  C   UNL     1      25.221  41.542  47.767  1.00  0.00     0.043 C 
HETATM   11  C   UNL     1      23.945  42.439  47.843  1.00  0.00     0.018 C 
HETATM   12  C   UNL     1      24.153  43.604  48.832  1.00  0.00     0.065 A 
HETATM   13  C   UNL     1      24.361  42.968  50.171  1.00  0.00     0.082 A 
HETATM   14  N   UNL     1      23.495  43.221  51.093  1.00  0.00    -0.203 NA
HETATM   15  C   UNL     1      22.957  44.506  49.156  1.00  0.00     0.121 A 
HETATM   16  N   UNL     1      22.616  44.094  50.535  1.00  0.00    -0.207 NA
HETATM   17  C   UNL     1      28.217  40.215  51.604  1.00  0.00     0.031 A 
HETATM   18  C   UNL     1      29.091  39.369  50.911  1.00  0.00     0.009 A 
HETATM   19  H   UNL     1      21.651  43.768  50.612  1.00  0.00     0.149 HD
ENDROOT
BRANCH  15  20
HETATM   20  C   UNL     1      23.310  45.994  49.089  1.00  0.00    -0.038 A 
HETATM   21  C   UNL     1      24.457  46.498  49.728  1.00  0.00     0.011 A 
HETATM   22  C   UNL     1      24.722  47.873  49.761  1.00  0.00     0.037 A 
HETATM   23  C   UNL     1      23.859  48.764  49.129  1.00  0.00     0.068 A 
HETATM   24  C   UNL     1      22.779  48.277  48.401  1.00  0.00     0.037 A 
HETATM   25  C   UNL     1      22.504  46.906  48.384  1.00  0.00     0.011 A 
BRANCH  23  26
HETATM   26  O   UNL     1      24.023  50.122  49.133  1.00  0.00    -0.356 OA
HETATM   27  C   UNL     1      22.791  50.839  49.083  1.00  0.00     0.210 C 
ENDBRANCH  23  26
ENDBRANCH  15  20
TORSDOF 2
ENDMDL
MODEL 9
REMARK VINA RESULT:      -7.5     12.942     14.203
REMARK  2 active torsions:
REMARK  status: ('A' for Active; 'I' for Inactive)
REMARK    1  A    between atoms: C_15  and  C_16 
REMARK    2  A    between atoms: C_19  and  O_20 
ROOT
HETATM    1  C   UNL     1      36.941  52.416  44.597  1.00  0.00     0.048 C 
HETATM    2  C   UNL     1      36.278  51.901  43.352  1.00  0.00    -0.061 A 
HETATM    3  C   UNL     1      34.875  51.885  43.262  1.00  0.00     0.021 A 
HETATM    4  C   UNL     1      34.253  51.374  42.107  1.00  0.00    -0.000 A 
HETATM    5  C   UNL     1      35.057  50.903  41.064  1.00  0.00     0.043 A 
HETATM    6  N   UNL     1      34.222  50.492  40.046  1.00  0.00    -0.353 N 
HETATM    7  H   UNL     1      34.520  50.100  39.163  1.00  0.00     0.166 HD
HETATM    8  C   UNL     1      32.930  50.592  40.460  1.00  0.00     0.066 A 
HETATM    9  C   UNL     1      32.900  51.175  41.713  1.00  0.00    -0.017 A 
HETATM   10  C   UNL     1      31.609  51.437  42.441  1.00  0.00     0.043 C 
HETATM   11  C   UNL     1      30.362  51.142  41.549  1.00  0.00     0.018 C 
HETATM   12  C   UNL     1      30.582  49.872  40.702  1.00  0.00     0.065 A 
HETATM   13  C   UNL     1      31.739  50.178  39.804  1.00  0.00     0.082 A 
HETATM   14  N   UNL     1      31.524  50.180  38.532  1.00  0.00    -0.203 NA
HETATM   15  C   UNL     1      29.528  49.505  39.652  1.00  0.00     0.121 A 
HETATM   16  N   UNL     1      30.220  49.830  38.385  1.00  0.00    -0.207 NA
HETATM   17  C   UNL     1      36.453  50.882  41.141  1.00  0.00     0.031 A 
HETATM   18  C   UNL     1      37.046  51.379  42.307  1.00  0.00     0.009 A 
HETATM   19  H   UNL     1      29.701  50.509  37.826  1.00  0.00     0.149 HD
ENDROOT
BRANCH  15  20
HETATM   20  C   UNL     1      29.132  48.028  39.708  1.00  0.00    -0.038 A 
HETATM   21  C   UNL     1      28.058  47.594  40.507  1.00  0.00     0.011 A 
HETATM   22  C   UNL     1      27.764  46.232  40.645  1.00  0.00     0.037 A 
HETATM   23  C   UNL     1      28.520  45.283  39.963  1.00  0.00     0.068 A 
HETATM   24  C   UNL     1      29.517  45.697  39.086  1.00  0.00     0.037 A 
HETATM   25  C   UNL     1      29.823  47.056  38.962  1.00  0.00     0.011 A 
BRANCH  23  26
HETATM   26  O   UNL     1      28.324  43.932  40.060  1.00  0.00    -0.356 OA
HETATM   27  C   UNL     1      27.333  43.573  41.021  1.00  0.00     0.210 C 
ENDBRANCH  23  26
ENDBRANCH  15  20
TORSDOF 2
ENDMDL
MODEL 10
REMARK VINA RESULT:      -7.5     16.049     17.409
REMARK  2 active torsions:
REMARK  status: ('A' for Active; 'I' for Inactive)
REMARK    1  A    between atoms: C_15  and  C_16 
REMARK    2  A    between atoms: C_19  and  O_20 
ROOT
HETATM    1  C   UNL     1      41.732  38.828  65.151  1.00  0.00     0.048 C 
HETATM    2  C   UNL     1      40.582  39.752  64.870  1.00  0.00    -0.061 A 
HETATM    3  C   UNL     1      40.802  41.139  64.793  1.00  0.00     0.021 A 
HETATM    4  C   UNL     1      39.719  42.008  64.560  1.00  0.00    -0.000 A 
HETATM    5  C   UNL     1      38.442  41.461  64.397  1.00  0.00     0.043 A 
HETATM    6  N   UNL     1      37.571  42.501  64.150  1.00  0.00    -0.353 N 
HETATM    7  H   UNL     1      36.576  42.411  63.995  1.00  0.00     0.166 HD
HETATM    8  C   UNL     1      38.240  43.680  64.260  1.00  0.00     0.066 A 
HETATM    9  C   UNL     1      39.582  43.421  64.468  1.00  0.00    -0.017 A 
HETATM   10  C   UNL     1      40.594  44.525  64.617  1.00  0.00     0.043 C 
HETATM   11  C   UNL     1      39.976  45.931  64.333  1.00  0.00     0.018 C 
HETATM   12  C   UNL     1      38.556  46.036  64.926  1.00  0.00     0.065 A 
HETATM   13  C   UNL     1      37.739  45.009  64.206  1.00  0.00     0.082 A 
HETATM   14  N   UNL     1      36.748  45.427  63.493  1.00  0.00    -0.203 NA
HETATM   15  C   UNL     1      37.729  47.289  64.618  1.00  0.00     0.121 A 
HETATM   16  N   UNL     1      36.721  46.774  63.665  1.00  0.00    -0.207 NA
HETATM   17  C   UNL     1      38.194  40.088  64.497  1.00  0.00     0.031 A 
HETATM   18  C   UNL     1      39.284  39.248  64.746  1.00  0.00     0.009 A 
HETATM   19  H   UNL     1      36.742  47.275  62.776  1.00  0.00     0.149 HD
ENDROOT
BRANCH  15  20
HETATM   20  C   UNL     1      37.068  47.877  65.867  1.00  0.00    -0.038 A 
HETATM   21  C   UNL     1      37.634  48.974  66.540  1.00  0.00     0.011 A 
HETATM   22  C   UNL     1      37.092  49.444  67.743  1.00  0.00     0.037 A 
HETATM   23  C   UNL     1      35.956  48.842  68.277  1.00  0.00     0.068 A 
HETATM   24  C   UNL     1      35.320  47.825  67.572  1.00  0.00     0.037 A 
HETATM   25  C   UNL     1      35.872  47.345  66.381  1.00  0.00     0.011 A 
BRANCH  23  26
HETATM   26  O   UNL     1      35.375  49.214  69.458  1.00  0.00    -0.356 OA
HETATM   27  C   UNL     1      33.969  48.975  69.497  1.00  0.00     0.210 C 
ENDBRANCH  23  26
ENDBRANCH  15  20
TORSDOF 2
ENDMDL
