MODEL 1
REMARK VINA RESULT:     -10.5      0.000      0.000
REMARK  6 active torsions:
REMARK  status: ('A' for Active; 'I' for Inactive)
REMARK    1  A    between atoms: C_2  and  N_3 
REMARK    2  A    between atoms: N_6  and  C_8 
REMARK    3  A    between atoms: C_8  and  C_9 
REMARK       I    between atoms: C_9  and  N_10 
REMARK       I    between atoms: N_10  and  C_11 
REMARK       I    between atoms: C_11  and  N_12 
REMARK    4  A    between atoms: N_12  and  C_13 
REMARK    5  A    between atoms: C_13  and  C_14 
REMARK    6  A    between atoms: C_14  and  C_15 
ROOT
HETATM    1  C   UNL     1      23.035  46.530  48.809  1.00  0.00     0.251 C 
HETATM    2  N   UNL     1      23.678  46.113  49.942  1.00  0.00    -0.278 N 
HETATM    3  C   UNL     1      24.490  46.897  50.724  1.00  0.00     0.322 C 
HETATM    4  N   UNL     1      25.196  46.172  51.644  1.00  0.00    -0.343 N 
HETATM    5  O   UNL     1      24.531  48.117  50.629  1.00  0.00    -0.247 OA
HETATM    6  O   UNL     1      22.608  45.712  47.988  1.00  0.00    -0.271 OA
HETATM    7  H   UNL     1      23.764  45.112  50.039  1.00  0.00     0.173 HD
HETATM    8  H   UNL     1      25.367  45.196  51.438  1.00  0.00     0.164 HD
ENDROOT
BRANCH   1   9
HETATM    9  C   UNL     1      22.875  48.034  48.535  1.00  0.00     0.337 C 
BRANCH   9  10
HETATM   10  N   UNL     1      21.734  48.613  49.377  1.00  0.00    -0.060 N 
HETATM   11  C   UNL     1      21.690  50.142  49.334  1.00  0.00     0.255 C 
HETATM   12  C   UNL     1      20.594  50.660  50.285  1.00  0.00     0.150 C 
HETATM   13  N   UNL     1      19.305  50.038  49.951  1.00  0.00    -0.378 N 
HETATM   14  C   UNL     1      19.272  48.568  49.950  1.00  0.00     0.150 C 
HETATM   15  C   UNL     1      20.382  48.011  49.027  1.00  0.00     0.255 C 
HETATM   16  H   UNL     1      21.961  48.364  50.353  1.00  0.00     0.280 HD
BRANCH  13  17
HETATM   17  C   UNL     1      18.198  50.785  49.594  1.00  0.00     0.030 A 
HETATM   18  C   UNL     1      18.084  52.147  49.927  1.00  0.00     0.032 A 
HETATM   19  C   UNL     1      16.968  52.905  49.556  1.00  0.00     0.044 A 
HETATM   20  C   UNL     1      15.941  52.307  48.844  1.00  0.00     0.116 A 
HETATM   21  C   UNL     1      16.010  50.968  48.502  1.00  0.00     0.044 A 
HETATM   22  F   UNL     1      14.872  53.030  48.486  1.00  0.00    -0.206 F 
HETATM   23  C   UNL     1      17.132  50.217  48.875  1.00  0.00     0.032 A 
ENDBRANCH  13  17
ENDBRANCH   9  10
ENDBRANCH   1   9
BRANCH   4  24
HETATM   24  C   UNL     1      26.236  46.820  52.434  1.00  0.00     0.129 C 
BRANCH  24  25
HETATM   25  C   UNL     1      26.432  46.204  53.822  1.00  0.00     0.060 C 
BRANCH  25  26
HETATM   26  C   UNL     1      27.499  45.148  53.914  1.00  0.00    -0.029 A 
HETATM   27  C   UNL     1      28.610  45.059  54.822  1.00  0.00     0.001 A 
HETATM   28  C   UNL     1      29.336  43.913  54.483  1.00  0.00     0.043 A 
HETATM   29  C   UNL     1      29.085  45.849  55.889  1.00  0.00     0.056 A 
HETATM   30  C   UNL     1      30.511  43.527  55.142  1.00  0.00     0.033 A 
HETATM   31  N   UNL     1      28.667  43.297  53.453  1.00  0.00    -0.365 N 
HETATM   32  C   UNL     1      30.970  44.341  56.179  1.00  0.00     0.044 A 
HETATM   33  C   UNL     1      30.262  45.477  56.541  1.00  0.00     0.117 A 
HETATM   34  F   UNL     1      30.724  46.249  57.534  1.00  0.00    -0.206 F 
HETATM   35  H   UNL     1      28.945  42.422  53.028  1.00  0.00     0.165 HD
HETATM   36  C   UNL     1      27.576  44.038  53.092  1.00  0.00     0.096 A 
ENDBRANCH  25  26
ENDBRANCH  24  25
ENDBRANCH   4  24
TORSDOF 6
ENDMDL
MODEL 2
REMARK VINA RESULT:     -10.4      1.420      1.979
REMARK  6 active torsions:
REMARK  status: ('A' for Active; 'I' for Inactive)
REMARK    1  A    between atoms: C_2  and  N_3 
REMARK    2  A    between atoms: N_6  and  C_8 
REMARK    3  A    between atoms: C_8  and  C_9 
REMARK       I    between atoms: C_9  and  N_10 
REMARK       I    between atoms: N_10  and  C_11 
REMARK       I    between atoms: C_11  and  N_12 
REMARK    4  A    between atoms: N_12  and  C_13 
REMARK    5  A    between atoms: C_13  and  C_14 
REMARK    6  A    between atoms: C_14  and  C_15 
ROOT
HETATM    1  C   UNL     1      23.082  46.507  48.791  1.00  0.00     0.251 C 
HETATM    2  N   UNL     1      23.693  46.013  49.911  1.00  0.00    -0.278 N 
HETATM    3  C   UNL     1      24.515  46.730  50.744  1.00  0.00     0.322 C 
HETATM    4  N   UNL     1      25.183  45.937  51.637  1.00  0.00    -0.343 N 
HETATM    5  O   UNL     1      24.595  47.951  50.712  1.00  0.00    -0.247 OA
HETATM    6  O   UNL     1      22.644  45.745  47.923  1.00  0.00    -0.271 OA
HETATM    7  H   UNL     1      23.747  45.006  49.957  1.00  0.00     0.173 HD
HETATM    8  H   UNL     1      25.327  44.968  51.383  1.00  0.00     0.164 HD
ENDROOT
BRANCH   1   9
HETATM    9  C   UNL     1      22.973  48.027  48.592  1.00  0.00     0.337 C 
BRANCH   9  10
HETATM   10  N   UNL     1      21.810  48.593  49.413  1.00  0.00    -0.060 N 
HETATM   11  C   UNL     1      21.753  50.121  49.377  1.00  0.00     0.255 C 
HETATM   12  C   UNL     1      20.634  50.625  50.307  1.00  0.00     0.150 C 
HETATM   13  N   UNL     1      19.358  49.994  49.942  1.00  0.00    -0.378 N 
HETATM   14  C   UNL     1      19.337  48.524  49.933  1.00  0.00     0.150 C 
HETATM   15  C   UNL     1      20.470  47.981  49.031  1.00  0.00     0.255 C 
HETATM   16  H   UNL     1      22.018  48.340  50.392  1.00  0.00     0.280 HD
BRANCH  13  17
HETATM   17  C   UNL     1      18.252  50.734  49.565  1.00  0.00     0.030 A 
HETATM   18  C   UNL     1      17.200  50.169  48.822  1.00  0.00     0.032 A 
HETATM   19  C   UNL     1      16.077  50.916  48.450  1.00  0.00     0.044 A 
HETATM   20  C   UNL     1      15.991  52.250  48.815  1.00  0.00     0.116 A 
HETATM   21  C   UNL     1      17.008  52.847  49.541  1.00  0.00     0.044 A 
HETATM   22  F   UNL     1      14.917  52.967  48.462  1.00  0.00    -0.206 F 
HETATM   23  C   UNL     1      18.126  52.091  49.911  1.00  0.00     0.032 A 
ENDBRANCH  13  17
ENDBRANCH   9  10
ENDBRANCH   1   9
BRANCH   4  24
HETATM   24  C   UNL     1      26.229  46.511  52.475  1.00  0.00     0.129 C 
BRANCH  24  25
HETATM   25  C   UNL     1      26.060  46.210  53.967  1.00  0.00     0.060 C 
BRANCH  25  26
HETATM   26  C   UNL     1      27.339  46.010  54.733  1.00  0.00    -0.029 A 
HETATM   27  C   UNL     1      28.326  44.975  54.593  1.00  0.00     0.001 A 
HETATM   28  C   UNL     1      29.311  45.206  55.559  1.00  0.00     0.043 A 
HETATM   29  C   UNL     1      28.475  43.853  53.754  1.00  0.00     0.056 A 
HETATM   30  C   UNL     1      30.422  44.368  55.736  1.00  0.00     0.033 A 
HETATM   31  N   UNL     1      28.971  46.361  56.220  1.00  0.00    -0.365 N 
HETATM   32  C   UNL     1      30.530  43.252  54.905  1.00  0.00     0.044 A 
HETATM   33  C   UNL     1      29.571  43.008  53.933  1.00  0.00     0.117 A 
HETATM   34  F   UNL     1      29.690  41.926  53.152  1.00  0.00    -0.206 F 
HETATM   35  H   UNL     1      29.525  46.790  56.950  1.00  0.00     0.165 HD
HETATM   36  C   UNL     1      27.782  46.841  55.746  1.00  0.00     0.096 A 
ENDBRANCH  25  26
ENDBRANCH  24  25
ENDBRANCH   4  24
TORSDOF 6
ENDMDL
MODEL 3
REMARK VINA RESULT:     -10.4      2.194      3.386
REMARK  6 active torsions:
REMARK  status: ('A' for Active; 'I' for Inactive)
REMARK    1  A    between atoms: C_2  and  N_3 
REMARK    2  A    between atoms: N_6  and  C_8 
REMARK    3  A    between atoms: C_8  and  C_9 
REMARK       I    between atoms: C_9  and  N_10 
REMARK       I    between atoms: N_10  and  C_11 
REMARK       I    between atoms: C_11  and  N_12 
REMARK    4  A    between atoms: N_12  and  C_13 
REMARK    5  A    between atoms: C_13  and  C_14 
REMARK    6  A    between atoms: C_14  and  C_15 
ROOT
HETATM    1  C   UNL     1      27.240  47.212  49.347  1.00  0.00     0.251 C 
HETATM    2  N   UNL     1      27.421  45.899  49.686  1.00  0.00    -0.278 N 
HETATM    3  C   UNL     1      27.016  45.323  50.864  1.00  0.00     0.322 C 
HETATM    4  N   UNL     1      27.540  44.072  51.048  1.00  0.00    -0.343 N 
HETATM    5  O   UNL     1      26.233  45.863  51.635  1.00  0.00    -0.247 OA
HETATM    6  O   UNL     1      27.909  47.730  48.447  1.00  0.00    -0.271 OA
HETATM    7  H   UNL     1      28.126  45.414  49.149  1.00  0.00     0.173 HD
HETATM    8  H   UNL     1      28.404  43.854  50.570  1.00  0.00     0.164 HD
ENDROOT
BRANCH   1   9
HETATM    9  C   UNL     1      26.219  48.062  50.120  1.00  0.00     0.337 C 
BRANCH   9  10
HETATM   10  N   UNL     1      24.969  48.303  49.268  1.00  0.00    -0.060 N 
HETATM   11  C   UNL     1      23.709  47.694  49.887  1.00  0.00     0.255 C 
HETATM   12  C   UNL     1      22.516  47.876  48.930  1.00  0.00     0.150 C 
HETATM   13  N   UNL     1      22.359  49.296  48.588  1.00  0.00    -0.378 N 
HETATM   14  C   UNL     1      23.535  49.960  48.006  1.00  0.00     0.150 C 
HETATM   15  C   UNL     1      24.763  49.771  48.928  1.00  0.00     0.255 C 
HETATM   16  H   UNL     1      25.132  47.784  48.391  1.00  0.00     0.280 HD
BRANCH  13  17
HETATM   17  C   UNL     1      21.196  49.994  48.855  1.00  0.00     0.030 A 
HETATM   18  C   UNL     1      20.943  51.258  48.293  1.00  0.00     0.032 A 
HETATM   19  C   UNL     1      19.760  51.957  48.555  1.00  0.00     0.044 A 
HETATM   20  C   UNL     1      18.808  51.401  49.394  1.00  0.00     0.116 A 
HETATM   21  C   UNL     1      19.020  50.163  49.974  1.00  0.00     0.044 A 
HETATM   22  F   UNL     1      17.674  52.068  49.646  1.00  0.00    -0.206 F 
HETATM   23  C   UNL     1      20.205  49.468  49.704  1.00  0.00     0.032 A 
ENDBRANCH  13  17
ENDBRANCH   9  10
ENDBRANCH   1   9
BRANCH   4  24
HETATM   24  C   UNL     1      27.358  43.391  52.325  1.00  0.00     0.129 C 
BRANCH  24  25
HETATM   25  C   UNL     1      28.649  43.241  53.134  1.00  0.00     0.060 C 
BRANCH  25  26
HETATM   26  C   UNL     1      28.809  44.206  54.278  1.00  0.00    -0.029 A 
HETATM   27  C   UNL     1      29.749  44.175  55.364  1.00  0.00     0.001 A 
HETATM   28  C   UNL     1      29.472  45.271  56.187  1.00  0.00     0.043 A 
HETATM   29  C   UNL     1      30.799  43.314  55.743  1.00  0.00     0.056 A 
HETATM   30  C   UNL     1      30.177  45.540  57.368  1.00  0.00     0.033 A 
HETATM   31  N   UNL     1      28.447  45.973  55.600  1.00  0.00    -0.365 N 
HETATM   32  C   UNL     1      31.197  44.657  57.730  1.00  0.00     0.044 A 
HETATM   33  C   UNL     1      31.497  43.569  56.925  1.00  0.00     0.117 A 
HETATM   34  F   UNL     1      32.474  42.730  57.295  1.00  0.00    -0.206 F 
HETATM   35  H   UNL     1      28.062  46.837  55.958  1.00  0.00     0.165 HD
HETATM   36  C   UNL     1      28.030  45.333  54.465  1.00  0.00     0.096 A 
ENDBRANCH  25  26
ENDBRANCH  24  25
ENDBRANCH   4  24
TORSDOF 6
ENDMDL
MODEL 4
REMARK VINA RESULT:     -10.2      1.466     12.218
REMARK  6 active torsions:
REMARK  status: ('A' for Active; 'I' for Inactive)
REMARK    1  A    between atoms: C_2  and  N_3 
REMARK    2  A    between atoms: N_6  and  C_8 
REMARK    3  A    between atoms: C_8  and  C_9 
REMARK       I    between atoms: C_9  and  N_10 
REMARK       I    between atoms: N_10  and  C_11 
REMARK       I    between atoms: C_11  and  N_12 
REMARK    4  A    between atoms: N_12  and  C_13 
REMARK    5  A    between atoms: C_13  and  C_14 
REMARK    6  A    between atoms: C_14  and  C_15 
ROOT
HETATM    1  C   UNL     1      23.939  46.041  49.669  1.00  0.00     0.251 C 
HETATM    2  N   UNL     1      23.052  46.998  49.255  1.00  0.00    -0.278 N 
HETATM    3  C   UNL     1      23.135  48.335  49.553  1.00  0.00     0.322 C 
HETATM    4  N   UNL     1      21.997  49.020  49.228  1.00  0.00    -0.343 N 
HETATM    5  O   UNL     1      24.144  48.853  50.015  1.00  0.00    -0.247 OA
HETATM    6  O   UNL     1      23.630  44.846  49.655  1.00  0.00    -0.271 OA
HETATM    7  H   UNL     1      22.158  46.644  48.948  1.00  0.00     0.173 HD
HETATM    8  H   UNL     1      21.133  48.495  49.183  1.00  0.00     0.164 HD
ENDROOT
BRANCH   1   9
HETATM    9  C   UNL     1      25.321  46.463  50.194  1.00  0.00     0.337 C 
BRANCH   9  10
HETATM   10  N   UNL     1      25.603  45.806  51.549  1.00  0.00    -0.060 N 
HETATM   11  C   UNL     1      26.483  44.561  51.426  1.00  0.00     0.255 C 
HETATM   12  C   UNL     1      26.634  43.890  52.804  1.00  0.00     0.150 C 
HETATM   13  N   UNL     1      27.146  44.861  53.781  1.00  0.00    -0.378 N 
HETATM   14  C   UNL     1      26.365  46.097  53.942  1.00  0.00     0.150 C 
HETATM   15  C   UNL     1      26.166  46.783  52.569  1.00  0.00     0.255 C 
HETATM   16  H   UNL     1      24.686  45.473  51.886  1.00  0.00     0.280 HD
BRANCH  13  17
HETATM   17  C   UNL     1      28.329  44.661  54.467  1.00  0.00     0.030 A 
HETATM   18  C   UNL     1      28.772  45.555  55.458  1.00  0.00     0.032 A 
HETATM   19  C   UNL     1      29.964  45.345  56.160  1.00  0.00     0.044 A 
HETATM   20  C   UNL     1      30.739  44.233  55.875  1.00  0.00     0.116 A 
HETATM   21  C   UNL     1      30.344  43.332  54.901  1.00  0.00     0.044 A 
HETATM   22  F   UNL     1      31.880  44.029  56.546  1.00  0.00    -0.206 F 
HETATM   23  C   UNL     1      29.148  43.548  54.207  1.00  0.00     0.032 A 
ENDBRANCH  13  17
ENDBRANCH   9  10
ENDBRANCH   1   9
BRANCH   4  24
HETATM   24  C   UNL     1      21.846  50.411  49.638  1.00  0.00     0.129 C 
BRANCH  24  25
HETATM   25  C   UNL     1      21.260  51.316  48.550  1.00  0.00     0.060 C 
BRANCH  25  26
HETATM   26  C   UNL     1      19.885  50.938  48.068  1.00  0.00    -0.029 A 
HETATM   27  C   UNL     1      18.606  51.422  48.510  1.00  0.00     0.001 A 
HETATM   28  C   UNL     1      17.627  50.739  47.781  1.00  0.00     0.043 A 
HETATM   29  C   UNL     1      18.178  52.360  49.471  1.00  0.00     0.056 A 
HETATM   30  C   UNL     1      16.253  50.935  47.973  1.00  0.00     0.033 A 
HETATM   31  N   UNL     1      18.279  49.917  46.893  1.00  0.00    -0.365 N 
HETATM   32  C   UNL     1      15.859  51.854  48.947  1.00  0.00     0.044 A 
HETATM   33  C   UNL     1      16.811  52.551  49.676  1.00  0.00     0.117 A 
HETATM   34  F   UNL     1      16.411  53.423  50.612  1.00  0.00    -0.206 F 
HETATM   35  H   UNL     1      17.820  49.329  46.210  1.00  0.00     0.165 HD
HETATM   36  C   UNL     1      19.632  50.015  47.070  1.00  0.00     0.096 A 
ENDBRANCH  25  26
ENDBRANCH  24  25
ENDBRANCH   4  24
TORSDOF 6
ENDMDL
MODEL 5
REMARK VINA RESULT:     -10.0      2.241      3.376
REMARK  6 active torsions:
REMARK  status: ('A' for Active; 'I' for Inactive)
REMARK    1  A    between atoms: C_2  and  N_3 
REMARK    2  A    between atoms: N_6  and  C_8 
REMARK    3  A    between atoms: C_8  and  C_9 
REMARK       I    between atoms: C_9  and  N_10 
REMARK       I    between atoms: N_10  and  C_11 
REMARK       I    between atoms: C_11  and  N_12 
REMARK    4  A    between atoms: N_12  and  C_13 
REMARK    5  A    between atoms: C_13  and  C_14 
REMARK    6  A    between atoms: C_14  and  C_15 
ROOT
HETATM    1  C   UNL     1      24.119  43.399  49.146  1.00  0.00     0.251 C 
HETATM    2  N   UNL     1      25.189  43.291  49.991  1.00  0.00    -0.278 N 
HETATM    3  C   UNL     1      25.262  43.837  51.249  1.00  0.00     0.322 C 
HETATM    4  N   UNL     1      26.525  43.792  51.772  1.00  0.00    -0.343 N 
HETATM    5  O   UNL     1      24.283  44.271  51.844  1.00  0.00    -0.247 OA
HETATM    6  O   UNL     1      24.246  43.183  47.936  1.00  0.00    -0.271 OA
HETATM    7  H   UNL     1      26.057  43.026  49.548  1.00  0.00     0.173 HD
HETATM    8  H   UNL     1      27.298  43.745  51.121  1.00  0.00     0.164 HD
ENDROOT
BRANCH   1   9
HETATM    9  C   UNL     1      22.752  43.830  49.701  1.00  0.00     0.337 C 
BRANCH   9  10
HETATM   10  N   UNL     1      22.219  45.041  48.929  1.00  0.00    -0.060 N 
HETATM   11  C   UNL     1      20.721  45.265  49.150  1.00  0.00     0.255 C 
HETATM   12  C   UNL     1      20.230  46.423  48.262  1.00  0.00     0.150 C 
HETATM   13  N   UNL     1      21.035  47.627  48.518  1.00  0.00    -0.378 N 
HETATM   14  C   UNL     1      22.488  47.486  48.347  1.00  0.00     0.150 C 
HETATM   15  C   UNL     1      23.013  46.309  49.202  1.00  0.00     0.255 C 
HETATM   16  H   UNL     1      22.324  44.797  47.932  1.00  0.00     0.280 HD
BRANCH  13  17
HETATM   17  C   UNL     1      20.470  48.810  48.956  1.00  0.00     0.030 A 
HETATM   18  C   UNL     1      21.012  50.062  48.615  1.00  0.00     0.032 A 
HETATM   19  C   UNL     1      20.434  51.259  49.050  1.00  0.00     0.044 A 
HETATM   20  C   UNL     1      19.299  51.222  49.844  1.00  0.00     0.116 A 
HETATM   21  C   UNL     1      18.738  50.010  50.210  1.00  0.00     0.044 A 
HETATM   22  F   UNL     1      18.743  52.365  50.261  1.00  0.00    -0.206 F 
HETATM   23  C   UNL     1      19.321  48.817  49.767  1.00  0.00     0.032 A 
ENDBRANCH  13  17
ENDBRANCH   9  10
ENDBRANCH   1   9
BRANCH   4  24
HETATM   24  C   UNL     1      26.817  44.486  53.021  1.00  0.00     0.129 C 
BRANCH  24  25
HETATM   25  C   UNL     1      28.267  44.330  53.489  1.00  0.00     0.060 C 
BRANCH  25  26
HETATM   26  C   UNL     1      28.610  45.036  54.772  1.00  0.00    -0.029 A 
HETATM   27  C   UNL     1      29.635  44.727  55.730  1.00  0.00     0.001 A 
HETATM   28  C   UNL     1      29.528  45.656  56.770  1.00  0.00     0.043 A 
HETATM   29  C   UNL     1      30.636  43.740  55.828  1.00  0.00     0.056 A 
HETATM   30  C   UNL     1      30.355  45.638  57.902  1.00  0.00     0.033 A 
HETATM   31  N   UNL     1      28.520  46.528  56.436  1.00  0.00    -0.365 N 
HETATM   32  C   UNL     1      31.321  44.633  57.982  1.00  0.00     0.044 A 
HETATM   33  C   UNL     1      31.454  43.708  56.958  1.00  0.00     0.117 A 
HETATM   34  F   UNL     1      32.384  42.748  57.060  1.00  0.00    -0.206 F 
HETATM   35  H   UNL     1      28.244  47.328  56.990  1.00  0.00     0.165 HD
HETATM   36  C   UNL     1      27.951  46.155  55.250  1.00  0.00     0.096 A 
ENDBRANCH  25  26
ENDBRANCH  24  25
ENDBRANCH   4  24
TORSDOF 6
ENDMDL
MODEL 6
REMARK VINA RESULT:     -10.0      1.814     12.154
REMARK  6 active torsions:
REMARK  status: ('A' for Active; 'I' for Inactive)
REMARK    1  A    between atoms: C_2  and  N_3 
REMARK    2  A    between atoms: N_6  and  C_8 
REMARK    3  A    between atoms: C_8  and  C_9 
REMARK       I    between atoms: C_9  and  N_10 
REMARK       I    between atoms: N_10  and  C_11 
REMARK       I    between atoms: C_11  and  N_12 
REMARK    4  A    between atoms: N_12  and  C_13 
REMARK    5  A    between atoms: C_13  and  C_14 
REMARK    6  A    between atoms: C_14  and  C_15 
ROOT
HETATM    1  C   UNL     1      24.006  46.093  49.883  1.00  0.00     0.251 C 
HETATM    2  N   UNL     1      23.192  47.011  49.277  1.00  0.00    -0.278 N 
HETATM    3  C   UNL     1      23.311  48.374  49.394  1.00  0.00     0.322 C 
HETATM    4  N   UNL     1      22.229  49.044  48.895  1.00  0.00    -0.343 N 
HETATM    5  O   UNL     1      24.307  48.918  49.856  1.00  0.00    -0.247 OA
HETATM    6  O   UNL     1      23.648  44.918  50.009  1.00  0.00    -0.271 OA
HETATM    7  H   UNL     1      22.307  46.648  48.955  1.00  0.00     0.173 HD
HETATM    8  H   UNL     1      21.348  48.546  48.858  1.00  0.00     0.164 HD
ENDROOT
BRANCH   1   9
HETATM    9  C   UNL     1      25.365  46.538  50.446  1.00  0.00     0.337 C 
BRANCH   9  10
HETATM   10  N   UNL     1      25.689  45.770  51.731  1.00  0.00    -0.060 N 
HETATM   11  C   UNL     1      26.673  44.622  51.496  1.00  0.00     0.255 C 
HETATM   12  C   UNL     1      26.868  43.826  52.800  1.00  0.00     0.150 C 
HETATM   13  N   UNL     1      27.287  44.730  53.881  1.00  0.00    -0.378 N 
HETATM   14  C   UNL     1      26.403  45.872  54.154  1.00  0.00     0.150 C 
HETATM   15  C   UNL     1      26.159  46.678  52.857  1.00  0.00     0.255 C 
HETATM   16  H   UNL     1      24.801  45.328  52.016  1.00  0.00     0.280 HD
BRANCH  13  17
HETATM   17  C   UNL     1      28.477  44.558  54.564  1.00  0.00     0.030 A 
HETATM   18  C   UNL     1      28.947  45.511  55.485  1.00  0.00     0.032 A 
HETATM   19  C   UNL     1      30.146  45.331  56.184  1.00  0.00     0.044 A 
HETATM   20  C   UNL     1      30.900  44.190  55.966  1.00  0.00     0.116 A 
HETATM   21  C   UNL     1      30.477  43.230  55.063  1.00  0.00     0.044 A 
HETATM   22  F   UNL     1      32.047  44.014  56.634  1.00  0.00    -0.206 F 
HETATM   23  C   UNL     1      29.274  43.416  54.371  1.00  0.00     0.032 A 
ENDBRANCH  13  17
ENDBRANCH   9  10
ENDBRANCH   1   9
BRANCH   4  24
HETATM   24  C   UNL     1      22.109  50.483  49.099  1.00  0.00     0.129 C 
BRANCH  24  25
HETATM   25  C   UNL     1      20.890  50.889  49.931  1.00  0.00     0.060 C 
BRANCH  25  26
HETATM   26  C   UNL     1      19.636  51.166  49.146  1.00  0.00    -0.029 A 
HETATM   27  C   UNL     1      18.522  50.297  48.884  1.00  0.00     0.001 A 
HETATM   28  C   UNL     1      17.623  51.003  48.078  1.00  0.00     0.043 A 
HETATM   29  C   UNL     1      18.191  48.973  49.237  1.00  0.00     0.056 A 
HETATM   30  C   UNL     1      16.427  50.451  47.598  1.00  0.00     0.033 A 
HETATM   31  N   UNL     1      18.138  52.265  47.902  1.00  0.00    -0.365 N 
HETATM   32  C   UNL     1      16.139  49.130  47.944  1.00  0.00     0.044 A 
HETATM   33  C   UNL     1      17.009  48.413  48.752  1.00  0.00     0.117 A 
HETATM   34  F   UNL     1      16.715  47.144  49.066  1.00  0.00    -0.206 F 
HETATM   35  H   UNL     1      17.680  53.007  47.389  1.00  0.00     0.165 HD
HETATM   36  C   UNL     1      19.352  52.367  48.522  1.00  0.00     0.096 A 
ENDBRANCH  25  26
ENDBRANCH  24  25
ENDBRANCH   4  24
TORSDOF 6
ENDMDL
MODEL 7
REMARK VINA RESULT:      -9.8      2.047     11.784
REMARK  6 active torsions:
REMARK  status: ('A' for Active; 'I' for Inactive)
REMARK    1  A    between atoms: C_2  and  N_3 
REMARK    2  A    between atoms: N_6  and  C_8 
REMARK    3  A    between atoms: C_8  and  C_9 
REMARK       I    between atoms: C_9  and  N_10 
REMARK       I    between atoms: N_10  and  C_11 
REMARK       I    between atoms: C_11  and  N_12 
REMARK    4  A    between atoms: N_12  and  C_13 
REMARK    5  A    between atoms: C_13  and  C_14 
REMARK    6  A    between atoms: C_14  and  C_15 
ROOT
HETATM    1  C   UNL     1      23.928  46.077  49.633  1.00  0.00     0.251 C 
HETATM    2  N   UNL     1      23.034  47.025  49.215  1.00  0.00    -0.278 N 
HETATM    3  C   UNL     1      23.101  48.362  49.518  1.00  0.00     0.322 C 
HETATM    4  N   UNL     1      21.958  49.037  49.187  1.00  0.00    -0.343 N 
HETATM    5  O   UNL     1      24.101  48.889  49.990  1.00  0.00    -0.247 OA
HETATM    6  O   UNL     1      23.631  44.878  49.612  1.00  0.00    -0.271 OA
HETATM    7  H   UNL     1      22.146  46.663  48.900  1.00  0.00     0.173 HD
HETATM    8  H   UNL     1      21.100  48.503  49.133  1.00  0.00     0.164 HD
ENDROOT
BRANCH   1   9
HETATM    9  C   UNL     1      25.301  46.511  50.170  1.00  0.00     0.337 C 
BRANCH   9  10
HETATM   10  N   UNL     1      25.577  45.856  51.527  1.00  0.00    -0.060 N 
HETATM   11  C   UNL     1      26.439  44.597  51.407  1.00  0.00     0.255 C 
HETATM   12  C   UNL     1      26.584  43.931  52.788  1.00  0.00     0.150 C 
HETATM   13  N   UNL     1      27.111  44.899  53.760  1.00  0.00    -0.378 N 
HETATM   14  C   UNL     1      26.349  46.146  53.917  1.00  0.00     0.150 C 
HETATM   15  C   UNL     1      26.156  46.829  52.542  1.00  0.00     0.255 C 
HETATM   16  H   UNL     1      24.656  45.536  51.868  1.00  0.00     0.280 HD
BRANCH  13  17
HETATM   17  C   UNL     1      28.294  44.685  54.444  1.00  0.00     0.030 A 
HETATM   18  C   UNL     1      28.714  45.536  55.482  1.00  0.00     0.032 A 
HETATM   19  C   UNL     1      29.905  45.312  56.182  1.00  0.00     0.044 A 
HETATM   20  C   UNL     1      30.701  44.229  55.848  1.00  0.00     0.116 A 
HETATM   21  C   UNL     1      30.328  43.371  54.827  1.00  0.00     0.044 A 
HETATM   22  F   UNL     1      31.841  44.011  56.516  1.00  0.00    -0.206 F 
HETATM   23  C   UNL     1      29.133  43.600  54.135  1.00  0.00     0.032 A 
ENDBRANCH  13  17
ENDBRANCH   9  10
ENDBRANCH   1   9
BRANCH   4  24
HETATM   24  C   UNL     1      21.790  50.425  49.601  1.00  0.00     0.129 C 
BRANCH  24  25
HETATM   25  C   UNL     1      20.330  50.831  49.819  1.00  0.00     0.060 C 
BRANCH  25  26
HETATM   26  C   UNL     1      19.350  49.692  49.911  1.00  0.00    -0.029 A 
HETATM   27  C   UNL     1      18.619  49.040  48.861  1.00  0.00     0.001 A 
HETATM   28  C   UNL     1      17.812  48.065  49.457  1.00  0.00     0.043 A 
HETATM   29  C   UNL     1      18.547  49.189  47.461  1.00  0.00     0.056 A 
HETATM   30  C   UNL     1      16.932  47.250  48.731  1.00  0.00     0.033 A 
HETATM   31  N   UNL     1      18.081  48.083  50.804  1.00  0.00    -0.365 N 
HETATM   32  C   UNL     1      16.866  47.437  47.350  1.00  0.00     0.044 A 
HETATM   33  C   UNL     1      17.664  48.389  46.734  1.00  0.00     0.117 A 
HETATM   34  F   UNL     1      17.578  48.558  45.407  1.00  0.00    -0.206 F 
HETATM   35  H   UNL     1      17.666  47.456  51.482  1.00  0.00     0.165 HD
HETATM   36  C   UNL     1      18.987  49.066  51.090  1.00  0.00     0.096 A 
ENDBRANCH  25  26
ENDBRANCH  24  25
ENDBRANCH   4  24
TORSDOF 6
ENDMDL
MODEL 8
REMARK VINA RESULT:      -9.7      1.930      2.534
REMARK  6 active torsions:
REMARK  status: ('A' for Active; 'I' for Inactive)
REMARK    1  A    between atoms: C_2  and  N_3 
REMARK    2  A    between atoms: N_6  and  C_8 
REMARK    3  A    between atoms: C_8  and  C_9 
REMARK       I    between atoms: C_9  and  N_10 
REMARK       I    between atoms: N_10  and  C_11 
REMARK       I    between atoms: C_11  and  N_12 
REMARK    4  A    between atoms: N_12  and  C_13 
REMARK    5  A    between atoms: C_13  and  C_14 
REMARK    6  A    between atoms: C_14  and  C_15 
ROOT
HETATM    1  C   UNL     1      23.327  44.347  47.771  1.00  0.00     0.251 C 
HETATM    2  N   UNL     1      24.562  43.986  48.237  1.00  0.00    -0.278 N 
HETATM    3  C   UNL     1      25.149  44.472  49.378  1.00  0.00     0.322 C 
HETATM    4  N   UNL     1      26.472  44.137  49.476  1.00  0.00    -0.343 N 
HETATM    5  O   UNL     1      24.531  45.096  50.232  1.00  0.00    -0.247 OA
HETATM    6  O   UNL     1      23.011  44.138  46.596  1.00  0.00    -0.271 OA
HETATM    7  H   UNL     1      25.163  43.548  47.554  1.00  0.00     0.173 HD
HETATM    8  H   UNL     1      26.967  43.937  48.616  1.00  0.00     0.164 HD
ENDROOT
BRANCH   1   9
HETATM    9  C   UNL     1      22.338  45.055  48.710  1.00  0.00     0.337 C 
BRANCH   9  10
HETATM   10  N   UNL     1      21.836  46.357  48.076  1.00  0.00    -0.060 N 
HETATM   11  C   UNL     1      20.308  46.450  48.058  1.00  0.00     0.255 C 
HETATM   12  C   UNL     1      19.872  47.724  47.312  1.00  0.00     0.150 C 
HETATM   13  N   UNL     1      20.513  48.902  47.913  1.00  0.00    -0.378 N 
HETATM   14  C   UNL     1      21.981  48.879  47.986  1.00  0.00     0.150 C 
HETATM   15  C   UNL     1      22.458  47.594  48.704  1.00  0.00     0.255 C 
HETATM   16  H   UNL     1      22.128  46.309  47.088  1.00  0.00     0.280 HD
BRANCH  13  17
HETATM   17  C   UNL     1      19.780  49.949  48.441  1.00  0.00     0.030 A 
HETATM   18  C   UNL     1      19.993  51.280  48.039  1.00  0.00     0.032 A 
HETATM   19  C   UNL     1      19.243  52.337  48.566  1.00  0.00     0.044 A 
HETATM   20  C   UNL     1      18.266  52.078  49.513  1.00  0.00     0.116 A 
HETATM   21  C   UNL     1      18.030  50.783  49.942  1.00  0.00     0.044 A 
HETATM   22  F   UNL     1      17.547  53.087  50.019  1.00  0.00    -0.206 F 
HETATM   23  C   UNL     1      18.782  49.731  49.407  1.00  0.00     0.032 A 
ENDBRANCH  13  17
ENDBRANCH   9  10
ENDBRANCH   1   9
BRANCH   4  24
HETATM   24  C   UNL     1      27.291  44.719  50.532  1.00  0.00     0.129 C 
BRANCH  24  25
HETATM   25  C   UNL     1      27.042  44.108  51.914  1.00  0.00     0.060 C 
BRANCH  25  26
HETATM   26  C   UNL     1      28.255  43.529  52.591  1.00  0.00    -0.029 A 
HETATM   27  C   UNL     1      28.912  43.959  53.794  1.00  0.00     0.001 A 
HETATM   28  C   UNL     1      30.014  43.121  53.991  1.00  0.00     0.043 A 
HETATM   29  C   UNL     1      28.693  44.990  54.731  1.00  0.00     0.056 A 
HETATM   30  C   UNL     1      30.909  43.269  55.059  1.00  0.00     0.033 A 
HETATM   31  N   UNL     1      29.998  42.185  52.985  1.00  0.00    -0.365 N 
HETATM   32  C   UNL     1      30.679  44.313  55.957  1.00  0.00     0.044 A 
HETATM   33  C   UNL     1      29.587  45.151  55.789  1.00  0.00     0.117 A 
HETATM   34  F   UNL     1      29.390  46.152  56.659  1.00  0.00    -0.206 F 
HETATM   35  H   UNL     1      30.660  41.425  52.896  1.00  0.00     0.165 HD
HETATM   36  C   UNL     1      28.959  42.431  52.131  1.00  0.00     0.096 A 
ENDBRANCH  25  26
ENDBRANCH  24  25
ENDBRANCH   4  24
TORSDOF 6
ENDMDL
MODEL 9
REMARK VINA RESULT:      -9.5      3.058     11.689
REMARK  6 active torsions:
REMARK  status: ('A' for Active; 'I' for Inactive)
REMARK    1  A    between atoms: C_2  and  N_3 
REMARK    2  A    between atoms: N_6  and  C_8 
REMARK    3  A    between atoms: C_8  and  C_9 
REMARK       I    between atoms: C_9  and  N_10 
REMARK       I    between atoms: N_10  and  C_11 
REMARK       I    between atoms: C_11  and  N_12 
REMARK    4  A    between atoms: N_12  and  C_13 
REMARK    5  A    between atoms: C_13  and  C_14 
REMARK    6  A    between atoms: C_14  and  C_15 
ROOT
HETATM    1  C   UNL     1      26.476  41.444  49.882  1.00  0.00     0.251 C 
HETATM    2  N   UNL     1      25.719  42.297  49.127  1.00  0.00    -0.278 N 
HETATM    3  C   UNL     1      24.656  43.032  49.591  1.00  0.00     0.322 C 
HETATM    4  N   UNL     1      23.929  43.603  48.583  1.00  0.00    -0.343 N 
HETATM    5  O   UNL     1      24.425  43.190  50.783  1.00  0.00    -0.247 OA
HETATM    6  O   UNL     1      27.179  40.582  49.345  1.00  0.00    -0.271 OA
HETATM    7  H   UNL     1      25.789  42.160  48.129  1.00  0.00     0.173 HD
HETATM    8  H   UNL     1      23.969  43.164  47.672  1.00  0.00     0.164 HD
ENDROOT
BRANCH   1   9
HETATM    9  C   UNL     1      26.423  41.535  51.415  1.00  0.00     0.337 C 
BRANCH   9  10
HETATM   10  N   UNL     1      27.382  42.617  51.921  1.00  0.00    -0.060 N 
HETATM   11  C   UNL     1      26.811  43.402  53.104  1.00  0.00     0.255 C 
HETATM   12  C   UNL     1      27.774  44.540  53.489  1.00  0.00     0.150 C 
HETATM   13  N   UNL     1      29.114  43.996  53.753  1.00  0.00    -0.378 N 
HETATM   14  C   UNL     1      29.723  43.210  52.671  1.00  0.00     0.150 C 
HETATM   15  C   UNL     1      28.767  42.073  52.236  1.00  0.00     0.255 C 
HETATM   16  H   UNL     1      27.464  43.293  51.146  1.00  0.00     0.280 HD
BRANCH  13  17
HETATM   17  C   UNL     1      29.745  44.155  54.973  1.00  0.00     0.030 A 
HETATM   18  C   UNL     1      30.627  43.187  55.483  1.00  0.00     0.032 A 
HETATM   19  C   UNL     1      31.275  43.354  56.713  1.00  0.00     0.044 A 
HETATM   20  C   UNL     1      31.043  44.499  57.457  1.00  0.00     0.116 A 
HETATM   21  C   UNL     1      30.176  45.474  56.995  1.00  0.00     0.044 A 
HETATM   22  F   UNL     1      31.661  44.662  58.634  1.00  0.00    -0.206 F 
HETATM   23  C   UNL     1      29.536  45.300  55.762  1.00  0.00     0.032 A 
ENDBRANCH  13  17
ENDBRANCH   9  10
ENDBRANCH   1   9
BRANCH   4  24
HETATM   24  C   UNL     1      22.667  44.268  48.887  1.00  0.00     0.129 C 
BRANCH  24  25
HETATM   25  C   UNL     1      22.411  45.521  48.044  1.00  0.00     0.060 C 
BRANCH  25  26
HETATM   26  C   UNL     1      22.807  46.823  48.688  1.00  0.00    -0.029 A 
HETATM   27  C   UNL     1      22.274  48.139  48.471  1.00  0.00     0.001 A 
HETATM   28  C   UNL     1      22.998  49.021  49.280  1.00  0.00     0.043 A 
HETATM   29  C   UNL     1      21.259  48.676  47.653  1.00  0.00     0.056 A 
HETATM   30  C   UNL     1      22.769  50.404  49.302  1.00  0.00     0.033 A 
HETATM   31  N   UNL     1      23.893  48.270  50.002  1.00  0.00    -0.365 N 
HETATM   32  C   UNL     1      21.773  50.909  48.464  1.00  0.00     0.044 A 
HETATM   33  C   UNL     1      21.035  50.054  47.661  1.00  0.00     0.117 A 
HETATM   34  F   UNL     1      20.088  50.562  46.859  1.00  0.00    -0.206 F 
HETATM   35  H   UNL     1      24.526  48.641  50.698  1.00  0.00     0.165 HD
HETATM   36  C   UNL     1      23.800  46.954  49.641  1.00  0.00     0.096 A 
ENDBRANCH  25  26
ENDBRANCH  24  25
ENDBRANCH   4  24
TORSDOF 6
ENDMDL
MODEL 10
REMARK VINA RESULT:      -9.4      4.082      9.918
REMARK  6 active torsions:
REMARK  status: ('A' for Active; 'I' for Inactive)
REMARK    1  A    between atoms: C_2  and  N_3 
REMARK    2  A    between atoms: N_6  and  C_8 
REMARK    3  A    between atoms: C_8  and  C_9 
REMARK       I    between atoms: C_9  and  N_10 
REMARK       I    between atoms: N_10  and  C_11 
REMARK       I    between atoms: C_11  and  N_12 
REMARK    4  A    between atoms: N_12  and  C_13 
REMARK    5  A    between atoms: C_13  and  C_14 
REMARK    6  A    between atoms: C_14  and  C_15 
ROOT
HETATM    1  C   UNL     1      22.584  43.387  49.509  1.00  0.00     0.251 C 
HETATM    2  N   UNL     1      21.738  44.463  49.495  1.00  0.00    -0.278 N 
HETATM    3  C   UNL     1      21.800  45.506  48.606  1.00  0.00     0.322 C 
HETATM    4  N   UNL     1      21.004  46.558  48.968  1.00  0.00    -0.343 N 
HETATM    5  O   UNL     1      22.465  45.467  47.578  1.00  0.00    -0.247 OA
HETATM    6  O   UNL     1      22.685  42.677  50.515  1.00  0.00    -0.271 OA
HETATM    7  H   UNL     1      21.224  44.612  50.352  1.00  0.00     0.173 HD
HETATM    8  H   UNL     1      20.775  46.653  49.949  1.00  0.00     0.164 HD
ENDROOT
BRANCH   1   9
HETATM    9  C   UNL     1      23.446  43.082  48.274  1.00  0.00     0.337 C 
BRANCH   9  10
HETATM   10  N   UNL     1      24.932  43.077  48.646  1.00  0.00    -0.060 N 
HETATM   11  C   UNL     1      25.332  44.293  49.484  1.00  0.00     0.255 C 
HETATM   12  C   UNL     1      26.852  44.283  49.728  1.00  0.00     0.150 C 
HETATM   13  N   UNL     1      27.254  43.006  50.337  1.00  0.00    -0.378 N 
HETATM   14  C   UNL     1      26.886  41.789  49.600  1.00  0.00     0.150 C 
HETATM   15  C   UNL     1      25.367  41.780  49.310  1.00  0.00     0.255 C 
HETATM   16  H   UNL     1      25.437  43.172  47.751  1.00  0.00     0.280 HD
BRANCH  13  17
HETATM   17  C   UNL     1      27.885  42.944  51.565  1.00  0.00     0.030 A 
HETATM   18  C   UNL     1      27.822  44.005  52.486  1.00  0.00     0.032 A 
HETATM   19  C   UNL     1      28.452  43.937  53.734  1.00  0.00     0.044 A 
HETATM   20  C   UNL     1      29.164  42.800  54.079  1.00  0.00     0.116 A 
HETATM   21  C   UNL     1      29.258  41.736  53.198  1.00  0.00     0.044 A 
HETATM   22  F   UNL     1      29.768  42.731  55.272  1.00  0.00    -0.206 F 
HETATM   23  C   UNL     1      28.621  41.811  51.954  1.00  0.00     0.032 A 
ENDBRANCH  13  17
ENDBRANCH   9  10
ENDBRANCH   1   9
BRANCH   4  24
HETATM   24  C   UNL     1      21.085  47.815  48.234  1.00  0.00     0.129 C 
BRANCH  24  25
HETATM   25  C   UNL     1      21.683  48.967  49.047  1.00  0.00     0.060 C 
BRANCH  25  26
HETATM   26  C   UNL     1      23.050  49.422  48.612  1.00  0.00    -0.029 A 
HETATM   27  C   UNL     1      24.339  48.968  49.055  1.00  0.00     0.001 A 
HETATM   28  C   UNL     1      25.303  49.723  48.378  1.00  0.00     0.043 A 
HETATM   29  C   UNL     1      24.788  48.002  49.978  1.00  0.00     0.056 A 
HETATM   30  C   UNL     1      26.680  49.572  48.588  1.00  0.00     0.033 A 
HETATM   31  N   UNL     1      24.634  50.560  47.518  1.00  0.00    -0.365 N 
HETATM   32  C   UNL     1      27.093  48.624  49.525  1.00  0.00     0.044 A 
HETATM   33  C   UNL     1      26.158  47.855  50.201  1.00  0.00     0.117 A 
HETATM   34  F   UNL     1      26.576  46.956  51.102  1.00  0.00    -0.206 F 
HETATM   35  H   UNL     1      25.081  51.199  46.873  1.00  0.00     0.165 HD
HETATM   36  C   UNL     1      23.283  50.401  47.663  1.00  0.00     0.096 A 
ENDBRANCH  25  26
ENDBRANCH  24  25
ENDBRANCH   4  24
TORSDOF 6
ENDMDL
