MODEL 1
REMARK VINA RESULT:      -8.9      0.000      0.000
REMARK  9 active torsions:
REMARK  status: ('A' for Active; 'I' for Inactive)
REMARK    1  A    between atoms: C_2  and  C_3 
REMARK    2  A    between atoms: C_6  and  N_7 
REMARK    3  A    between atoms: N_7  and  S_8 
REMARK    4  A    between atoms: S_8  and  C_9 
REMARK    5  A    between atoms: C_15  and  C_16 
REMARK       I    between atoms: C_16  and  N_17 
REMARK    6  A    between atoms: N_17  and  C_18 
REMARK    7  A    between atoms: C_18  and  C_19 
REMARK    8  A    between atoms: C_19  and  C_20 
REMARK    9  A    between atoms: C_20  and  O_21 
ROOT
HETATM    1  C   UNL     1      25.373  43.398  50.699  1.00  0.00     0.081 A 
HETATM    2  C   UNL     1      25.392  44.763  50.401  1.00  0.00     0.043 A 
HETATM    3  C   UNL     1      24.248  45.354  49.855  1.00  0.00     0.043 A 
HETATM    4  C   UNL     1      23.085  44.600  49.621  1.00  0.00     0.046 A 
HETATM    5  N   UNL     1      21.970  45.209  49.034  1.00  0.00    -0.364 N 
HETATM    6  C   UNL     1      21.963  46.556  48.770  1.00  0.00     0.109 A 
HETATM    7  C   UNL     1      22.995  47.394  48.961  1.00  0.00     0.098 A 
HETATM    8  C   UNL     1      24.245  46.804  49.520  1.00  0.00     0.201 A 
HETATM    9  O   UNL     1      25.253  47.483  49.709  1.00  0.00    -0.286 OA
HETATM   10  C   UNL     1      23.088  43.235  49.922  1.00  0.00     0.032 A 
HETATM   11  C   UNL     1      24.225  42.633  50.472  1.00  0.00     0.027 A 
HETATM   12  H   UNL     1      21.088  44.708  49.004  1.00  0.00     0.165 HD
ENDROOT
BRANCH   1  13
HETATM   13  S   UNL     1      26.811  42.654  51.442  1.00  0.00     0.263 S 
HETATM   14  O   UNL     1      27.979  43.324  50.916  1.00  0.00    -0.200 OA
HETATM   15  O   UNL     1      26.651  41.219  51.327  1.00  0.00    -0.200 OA
BRANCH  13  16
HETATM   16  N   UNL     1      26.617  43.023  53.075  1.00  0.00    -0.281 N 
HETATM   17  H   UNL     1      25.735  43.494  53.273  1.00  0.00     0.179 HD
BRANCH  16  18
HETATM   18  C   UNL     1      27.751  43.378  53.853  1.00  0.00     0.042 A 
HETATM   19  C   UNL     1      27.855  44.663  54.383  1.00  0.00     0.030 A 
HETATM   20  C   UNL     1      28.971  45.010  55.151  1.00  0.00     0.009 A 
HETATM   21  C   UNL     1      29.987  44.074  55.395  1.00  0.00    -0.058 A 
HETATM   22  C   UNL     1      29.872  42.788  54.852  1.00  0.00     0.009 A 
HETATM   23  C   UNL     1      28.762  42.445  54.079  1.00  0.00     0.030 A 
BRANCH  21  24
HETATM   24  C   UNL     1      31.167  44.431  56.262  1.00  0.00     0.034 C 
HETATM   25  C   UNL     1      31.681  43.230  57.042  1.00  0.00     0.010 C 
ENDBRANCH  21  24
ENDBRANCH  16  18
ENDBRANCH  13  16
ENDBRANCH   1  13
BRANCH   7  26
HETATM   26  C   UNL     1      22.821  48.832  48.611  1.00  0.00     0.257 C 
HETATM   27  N   UNL     1      22.118  49.577  49.523  1.00  0.00    -0.357 N 
HETATM   28  H   UNL     1      21.794  49.116  50.375  1.00  0.00     0.162 HD
HETATM   29  O   UNL     1      23.279  49.302  47.573  1.00  0.00    -0.267 OA
BRANCH  27  30
HETATM   30  C   UNL     1      21.861  50.991  49.354  1.00  0.00     0.125 C 
BRANCH  30  31
HETATM   31  C   UNL     1      20.461  51.294  48.830  1.00  0.00     0.046 C 
BRANCH  31  32
HETATM   32  C   UNL     1      19.428  51.420  49.944  1.00  0.00     0.168 C 
BRANCH  32  33
HETATM   33  O   UNL     1      19.428  50.203  50.692  1.00  0.00    -0.396 OA
HETATM   34  C   UNL     1      18.528  49.248  50.144  1.00  0.00     0.201 C 
ENDBRANCH  32  33
ENDBRANCH  31  32
ENDBRANCH  30  31
ENDBRANCH  27  30
ENDBRANCH   7  26
TORSDOF 9
ENDMDL
MODEL 2
REMARK VINA RESULT:      -8.8      1.302      1.449
REMARK  9 active torsions:
REMARK  status: ('A' for Active; 'I' for Inactive)
REMARK    1  A    between atoms: C_2  and  C_3 
REMARK    2  A    between atoms: C_6  and  N_7 
REMARK    3  A    between atoms: N_7  and  S_8 
REMARK    4  A    between atoms: S_8  and  C_9 
REMARK    5  A    between atoms: C_15  and  C_16 
REMARK       I    between atoms: C_16  and  N_17 
REMARK    6  A    between atoms: N_17  and  C_18 
REMARK    7  A    between atoms: C_18  and  C_19 
REMARK    8  A    between atoms: C_19  and  C_20 
REMARK    9  A    between atoms: C_20  and  O_21 
ROOT
HETATM    1  C   UNL     1      26.024  43.583  51.518  1.00  0.00     0.081 A 
HETATM    2  C   UNL     1      25.917  44.975  51.478  1.00  0.00     0.043 A 
HETATM    3  C   UNL     1      24.985  45.559  50.615  1.00  0.00     0.043 A 
HETATM    4  C   UNL     1      24.149  44.767  49.809  1.00  0.00     0.046 A 
HETATM    5  N   UNL     1      23.255  45.380  48.924  1.00  0.00    -0.364 N 
HETATM    6  C   UNL     1      23.115  46.745  48.900  1.00  0.00     0.109 A 
HETATM    7  C   UNL     1      23.835  47.616  49.627  1.00  0.00     0.098 A 
HETATM    8  C   UNL     1      24.859  47.040  50.545  1.00  0.00     0.201 A 
HETATM    9  O   UNL     1      25.583  47.755  51.235  1.00  0.00    -0.286 OA
HETATM   10  C   UNL     1      24.273  43.376  49.862  1.00  0.00     0.032 A 
HETATM   11  C   UNL     1      25.201  42.779  50.723  1.00  0.00     0.027 A 
HETATM   12  H   UNL     1      22.553  44.816  48.456  1.00  0.00     0.165 HD
ENDROOT
BRANCH   1  13
HETATM   13  S   UNL     1      27.175  42.835  52.653  1.00  0.00     0.263 S 
HETATM   14  O   UNL     1      27.697  41.639  52.032  1.00  0.00    -0.200 OA
HETATM   15  O   UNL     1      26.523  42.787  53.946  1.00  0.00    -0.200 OA
BRANCH  13  16
HETATM   16  N   UNL     1      28.386  44.001  52.776  1.00  0.00    -0.281 N 
HETATM   17  H   UNL     1      28.869  44.166  51.895  1.00  0.00     0.179 HD
BRANCH  16  18
HETATM   18  C   UNL     1      29.137  44.108  53.978  1.00  0.00     0.042 A 
HETATM   19  C   UNL     1      28.954  45.207  54.815  1.00  0.00     0.030 A 
HETATM   20  C   UNL     1      29.692  45.309  55.998  1.00  0.00     0.009 A 
HETATM   21  C   UNL     1      30.614  44.313  56.351  1.00  0.00    -0.058 A 
HETATM   22  C   UNL     1      30.791  43.217  55.498  1.00  0.00     0.009 A 
HETATM   23  C   UNL     1      30.060  43.120  54.313  1.00  0.00     0.030 A 
BRANCH  21  24
HETATM   24  C   UNL     1      31.375  44.397  57.650  1.00  0.00     0.034 C 
HETATM   25  C   UNL     1      30.788  45.445  58.584  1.00  0.00     0.010 C 
ENDBRANCH  21  24
ENDBRANCH  16  18
ENDBRANCH  13  16
ENDBRANCH   1  13
BRANCH   7  26
HETATM   26  C   UNL     1      23.560  49.073  49.472  1.00  0.00     0.257 C 
HETATM   27  N   UNL     1      22.303  49.476  49.845  1.00  0.00    -0.357 N 
HETATM   28  H   UNL     1      21.663  48.774  50.222  1.00  0.00     0.162 HD
HETATM   29  O   UNL     1      24.410  49.846  49.039  1.00  0.00    -0.267 OA
BRANCH  27  30
HETATM   30  C   UNL     1      21.864  50.854  49.773  1.00  0.00     0.125 C 
BRANCH  30  31
HETATM   31  C   UNL     1      20.897  51.122  48.624  1.00  0.00     0.046 C 
BRANCH  31  32
HETATM   32  C   UNL     1      19.458  50.758  48.967  1.00  0.00     0.168 C 
BRANCH  32  33
HETATM   33  O   UNL     1      19.440  49.416  49.454  1.00  0.00    -0.396 OA
HETATM   34  C   UNL     1      18.675  49.298  50.646  1.00  0.00     0.201 C 
ENDBRANCH  32  33
ENDBRANCH  31  32
ENDBRANCH  30  31
ENDBRANCH  27  30
ENDBRANCH   7  26
TORSDOF 9
ENDMDL
MODEL 3
REMARK VINA RESULT:      -8.5      2.539      9.873
REMARK  9 active torsions:
REMARK  status: ('A' for Active; 'I' for Inactive)
REMARK    1  A    between atoms: C_2  and  C_3 
REMARK    2  A    between atoms: C_6  and  N_7 
REMARK    3  A    between atoms: N_7  and  S_8 
REMARK    4  A    between atoms: S_8  and  C_9 
REMARK    5  A    between atoms: C_15  and  C_16 
REMARK       I    between atoms: C_16  and  N_17 
REMARK    6  A    between atoms: N_17  and  C_18 
REMARK    7  A    between atoms: C_18  and  C_19 
REMARK    8  A    between atoms: C_19  and  C_20 
REMARK    9  A    between atoms: C_20  and  O_21 
ROOT
HETATM    1  C   UNL     1      23.292  47.745  49.053  1.00  0.00     0.081 A 
HETATM    2  C   UNL     1      24.353  47.572  49.946  1.00  0.00     0.043 A 
HETATM    3  C   UNL     1      24.761  46.275  50.270  1.00  0.00     0.043 A 
HETATM    4  C   UNL     1      24.133  45.154  49.699  1.00  0.00     0.046 A 
HETATM    5  N   UNL     1      24.535  43.867  50.075  1.00  0.00    -0.364 N 
HETATM    6  C   UNL     1      25.599  43.683  50.923  1.00  0.00     0.109 A 
HETATM    7  C   UNL     1      26.296  44.661  51.523  1.00  0.00     0.098 A 
HETATM    8  C   UNL     1      25.882  46.062  51.226  1.00  0.00     0.201 A 
HETATM    9  O   UNL     1      26.442  47.026  51.744  1.00  0.00    -0.286 OA
HETATM   10  C   UNL     1      23.071  45.348  48.811  1.00  0.00     0.032 A 
HETATM   11  C   UNL     1      22.655  46.642  48.476  1.00  0.00     0.027 A 
HETATM   12  H   UNL     1      24.189  43.067  49.556  1.00  0.00     0.165 HD
ENDROOT
BRANCH   1  13
HETATM   13  S   UNL     1      22.803  49.397  48.599  1.00  0.00     0.263 S 
HETATM   14  O   UNL     1      23.619  49.808  47.479  1.00  0.00    -0.200 OA
HETATM   15  O   UNL     1      22.757  50.175  49.820  1.00  0.00    -0.200 OA
BRANCH  13  16
HETATM   16  N   UNL     1      21.204  49.190  48.109  1.00  0.00    -0.281 N 
HETATM   17  H   UNL     1      21.124  48.830  47.159  1.00  0.00     0.179 HD
BRANCH  16  18
HETATM   18  C   UNL     1      20.208  50.094  48.564  1.00  0.00     0.042 A 
HETATM   19  C   UNL     1      19.291  49.687  49.531  1.00  0.00     0.030 A 
HETATM   20  C   UNL     1      18.313  50.580  49.981  1.00  0.00     0.009 A 
HETATM   21  C   UNL     1      18.248  51.884  49.468  1.00  0.00    -0.058 A 
HETATM   22  C   UNL     1      19.174  52.278  48.494  1.00  0.00     0.009 A 
HETATM   23  C   UNL     1      20.144  51.383  48.039  1.00  0.00     0.030 A 
BRANCH  21  24
HETATM   24  C   UNL     1      17.226  52.863  49.986  1.00  0.00     0.034 C 
HETATM   25  C   UNL     1      15.808  52.443  49.629  1.00  0.00     0.010 C 
ENDBRANCH  21  24
ENDBRANCH  16  18
ENDBRANCH  13  16
ENDBRANCH   1  13
BRANCH   7  26
HETATM   26  C   UNL     1      27.421  44.285  52.426  1.00  0.00     0.257 C 
HETATM   27  N   UNL     1      27.462  44.954  53.623  1.00  0.00    -0.357 N 
HETATM   28  H   UNL     1      26.721  45.628  53.824  1.00  0.00     0.162 HD
HETATM   29  O   UNL     1      28.247  43.435  52.105  1.00  0.00    -0.267 OA
BRANCH  27  30
HETATM   30  C   UNL     1      28.476  44.711  54.626  1.00  0.00     0.125 C 
BRANCH  30  31
HETATM   31  C   UNL     1      29.005  45.987  55.275  1.00  0.00     0.046 C 
BRANCH  31  32
HETATM   32  C   UNL     1      27.903  46.825  55.913  1.00  0.00     0.168 C 
BRANCH  32  33
HETATM   33  O   UNL     1      27.387  47.714  54.920  1.00  0.00    -0.396 OA
HETATM   34  C   UNL     1      26.329  48.514  55.429  1.00  0.00     0.201 C 
ENDBRANCH  32  33
ENDBRANCH  31  32
ENDBRANCH  30  31
ENDBRANCH  27  30
ENDBRANCH   7  26
TORSDOF 9
ENDMDL
MODEL 4
REMARK VINA RESULT:      -8.5      1.668      2.531
REMARK  9 active torsions:
REMARK  status: ('A' for Active; 'I' for Inactive)
REMARK    1  A    between atoms: C_2  and  C_3 
REMARK    2  A    between atoms: C_6  and  N_7 
REMARK    3  A    between atoms: N_7  and  S_8 
REMARK    4  A    between atoms: S_8  and  C_9 
REMARK    5  A    between atoms: C_15  and  C_16 
REMARK       I    between atoms: C_16  and  N_17 
REMARK    6  A    between atoms: N_17  and  C_18 
REMARK    7  A    between atoms: C_18  and  C_19 
REMARK    8  A    between atoms: C_19  and  C_20 
REMARK    9  A    between atoms: C_20  and  O_21 
ROOT
HETATM    1  C   UNL     1      25.687  44.834  50.639  1.00  0.00     0.081 A 
HETATM    2  C   UNL     1      24.639  45.678  50.262  1.00  0.00     0.043 A 
HETATM    3  C   UNL     1      24.938  46.929  49.715  1.00  0.00     0.043 A 
HETATM    4  C   UNL     1      26.271  47.335  49.523  1.00  0.00     0.046 A 
HETATM    5  N   UNL     1      26.540  48.610  49.011  1.00  0.00    -0.364 N 
HETATM    6  C   UNL     1      25.520  49.434  48.605  1.00  0.00     0.109 A 
HETATM    7  C   UNL     1      24.209  49.164  48.714  1.00  0.00     0.098 A 
HETATM    8  C   UNL     1      23.840  47.850  49.315  1.00  0.00     0.201 A 
HETATM    9  O   UNL     1      22.667  47.520  49.479  1.00  0.00    -0.286 OA
HETATM   10  C   UNL     1      27.305  46.478  49.909  1.00  0.00     0.032 A 
HETATM   11  C   UNL     1      27.018  45.222  50.456  1.00  0.00     0.027 A 
HETATM   12  H   UNL     1      27.488  48.844  48.735  1.00  0.00     0.165 HD
ENDROOT
BRANCH   1  13
HETATM   13  S   UNL     1      25.308  43.220  51.289  1.00  0.00     0.263 S 
HETATM   14  O   UNL     1      26.295  42.294  50.780  1.00  0.00    -0.200 OA
HETATM   15  O   UNL     1      23.892  43.001  51.078  1.00  0.00    -0.200 OA
BRANCH  13  16
HETATM   16  N   UNL     1      25.513  43.431  52.949  1.00  0.00    -0.281 N 
HETATM   17  H   UNL     1      24.834  44.074  53.353  1.00  0.00     0.179 HD
BRANCH  16  18
HETATM   18  C   UNL     1      26.821  43.409  53.502  1.00  0.00     0.042 A 
HETATM   19  C   UNL     1      27.571  42.235  53.464  1.00  0.00     0.030 A 
HETATM   20  C   UNL     1      28.860  42.215  54.006  1.00  0.00     0.009 A 
HETATM   21  C   UNL     1      29.406  43.368  54.588  1.00  0.00    -0.058 A 
HETATM   22  C   UNL     1      28.640  44.539  54.623  1.00  0.00     0.009 A 
HETATM   23  C   UNL     1      27.350  44.557  54.089  1.00  0.00     0.030 A 
BRANCH  21  24
HETATM   24  C   UNL     1      30.813  43.362  55.130  1.00  0.00     0.034 C 
HETATM   25  C   UNL     1      30.986  44.358  56.266  1.00  0.00     0.010 C 
ENDBRANCH  21  24
ENDBRANCH  16  18
ENDBRANCH  13  16
ENDBRANCH   1  13
BRANCH   7  26
HETATM   26  C   UNL     1      23.229  50.178  48.229  1.00  0.00     0.257 C 
HETATM   27  N   UNL     1      21.932  49.976  48.626  1.00  0.00    -0.357 N 
HETATM   28  H   UNL     1      21.732  49.181  49.236  1.00  0.00     0.162 HD
HETATM   29  O   UNL     1      23.575  51.121  47.524  1.00  0.00    -0.267 OA
BRANCH  27  30
HETATM   30  C   UNL     1      20.849  50.864  48.259  1.00  0.00     0.125 C 
BRANCH  30  31
HETATM   31  C   UNL     1      20.023  51.336  49.451  1.00  0.00     0.046 C 
BRANCH  31  32
HETATM   32  C   UNL     1      18.678  50.625  49.556  1.00  0.00     0.168 C 
BRANCH  32  33
HETATM   33  O   UNL     1      18.585  50.036  50.853  1.00  0.00    -0.396 OA
HETATM   34  C   UNL     1      18.715  48.622  50.800  1.00  0.00     0.201 C 
ENDBRANCH  32  33
ENDBRANCH  31  32
ENDBRANCH  30  31
ENDBRANCH  27  30
ENDBRANCH   7  26
TORSDOF 9
ENDMDL
MODEL 5
REMARK VINA RESULT:      -8.5      1.646      2.139
REMARK  9 active torsions:
REMARK  status: ('A' for Active; 'I' for Inactive)
REMARK    1  A    between atoms: C_2  and  C_3 
REMARK    2  A    between atoms: C_6  and  N_7 
REMARK    3  A    between atoms: N_7  and  S_8 
REMARK    4  A    between atoms: S_8  and  C_9 
REMARK    5  A    between atoms: C_15  and  C_16 
REMARK       I    between atoms: C_16  and  N_17 
REMARK    6  A    between atoms: N_17  and  C_18 
REMARK    7  A    between atoms: C_18  and  C_19 
REMARK    8  A    between atoms: C_19  and  C_20 
REMARK    9  A    between atoms: C_20  and  O_21 
ROOT
HETATM    1  C   UNL     1      25.104  43.776  49.183  1.00  0.00     0.081 A 
HETATM    2  C   UNL     1      24.556  45.059  49.243  1.00  0.00     0.043 A 
HETATM    3  C   UNL     1      23.235  45.253  48.828  1.00  0.00     0.043 A 
HETATM    4  C   UNL     1      22.454  44.175  48.374  1.00  0.00     0.046 A 
HETATM    5  N   UNL     1      21.148  44.406  47.926  1.00  0.00    -0.364 N 
HETATM    6  C   UNL     1      20.586  45.655  48.012  1.00  0.00     0.109 A 
HETATM    7  C   UNL     1      21.211  46.764  48.441  1.00  0.00     0.098 A 
HETATM    8  C   UNL     1      22.631  46.612  48.872  1.00  0.00     0.201 A 
HETATM    9  O   UNL     1      23.296  47.571  49.258  1.00  0.00    -0.286 OA
HETATM   10  C   UNL     1      23.021  42.899  48.319  1.00  0.00     0.032 A 
HETATM   11  C   UNL     1      24.342  42.692  48.734  1.00  0.00     0.027 A 
HETATM   12  H   UNL     1      20.539  43.616  47.742  1.00  0.00     0.165 HD
ENDROOT
BRANCH   1  13
HETATM   13  S   UNL     1      26.770  43.518  49.759  1.00  0.00     0.263 S 
HETATM   14  O   UNL     1      27.433  44.802  49.789  1.00  0.00    -0.200 OA
HETATM   15  O   UNL     1      27.313  42.411  48.999  1.00  0.00    -0.200 OA
BRANCH  13  16
HETATM   16  N   UNL     1      26.537  42.947  51.327  1.00  0.00    -0.281 N 
HETATM   17  H   UNL     1      25.578  43.062  51.652  1.00  0.00     0.179 HD
BRANCH  16  18
HETATM   18  C   UNL     1      27.583  43.069  52.281  1.00  0.00     0.042 A 
HETATM   19  C   UNL     1      27.478  44.003  53.309  1.00  0.00     0.030 A 
HETATM   20  C   UNL     1      28.507  44.121  54.249  1.00  0.00     0.009 A 
HETATM   21  C   UNL     1      29.645  43.305  54.166  1.00  0.00    -0.058 A 
HETATM   22  C   UNL     1      29.738  42.374  53.124  1.00  0.00     0.009 A 
HETATM   23  C   UNL     1      28.715  42.263  52.182  1.00  0.00     0.030 A 
BRANCH  21  24
HETATM   24  C   UNL     1      30.733  43.396  55.205  1.00  0.00     0.034 C 
HETATM   25  C   UNL     1      30.550  44.603  56.112  1.00  0.00     0.010 C 
ENDBRANCH  21  24
ENDBRANCH  16  18
ENDBRANCH  13  16
ENDBRANCH   1  13
BRANCH   7  26
HETATM   26  C   UNL     1      20.454  48.048  48.462  1.00  0.00     0.257 C 
HETATM   27  N   UNL     1      20.277  48.605  49.704  1.00  0.00    -0.357 N 
HETATM   28  H   UNL     1      20.691  48.131  50.508  1.00  0.00     0.162 HD
HETATM   29  O   UNL     1      20.023  48.558  47.432  1.00  0.00    -0.267 OA
BRANCH  27  30
HETATM   30  C   UNL     1      19.576  49.853  49.914  1.00  0.00     0.125 C 
BRANCH  30  31
HETATM   31  C   UNL     1      20.465  51.082  49.753  1.00  0.00     0.046 C 
BRANCH  31  32
HETATM   32  C   UNL     1      21.659  51.074  50.700  1.00  0.00     0.168 C 
BRANCH  32  33
HETATM   33  O   UNL     1      22.791  50.575  49.986  1.00  0.00    -0.396 OA
HETATM   34  C   UNL     1      22.835  51.071  48.655  1.00  0.00     0.201 C 
ENDBRANCH  32  33
ENDBRANCH  31  32
ENDBRANCH  30  31
ENDBRANCH  27  30
ENDBRANCH   7  26
TORSDOF 9
ENDMDL
MODEL 6
REMARK VINA RESULT:      -8.4      2.358     10.120
REMARK  9 active torsions:
REMARK  status: ('A' for Active; 'I' for Inactive)
REMARK    1  A    between atoms: C_2  and  C_3 
REMARK    2  A    between atoms: C_6  and  N_7 
REMARK    3  A    between atoms: N_7  and  S_8 
REMARK    4  A    between atoms: S_8  and  C_9 
REMARK    5  A    between atoms: C_15  and  C_16 
REMARK       I    between atoms: C_16  and  N_17 
REMARK    6  A    between atoms: N_17  and  C_18 
REMARK    7  A    between atoms: C_18  and  C_19 
REMARK    8  A    between atoms: C_19  and  C_20 
REMARK    9  A    between atoms: C_20  and  O_21 
ROOT
HETATM    1  C   UNL     1      23.554  47.373  49.283  1.00  0.00     0.081 A 
HETATM    2  C   UNL     1      24.397  47.301  50.395  1.00  0.00     0.043 A 
HETATM    3  C   UNL     1      24.689  46.049  50.944  1.00  0.00     0.043 A 
HETATM    4  C   UNL     1      24.165  44.871  50.382  1.00  0.00     0.046 A 
HETATM    5  N   UNL     1      24.441  43.636  50.978  1.00  0.00    -0.364 N 
HETATM    6  C   UNL     1      25.294  43.548  52.049  1.00  0.00     0.109 A 
HETATM    7  C   UNL     1      25.877  44.586  52.671  1.00  0.00     0.098 A 
HETATM    8  C   UNL     1      25.575  45.945  52.135  1.00  0.00     0.201 A 
HETATM    9  O   UNL     1      26.041  46.961  52.649  1.00  0.00    -0.286 OA
HETATM   10  C   UNL     1      23.322  44.965  49.271  1.00  0.00     0.032 A 
HETATM   11  C   UNL     1      23.024  46.213  48.711  1.00  0.00     0.027 A 
HETATM   12  H   UNL     1      24.189  42.782  50.492  1.00  0.00     0.165 HD
ENDROOT
BRANCH   1  13
HETATM   13  S   UNL     1      23.221  48.963  48.551  1.00  0.00     0.263 S 
HETATM   14  O   UNL     1      22.327  48.758  47.434  1.00  0.00    -0.200 OA
HETATM   15  O   UNL     1      24.498  49.625  48.379  1.00  0.00    -0.200 OA
BRANCH  13  16
HETATM   16  N   UNL     1      22.425  49.782  49.790  1.00  0.00    -0.281 N 
HETATM   17  H   UNL     1      22.635  49.405  50.713  1.00  0.00     0.179 HD
BRANCH  16  18
HETATM   18  C   UNL     1      21.123  50.303  49.562  1.00  0.00     0.042 A 
HETATM   19  C   UNL     1      20.966  51.493  48.854  1.00  0.00     0.030 A 
HETATM   20  C   UNL     1      19.684  52.003  48.629  1.00  0.00     0.009 A 
HETATM   21  C   UNL     1      18.553  51.325  49.107  1.00  0.00    -0.058 A 
HETATM   22  C   UNL     1      18.726  50.133  49.821  1.00  0.00     0.009 A 
HETATM   23  C   UNL     1      20.007  49.629  50.053  1.00  0.00     0.030 A 
BRANCH  21  24
HETATM   24  C   UNL     1      17.167  51.848  48.824  1.00  0.00     0.034 C 
HETATM   25  C   UNL     1      16.812  53.025  49.720  1.00  0.00     0.010 C 
ENDBRANCH  21  24
ENDBRANCH  16  18
ENDBRANCH  13  16
ENDBRANCH   1  13
BRANCH   7  26
HETATM   26  C   UNL     1      26.773  44.313  53.830  1.00  0.00     0.257 C 
HETATM   27  N   UNL     1      28.075  44.719  53.673  1.00  0.00    -0.357 N 
HETATM   28  H   UNL     1      28.330  45.195  52.807  1.00  0.00     0.162 HD
HETATM   29  O   UNL     1      26.361  43.762  54.846  1.00  0.00    -0.267 OA
BRANCH  27  30
HETATM   30  C   UNL     1      29.082  44.545  54.698  1.00  0.00     0.125 C 
BRANCH  30  31
HETATM   31  C   UNL     1      29.907  43.273  54.527  1.00  0.00     0.046 C 
BRANCH  31  32
HETATM   32  C   UNL     1      30.084  42.877  53.066  1.00  0.00     0.168 C 
BRANCH  32  33
HETATM   33  O   UNL     1      29.466  41.605  52.870  1.00  0.00    -0.396 OA
HETATM   34  C   UNL     1      28.482  41.650  51.845  1.00  0.00     0.201 C 
ENDBRANCH  32  33
ENDBRANCH  31  32
ENDBRANCH  30  31
ENDBRANCH  27  30
ENDBRANCH   7  26
TORSDOF 9
ENDMDL
MODEL 7
REMARK VINA RESULT:      -8.4      2.568      3.386
REMARK  9 active torsions:
REMARK  status: ('A' for Active; 'I' for Inactive)
REMARK    1  A    between atoms: C_2  and  C_3 
REMARK    2  A    between atoms: C_6  and  N_7 
REMARK    3  A    between atoms: N_7  and  S_8 
REMARK    4  A    between atoms: S_8  and  C_9 
REMARK    5  A    between atoms: C_15  and  C_16 
REMARK       I    between atoms: C_16  and  N_17 
REMARK    6  A    between atoms: N_17  and  C_18 
REMARK    7  A    between atoms: C_18  and  C_19 
REMARK    8  A    between atoms: C_19  and  C_20 
REMARK    9  A    between atoms: C_20  and  O_21 
ROOT
HETATM    1  C   UNL     1      25.329  46.732  50.185  1.00  0.00     0.081 A 
HETATM    2  C   UNL     1      24.022  47.134  49.900  1.00  0.00     0.043 A 
HETATM    3  C   UNL     1      23.814  48.356  49.252  1.00  0.00     0.043 A 
HETATM    4  C   UNL     1      24.898  49.166  48.871  1.00  0.00     0.046 A 
HETATM    5  N   UNL     1      24.657  50.403  48.261  1.00  0.00    -0.364 N 
HETATM    6  C   UNL     1      23.380  50.794  47.944  1.00  0.00     0.109 A 
HETATM    7  C   UNL     1      22.260  50.110  48.233  1.00  0.00     0.098 A 
HETATM    8  C   UNL     1      22.431  48.812  48.946  1.00  0.00     0.201 A 
HETATM    9  O   UNL     1      21.466  48.124  49.275  1.00  0.00    -0.286 OA
HETATM   10  C   UNL     1      26.197  48.748  49.168  1.00  0.00     0.032 A 
HETATM   11  C   UNL     1      26.419  47.526  49.814  1.00  0.00     0.027 A 
HETATM   12  H   UNL     1      25.432  50.916  47.854  1.00  0.00     0.165 HD
ENDROOT
BRANCH   1  13
HETATM   13  S   UNL     1      25.599  45.154  50.966  1.00  0.00     0.263 S 
HETATM   14  O   UNL     1      27.001  44.828  50.835  1.00  0.00    -0.200 OA
HETATM   15  O   UNL     1      24.571  44.259  50.475  1.00  0.00    -0.200 OA
BRANCH  13  16
HETATM   16  N   UNL     1      25.223  45.468  52.579  1.00  0.00    -0.281 N 
HETATM   17  H   UNL     1      24.386  46.038  52.687  1.00  0.00     0.179 HD
BRANCH  16  18
HETATM   18  C   UNL     1      26.272  45.637  53.522  1.00  0.00     0.042 A 
HETATM   19  C   UNL     1      26.781  46.910  53.772  1.00  0.00     0.030 A 
HETATM   20  C   UNL     1      27.812  47.075  54.703  1.00  0.00     0.009 A 
HETATM   21  C   UNL     1      28.336  45.970  55.390  1.00  0.00    -0.058 A 
HETATM   22  C   UNL     1      27.817  44.696  55.125  1.00  0.00     0.009 A 
HETATM   23  C   UNL     1      26.795  44.531  54.189  1.00  0.00     0.030 A 
BRANCH  21  24
HETATM   24  C   UNL     1      29.413  46.152  56.429  1.00  0.00     0.034 C 
HETATM   25  C   UNL     1      28.858  46.061  57.842  1.00  0.00     0.010 C 
ENDBRANCH  21  24
ENDBRANCH  16  18
ENDBRANCH  13  16
ENDBRANCH   1  13
BRANCH   7  26
HETATM   26  C   UNL     1      20.947  50.685  47.823  1.00  0.00     0.257 C 
HETATM   27  N   UNL     1      20.441  51.647  48.659  1.00  0.00    -0.357 N 
HETATM   28  H   UNL     1      20.997  51.921  49.472  1.00  0.00     0.162 HD
HETATM   29  O   UNL     1      20.371  50.311  46.805  1.00  0.00    -0.267 OA
BRANCH  27  30
HETATM   30  C   UNL     1      19.184  52.321  48.414  1.00  0.00     0.125 C 
BRANCH  30  31
HETATM   31  C   UNL     1      17.965  51.484  48.787  1.00  0.00     0.046 C 
BRANCH  31  32
HETATM   32  C   UNL     1      18.122  50.777  50.128  1.00  0.00     0.168 C 
BRANCH  32  33
HETATM   33  O   UNL     1      18.427  49.405  49.876  1.00  0.00    -0.396 OA
HETATM   34  C   UNL     1      18.608  48.675  51.082  1.00  0.00     0.201 C 
ENDBRANCH  32  33
ENDBRANCH  31  32
ENDBRANCH  30  31
ENDBRANCH  27  30
ENDBRANCH   7  26
TORSDOF 9
ENDMDL
MODEL 8
REMARK VINA RESULT:      -8.2      2.257      3.035
REMARK  9 active torsions:
REMARK  status: ('A' for Active; 'I' for Inactive)
REMARK    1  A    between atoms: C_2  and  C_3 
REMARK    2  A    between atoms: C_6  and  N_7 
REMARK    3  A    between atoms: N_7  and  S_8 
REMARK    4  A    between atoms: S_8  and  C_9 
REMARK    5  A    between atoms: C_15  and  C_16 
REMARK       I    between atoms: C_16  and  N_17 
REMARK    6  A    between atoms: N_17  and  C_18 
REMARK    7  A    between atoms: C_18  and  C_19 
REMARK    8  A    between atoms: C_19  and  C_20 
REMARK    9  A    between atoms: C_20  and  O_21 
ROOT
HETATM    1  C   UNL     1      26.783  42.039  51.253  1.00  0.00     0.081 A 
HETATM    2  C   UNL     1      26.307  43.324  50.977  1.00  0.00     0.043 A 
HETATM    3  C   UNL     1      25.265  43.478  50.058  1.00  0.00     0.043 A 
HETATM    4  C   UNL     1      24.683  42.363  49.429  1.00  0.00     0.046 A 
HETATM    5  N   UNL     1      23.670  42.551  48.482  1.00  0.00    -0.364 N 
HETATM    6  C   UNL     1      23.170  43.804  48.228  1.00  0.00     0.109 A 
HETATM    7  C   UNL     1      23.619  44.948  48.769  1.00  0.00     0.098 A 
HETATM    8  C   UNL     1      24.747  44.836  49.738  1.00  0.00     0.201 A 
HETATM    9  O   UNL     1      25.244  45.827  50.270  1.00  0.00    -0.286 OA
HETATM   10  C   UNL     1      25.176  41.087  49.716  1.00  0.00     0.032 A 
HETATM   11  C   UNL     1      26.217  40.919  50.636  1.00  0.00     0.027 A 
HETATM   12  H   UNL     1      23.152  41.748  48.142  1.00  0.00     0.165 HD
ENDROOT
BRANCH   1  13
HETATM   13  S   UNL     1      28.076  41.836  52.461  1.00  0.00     0.263 S 
HETATM   14  O   UNL     1      29.009  40.856  51.952  1.00  0.00    -0.200 OA
HETATM   15  O   UNL     1      27.430  41.662  53.746  1.00  0.00    -0.200 OA
BRANCH  13  16
HETATM   16  N   UNL     1      28.795  43.360  52.495  1.00  0.00    -0.281 N 
HETATM   17  H   UNL     1      29.433  43.515  51.716  1.00  0.00     0.179 HD
BRANCH  16  18
HETATM   18  C   UNL     1      29.111  43.958  53.744  1.00  0.00     0.042 A 
HETATM   19  C   UNL     1      28.364  45.042  54.203  1.00  0.00     0.030 A 
HETATM   20  C   UNL     1      28.674  45.628  55.434  1.00  0.00     0.009 A 
HETATM   21  C   UNL     1      29.731  45.133  56.213  1.00  0.00    -0.058 A 
HETATM   22  C   UNL     1      30.475  44.047  55.737  1.00  0.00     0.009 A 
HETATM   23  C   UNL     1      30.170  43.468  54.504  1.00  0.00     0.030 A 
BRANCH  21  24
HETATM   24  C   UNL     1      30.036  45.732  57.562  1.00  0.00     0.034 C 
HETATM   25  C   UNL     1      31.171  45.001  58.263  1.00  0.00     0.010 C 
ENDBRANCH  21  24
ENDBRANCH  16  18
ENDBRANCH  13  16
ENDBRANCH   1  13
BRANCH   7  26
HETATM   26  C   UNL     1      22.966  46.229  48.375  1.00  0.00     0.257 C 
HETATM   27  N   UNL     1      23.032  47.232  49.308  1.00  0.00    -0.357 N 
HETATM   28  H   UNL     1      23.536  47.050  50.178  1.00  0.00     0.162 HD
HETATM   29  O   UNL     1      22.411  46.360  47.288  1.00  0.00    -0.267 OA
BRANCH  27  30
HETATM   30  C   UNL     1      22.462  48.546  49.093  1.00  0.00     0.125 C 
BRANCH  30  31
HETATM   31  C   UNL     1      23.231  49.379  48.073  1.00  0.00     0.046 C 
BRANCH  31  32
HETATM   32  C   UNL     1      24.471  50.039  48.664  1.00  0.00     0.168 C 
BRANCH  32  33
HETATM   33  O   UNL     1      25.214  49.043  49.368  1.00  0.00    -0.396 OA
HETATM   34  C   UNL     1      26.576  49.018  48.964  1.00  0.00     0.201 C 
ENDBRANCH  32  33
ENDBRANCH  31  32
ENDBRANCH  30  31
ENDBRANCH  27  30
ENDBRANCH   7  26
TORSDOF 9
ENDMDL
MODEL 9
REMARK VINA RESULT:      -8.1      3.178     11.090
REMARK  9 active torsions:
REMARK  status: ('A' for Active; 'I' for Inactive)
REMARK    1  A    between atoms: C_2  and  C_3 
REMARK    2  A    between atoms: C_6  and  N_7 
REMARK    3  A    between atoms: N_7  and  S_8 
REMARK    4  A    between atoms: S_8  and  C_9 
REMARK    5  A    between atoms: C_15  and  C_16 
REMARK       I    between atoms: C_16  and  N_17 
REMARK    6  A    between atoms: N_17  and  C_18 
REMARK    7  A    between atoms: C_18  and  C_19 
REMARK    8  A    between atoms: C_19  and  C_20 
REMARK    9  A    between atoms: C_20  and  O_21 
ROOT
HETATM    1  C   UNL     1      21.916  49.264  48.118  1.00  0.00     0.081 A 
HETATM    2  C   UNL     1      22.453  48.086  48.645  1.00  0.00     0.043 A 
HETATM    3  C   UNL     1      23.815  48.041  48.956  1.00  0.00     0.043 A 
HETATM    4  C   UNL     1      24.639  49.164  48.762  1.00  0.00     0.046 A 
HETATM    5  N   UNL     1      26.008  49.076  49.042  1.00  0.00    -0.364 N 
HETATM    6  C   UNL     1      26.540  47.937  49.593  1.00  0.00     0.109 A 
HETATM    7  C   UNL     1      25.866  46.803  49.846  1.00  0.00     0.098 A 
HETATM    8  C   UNL     1      24.413  46.796  49.509  1.00  0.00     0.201 A 
HETATM    9  O   UNL     1      23.715  45.799  49.681  1.00  0.00    -0.286 OA
HETATM   10  C   UNL     1      24.084  50.331  48.230  1.00  0.00     0.032 A 
HETATM   11  C   UNL     1      22.721  50.390  47.918  1.00  0.00     0.027 A 
HETATM   12  H   UNL     1      26.570  49.921  49.045  1.00  0.00     0.165 HD
ENDROOT
BRANCH   1  13
HETATM   13  S   UNL     1      20.171  49.340  47.769  1.00  0.00     0.263 S 
HETATM   14  O   UNL     1      19.722  48.002  47.456  1.00  0.00    -0.200 OA
HETATM   15  O   UNL     1      19.973  50.435  46.842  1.00  0.00    -0.200 OA
BRANCH  13  16
HETATM   16  N   UNL     1      19.520  49.841  49.241  1.00  0.00    -0.281 N 
HETATM   17  H   UNL     1      19.621  49.144  49.977  1.00  0.00     0.179 HD
BRANCH  16  18
HETATM   18  C   UNL     1      18.359  50.659  49.252  1.00  0.00     0.042 A 
HETATM   19  C   UNL     1      17.158  50.164  48.747  1.00  0.00     0.030 A 
HETATM   20  C   UNL     1      16.014  50.968  48.761  1.00  0.00     0.009 A 
HETATM   21  C   UNL     1      16.065  52.270  49.281  1.00  0.00    -0.058 A 
HETATM   22  C   UNL     1      17.279  52.755  49.781  1.00  0.00     0.009 A 
HETATM   23  C   UNL     1      18.422  51.955  49.759  1.00  0.00     0.030 A 
BRANCH  21  24
HETATM   24  C   UNL     1      14.822  53.122  49.341  1.00  0.00     0.034 C 
HETATM   25  C   UNL     1      14.443  53.470  50.772  1.00  0.00     0.010 C 
ENDBRANCH  21  24
ENDBRANCH  16  18
ENDBRANCH  13  16
ENDBRANCH   1  13
BRANCH   7  26
HETATM   26  C   UNL     1      26.603  45.652  50.441  1.00  0.00     0.257 C 
HETATM   27  N   UNL     1      26.270  45.350  51.737  1.00  0.00    -0.357 N 
HETATM   28  H   UNL     1      25.538  45.901  52.189  1.00  0.00     0.162 HD
HETATM   29  O   UNL     1      27.446  45.029  49.803  1.00  0.00    -0.267 OA
BRANCH  27  30
HETATM   30  C   UNL     1      26.876  44.259  52.471  1.00  0.00     0.125 C 
BRANCH  30  31
HETATM   31  C   UNL     1      27.625  44.711  53.720  1.00  0.00     0.046 C 
BRANCH  31  32
HETATM   32  C   UNL     1      28.754  43.763  54.107  1.00  0.00     0.168 C 
BRANCH  32  33
HETATM   33  O   UNL     1      29.591  44.429  55.053  1.00  0.00    -0.396 OA
HETATM   34  C   UNL     1      30.670  43.605  55.475  1.00  0.00     0.201 C 
ENDBRANCH  32  33
ENDBRANCH  31  32
ENDBRANCH  30  31
ENDBRANCH  27  30
ENDBRANCH   7  26
TORSDOF 9
ENDMDL
MODEL 10
REMARK VINA RESULT:      -8.0      1.657      2.320
REMARK  9 active torsions:
REMARK  status: ('A' for Active; 'I' for Inactive)
REMARK    1  A    between atoms: C_2  and  C_3 
REMARK    2  A    between atoms: C_6  and  N_7 
REMARK    3  A    between atoms: N_7  and  S_8 
REMARK    4  A    between atoms: S_8  and  C_9 
REMARK    5  A    between atoms: C_15  and  C_16 
REMARK       I    between atoms: C_16  and  N_17 
REMARK    6  A    between atoms: N_17  and  C_18 
REMARK    7  A    between atoms: C_18  and  C_19 
REMARK    8  A    between atoms: C_19  and  C_20 
REMARK    9  A    between atoms: C_20  and  O_21 
ROOT
HETATM    1  C   UNL     1      26.178  43.942  49.960  1.00  0.00     0.081 A 
HETATM    2  C   UNL     1      24.865  44.279  49.625  1.00  0.00     0.043 A 
HETATM    3  C   UNL     1      24.529  45.627  49.469  1.00  0.00     0.043 A 
HETATM    4  C   UNL     1      25.496  46.636  49.626  1.00  0.00     0.046 A 
HETATM    5  N   UNL     1      25.121  47.980  49.506  1.00  0.00    -0.364 N 
HETATM    6  C   UNL     1      23.843  48.323  49.143  1.00  0.00     0.109 A 
HETATM    7  C   UNL     1      22.831  47.463  48.944  1.00  0.00     0.098 A 
HETATM    8  C   UNL     1      23.135  46.014  49.122  1.00  0.00     0.201 A 
HETATM    9  O   UNL     1      22.270  45.150  48.986  1.00  0.00    -0.286 OA
HETATM   10  C   UNL     1      26.804  46.278  49.965  1.00  0.00     0.032 A 
HETATM   11  C   UNL     1      27.152  44.932  50.121  1.00  0.00     0.027 A 
HETATM   12  H   UNL     1      25.840  48.695  49.471  1.00  0.00     0.165 HD
ENDROOT
BRANCH   1  13
HETATM   13  S   UNL     1      26.619  42.222  50.109  1.00  0.00     0.263 S 
HETATM   14  O   UNL     1      28.003  42.083  49.713  1.00  0.00    -0.200 OA
HETATM   15  O   UNL     1      25.573  41.460  49.460  1.00  0.00    -0.200 OA
BRANCH  13  16
HETATM   16  N   UNL     1      26.457  41.939  51.762  1.00  0.00    -0.281 N 
HETATM   17  H   UNL     1      25.486  41.838  52.053  1.00  0.00     0.179 HD
BRANCH  16  18
HETATM   18  C   UNL     1      27.366  42.546  52.670  1.00  0.00     0.042 A 
HETATM   19  C   UNL     1      26.968  43.658  53.410  1.00  0.00     0.030 A 
HETATM   20  C   UNL     1      27.863  44.252  54.305  1.00  0.00     0.009 A 
HETATM   21  C   UNL     1      29.157  43.738  54.467  1.00  0.00    -0.058 A 
HETATM   22  C   UNL     1      29.544  42.622  53.713  1.00  0.00     0.009 A 
HETATM   23  C   UNL     1      28.654  42.034  52.814  1.00  0.00     0.030 A 
BRANCH  21  24
HETATM   24  C   UNL     1      30.107  44.347  55.466  1.00  0.00     0.034 C 
HETATM   25  C   UNL     1      31.083  43.320  56.020  1.00  0.00     0.010 C 
ENDBRANCH  21  24
ENDBRANCH  16  18
ENDBRANCH  13  16
ENDBRANCH   1  13
BRANCH   7  26
HETATM   26  C   UNL     1      21.496  48.007  48.561  1.00  0.00     0.257 C 
HETATM   27  N   UNL     1      20.532  47.933  49.533  1.00  0.00    -0.357 N 
HETATM   28  H   UNL     1      20.792  47.547  50.443  1.00  0.00     0.162 HD
HETATM   29  O   UNL     1      21.291  48.483  47.448  1.00  0.00    -0.267 OA
BRANCH  27  30
HETATM   30  C   UNL     1      19.183  48.422  49.342  1.00  0.00     0.125 C 
BRANCH  30  31
HETATM   31  C   UNL     1      18.816  49.570  50.277  1.00  0.00     0.046 C 
BRANCH  31  32
HETATM   32  C   UNL     1      19.815  50.720  50.220  1.00  0.00     0.168 C 
BRANCH  32  33
HETATM   33  O   UNL     1      19.083  51.943  50.129  1.00  0.00    -0.396 OA
HETATM   34  C   UNL     1      18.348  52.028  48.915  1.00  0.00     0.201 C 
ENDBRANCH  32  33
ENDBRANCH  31  32
ENDBRANCH  30  31
ENDBRANCH  27  30
ENDBRANCH   7  26
TORSDOF 9
ENDMDL
