MODEL 1
REMARK VINA RESULT:      -9.4      0.000      0.000
REMARK  5 active torsions:
REMARK  status: ('A' for Active; 'I' for Inactive)
REMARK    1  A    between atoms: C_7  and  C_8 
REMARK    2  A    between atoms: C_11  and  N_12 
REMARK       I    between atoms: N_12  and  C_13 
REMARK    3  A    between atoms: C_13  and  C_14 
REMARK    4  A    between atoms: C_16  and  O_17 
REMARK    5  A    between atoms: C_20  and  O_21 
ROOT
HETATM    1  C   UNL     1      26.822  45.305  52.562  1.00  0.00     0.017 A 
HETATM    2  C   UNL     1      26.563  44.668  51.341  1.00  0.00     0.018 A 
HETATM    3  C   UNL     1      25.571  45.145  50.475  1.00  0.00     0.030 A 
HETATM    4  C   UNL     1      24.818  46.270  50.810  1.00  0.00     0.035 A 
HETATM    5  C   UNL     1      25.039  46.883  52.049  1.00  0.00     0.030 A 
HETATM    6  C   UNL     1      26.032  46.407  52.913  1.00  0.00     0.018 A 
ENDROOT
BRANCH   4   7
HETATM    7  N   UNL     1      23.865  46.867  49.959  1.00  0.00    -0.323 N 
HETATM    8  C   UNL     1      23.916  48.137  49.413  1.00  0.00     0.256 C 
HETATM    9  O   UNL     1      24.828  48.948  49.494  1.00  0.00    -0.267 OA
HETATM   10  H   UNL     1      22.995  46.360  49.856  1.00  0.00     0.169 HD
BRANCH   8  11
HETATM   11  C   UNL     1      22.671  48.545  48.714  1.00  0.00     0.037 A 
HETATM   12  C   UNL     1      22.287  49.887  48.787  1.00  0.00     0.054 A 
HETATM   13  C   UNL     1      21.093  50.306  48.204  1.00  0.00     0.071 A 
HETATM   14  C   UNL     1      20.304  49.378  47.524  1.00  0.00     0.073 A 
HETATM   15  C   UNL     1      20.697  48.036  47.423  1.00  0.00     0.071 A 
HETATM   16  C   UNL     1      21.884  47.615  48.021  1.00  0.00     0.054 A 
BRANCH  13  17
HETATM   17  O   UNL     1      20.811  51.634  48.372  1.00  0.00    -0.356 OA
HETATM   18  C   UNL     1      19.538  51.959  48.913  1.00  0.00     0.210 C 
ENDBRANCH  13  17
BRANCH  15  19
HETATM   19  O   UNL     1      19.828  47.244  46.722  1.00  0.00    -0.356 OA
HETATM   20  C   UNL     1      18.936  47.894  45.824  1.00  0.00     0.210 C 
ENDBRANCH  15  19
ENDBRANCH   8  11
ENDBRANCH   4   7
BRANCH   1  21
HETATM   21  C   UNL     1      27.909  44.887  53.444  1.00  0.00     0.180 A 
HETATM   22  N   UNL     1      28.670  43.809  53.365  1.00  0.00    -0.221 NA
HETATM   23  C   UNL     1      29.448  43.876  54.492  1.00  0.00     0.093 A 
HETATM   24  C   UNL     1      29.141  45.019  55.210  1.00  0.00     0.107 A 
HETATM   25  C   UNL     1      30.427  43.009  54.990  1.00  0.00     0.035 A 
HETATM   26  C   UNL     1      29.739  45.390  56.408  1.00  0.00     0.046 A 
HETATM   27  O   UNL     1      28.153  45.679  54.540  1.00  0.00    -0.289 OA
HETATM   28  C   UNL     1      30.728  44.521  56.900  1.00  0.00    -0.059 A 
HETATM   29  C   UNL     1      31.399  44.817  58.212  1.00  0.00     0.048 C 
HETATM   30  C   UNL     1      31.053  43.343  56.202  1.00  0.00     0.009 A 
ENDBRANCH   1  21
TORSDOF 5
ENDMDL
MODEL 2
REMARK VINA RESULT:      -9.4      0.402      2.099
REMARK  5 active torsions:
REMARK  status: ('A' for Active; 'I' for Inactive)
REMARK    1  A    between atoms: C_7  and  C_8 
REMARK    2  A    between atoms: C_11  and  N_12 
REMARK       I    between atoms: N_12  and  C_13 
REMARK    3  A    between atoms: C_13  and  C_14 
REMARK    4  A    between atoms: C_16  and  O_17 
REMARK    5  A    between atoms: C_20  and  O_21 
ROOT
HETATM    1  C   UNL     1      26.819  45.417  52.851  1.00  0.00     0.017 A 
HETATM    2  C   UNL     1      26.293  44.638  51.813  1.00  0.00     0.018 A 
HETATM    3  C   UNL     1      25.288  45.139  50.974  1.00  0.00     0.030 A 
HETATM    4  C   UNL     1      24.791  46.429  51.155  1.00  0.00     0.035 A 
HETATM    5  C   UNL     1      25.280  47.195  52.219  1.00  0.00     0.030 A 
HETATM    6  C   UNL     1      26.285  46.695  53.056  1.00  0.00     0.018 A 
ENDROOT
BRANCH   4   7
HETATM    7  N   UNL     1      23.848  47.040  50.303  1.00  0.00    -0.323 N 
HETATM    8  C   UNL     1      24.031  48.178  49.538  1.00  0.00     0.256 C 
HETATM    9  O   UNL     1      25.062  48.820  49.390  1.00  0.00    -0.267 OA
HETATM   10  H   UNL     1      22.903  46.684  50.373  1.00  0.00     0.169 HD
BRANCH   8  11
HETATM   11  C   UNL     1      22.790  48.681  48.896  1.00  0.00     0.037 A 
HETATM   12  C   UNL     1      22.066  47.800  48.089  1.00  0.00     0.054 A 
HETATM   13  C   UNL     1      20.931  48.243  47.412  1.00  0.00     0.071 A 
HETATM   14  C   UNL     1      20.514  49.565  47.573  1.00  0.00     0.073 A 
HETATM   15  C   UNL     1      21.221  50.446  48.403  1.00  0.00     0.071 A 
HETATM   16  C   UNL     1      22.364  50.005  49.067  1.00  0.00     0.054 A 
BRANCH  13  17
HETATM   17  O   UNL     1      20.329  47.298  46.627  1.00  0.00    -0.356 OA
HETATM   18  C   UNL     1      18.961  47.018  46.891  1.00  0.00     0.210 C 
ENDBRANCH  13  17
BRANCH  15  19
HETATM   19  O   UNL     1      20.691  51.707  48.469  1.00  0.00    -0.356 OA
HETATM   20  C   UNL     1      19.465  51.861  49.175  1.00  0.00     0.210 C 
ENDBRANCH  15  19
ENDBRANCH   8  11
ENDBRANCH   4   7
BRANCH   1  21
HETATM   21  C   UNL     1      27.928  44.958  53.684  1.00  0.00     0.180 A 
HETATM   22  N   UNL     1      28.656  43.861  53.561  1.00  0.00    -0.221 NA
HETATM   23  C   UNL     1      29.480  43.892  54.657  1.00  0.00     0.093 A 
HETATM   24  C   UNL     1      29.232  45.032  55.401  1.00  0.00     0.107 A 
HETATM   25  C   UNL     1      30.453  42.992  55.104  1.00  0.00     0.035 A 
HETATM   26  C   UNL     1      29.887  45.370  56.579  1.00  0.00     0.046 A 
HETATM   27  O   UNL     1      28.237  45.728  54.780  1.00  0.00    -0.289 OA
HETATM   28  C   UNL     1      30.871  44.468  57.020  1.00  0.00    -0.059 A 
HETATM   29  C   UNL     1      31.600  44.728  58.309  1.00  0.00     0.048 C 
HETATM   30  C   UNL     1      31.136  43.292  56.295  1.00  0.00     0.009 A 
ENDBRANCH   1  21
TORSDOF 5
ENDMDL
MODEL 3
REMARK VINA RESULT:      -9.1      1.374      1.973
REMARK  5 active torsions:
REMARK  status: ('A' for Active; 'I' for Inactive)
REMARK    1  A    between atoms: C_7  and  C_8 
REMARK    2  A    between atoms: C_11  and  N_12 
REMARK       I    between atoms: N_12  and  C_13 
REMARK    3  A    between atoms: C_13  and  C_14 
REMARK    4  A    between atoms: C_16  and  O_17 
REMARK    5  A    between atoms: C_20  and  O_21 
ROOT
HETATM    1  C   UNL     1      26.961  46.038  53.436  1.00  0.00     0.017 A 
HETATM    2  C   UNL     1      26.263  47.251  53.407  1.00  0.00     0.018 A 
HETATM    3  C   UNL     1      25.324  47.520  52.401  1.00  0.00     0.030 A 
HETATM    4  C   UNL     1      25.065  46.580  51.405  1.00  0.00     0.035 A 
HETATM    5  C   UNL     1      25.793  45.385  51.400  1.00  0.00     0.030 A 
HETATM    6  C   UNL     1      26.729  45.116  52.407  1.00  0.00     0.018 A 
ENDROOT
BRANCH   4   7
HETATM    7  N   UNL     1      24.076  46.733  50.412  1.00  0.00    -0.323 N 
HETATM    8  C   UNL     1      23.910  47.809  49.559  1.00  0.00     0.256 C 
HETATM    9  O   UNL     1      24.633  48.790  49.446  1.00  0.00    -0.267 OA
HETATM   10  H   UNL     1      23.334  46.044  50.426  1.00  0.00     0.169 HD
BRANCH   8  11
HETATM   11  C   UNL     1      22.662  47.759  48.756  1.00  0.00     0.037 A 
HETATM   12  C   UNL     1      21.753  48.812  48.890  1.00  0.00     0.054 A 
HETATM   13  C   UNL     1      20.538  48.779  48.209  1.00  0.00     0.071 A 
HETATM   14  C   UNL     1      20.255  47.698  47.372  1.00  0.00     0.073 A 
HETATM   15  C   UNL     1      21.176  46.653  47.211  1.00  0.00     0.071 A 
HETATM   16  C   UNL     1      22.384  46.680  47.906  1.00  0.00     0.054 A 
BRANCH  13  17
HETATM   17  O   UNL     1      19.720  49.848  48.448  1.00  0.00    -0.356 OA
HETATM   18  C   UNL     1      20.344  51.116  48.600  1.00  0.00     0.210 C 
ENDBRANCH  13  17
BRANCH  15  19
HETATM   19  O   UNL     1      20.765  45.667  46.354  1.00  0.00    -0.356 OA
HETATM   20  C   UNL     1      21.556  45.444  45.192  1.00  0.00     0.210 C 
ENDBRANCH  15  19
ENDBRANCH   8  11
ENDBRANCH   4   7
BRANCH   1  21
HETATM   21  C   UNL     1      27.878  45.691  54.519  1.00  0.00     0.180 A 
HETATM   22  N   UNL     1      28.053  46.299  55.680  1.00  0.00    -0.221 NA
HETATM   23  C   UNL     1      29.091  45.611  56.255  1.00  0.00     0.093 A 
HETATM   24  C   UNL     1      29.496  44.584  55.419  1.00  0.00     0.107 A 
HETATM   25  C   UNL     1      29.758  45.796  57.470  1.00  0.00     0.035 A 
HETATM   26  C   UNL     1      30.529  43.697  55.694  1.00  0.00     0.046 A 
HETATM   27  O   UNL     1      28.717  44.625  54.301  1.00  0.00    -0.289 OA
HETATM   28  C   UNL     1      31.192  43.880  56.920  1.00  0.00    -0.059 A 
HETATM   29  C   UNL     1      32.352  42.997  57.283  1.00  0.00     0.048 C 
HETATM   30  C   UNL     1      30.814  44.924  57.786  1.00  0.00     0.009 A 
ENDBRANCH   1  21
TORSDOF 5
ENDMDL
MODEL 4
REMARK VINA RESULT:      -9.0      1.496      2.882
REMARK  5 active torsions:
REMARK  status: ('A' for Active; 'I' for Inactive)
REMARK    1  A    between atoms: C_7  and  C_8 
REMARK    2  A    between atoms: C_11  and  N_12 
REMARK       I    between atoms: N_12  and  C_13 
REMARK    3  A    between atoms: C_13  and  C_14 
REMARK    4  A    between atoms: C_16  and  O_17 
REMARK    5  A    between atoms: C_20  and  O_21 
ROOT
HETATM    1  C   UNL     1      26.987  46.028  53.466  1.00  0.00     0.017 A 
HETATM    2  C   UNL     1      26.219  47.199  53.446  1.00  0.00     0.018 A 
HETATM    3  C   UNL     1      25.299  47.441  52.418  1.00  0.00     0.030 A 
HETATM    4  C   UNL     1      25.127  46.515  51.389  1.00  0.00     0.035 A 
HETATM    5  C   UNL     1      25.924  45.366  51.377  1.00  0.00     0.030 A 
HETATM    6  C   UNL     1      26.842  45.124  52.406  1.00  0.00     0.018 A 
ENDROOT
BRANCH   4   7
HETATM    7  N   UNL     1      24.162  46.638  50.368  1.00  0.00    -0.323 N 
HETATM    8  C   UNL     1      23.961  47.725  49.537  1.00  0.00     0.256 C 
HETATM    9  O   UNL     1      24.630  48.748  49.472  1.00  0.00    -0.267 OA
HETATM   10  H   UNL     1      23.461  45.908  50.341  1.00  0.00     0.169 HD
BRANCH   8  11
HETATM   11  C   UNL     1      22.744  47.625  48.693  1.00  0.00     0.037 A 
HETATM   12  C   UNL     1      22.541  46.445  47.971  1.00  0.00     0.054 A 
HETATM   13  C   UNL     1      21.449  46.329  47.113  1.00  0.00     0.071 A 
HETATM   14  C   UNL     1      20.549  47.390  47.007  1.00  0.00     0.073 A 
HETATM   15  C   UNL     1      20.732  48.565  47.750  1.00  0.00     0.071 A 
HETATM   16  C   UNL     1      21.833  48.686  48.595  1.00  0.00     0.054 A 
BRANCH  13  17
HETATM   17  O   UNL     1      21.379  45.141  46.437  1.00  0.00    -0.356 OA
HETATM   18  C   UNL     1      20.120  44.480  46.426  1.00  0.00     0.210 C 
ENDBRANCH  13  17
BRANCH  15  19
HETATM   19  O   UNL     1      19.767  49.515  47.550  1.00  0.00    -0.356 OA
HETATM   20  C   UNL     1      18.585  49.420  48.338  1.00  0.00     0.210 C 
ENDBRANCH  15  19
ENDBRANCH   8  11
ENDBRANCH   4   7
BRANCH   1  21
HETATM   21  C   UNL     1      27.889  45.705  54.570  1.00  0.00     0.180 A 
HETATM   22  N   UNL     1      27.990  46.289  55.752  1.00  0.00    -0.221 NA
HETATM   23  C   UNL     1      29.049  45.647  56.342  1.00  0.00     0.093 A 
HETATM   24  C   UNL     1      29.541  44.671  55.493  1.00  0.00     0.107 A 
HETATM   25  C   UNL     1      29.665  45.836  57.583  1.00  0.00     0.035 A 
HETATM   26  C   UNL     1      30.617  43.839  55.778  1.00  0.00     0.046 A 
HETATM   27  O   UNL     1      28.797  44.697  54.351  1.00  0.00    -0.289 OA
HETATM   28  C   UNL     1      31.228  44.025  57.030  1.00  0.00    -0.059 A 
HETATM   29  C   UNL     1      32.428  43.202  57.407  1.00  0.00     0.048 C 
HETATM   30  C   UNL     1      30.761  45.020  57.910  1.00  0.00     0.009 A 
ENDBRANCH   1  21
TORSDOF 5
ENDMDL
MODEL 5
REMARK VINA RESULT:      -8.6      2.154     11.076
REMARK  5 active torsions:
REMARK  status: ('A' for Active; 'I' for Inactive)
REMARK    1  A    between atoms: C_7  and  C_8 
REMARK    2  A    between atoms: C_11  and  N_12 
REMARK       I    between atoms: N_12  and  C_13 
REMARK    3  A    between atoms: C_13  and  C_14 
REMARK    4  A    between atoms: C_16  and  O_17 
REMARK    5  A    between atoms: C_20  and  O_21 
ROOT
HETATM    1  C   UNL     1      23.640  47.596  49.484  1.00  0.00     0.017 A 
HETATM    2  C   UNL     1      23.531  46.211  49.307  1.00  0.00     0.018 A 
HETATM    3  C   UNL     1      24.454  45.334  49.892  1.00  0.00     0.030 A 
HETATM    4  C   UNL     1      25.504  45.824  50.666  1.00  0.00     0.035 A 
HETATM    5  C   UNL     1      25.647  47.209  50.808  1.00  0.00     0.030 A 
HETATM    6  C   UNL     1      24.723  48.084  50.226  1.00  0.00     0.018 A 
ENDROOT
BRANCH   4   7
HETATM    7  N   UNL     1      26.422  45.009  51.361  1.00  0.00    -0.323 N 
HETATM    8  C   UNL     1      26.401  44.693  52.708  1.00  0.00     0.256 C 
HETATM    9  O   UNL     1      25.545  44.988  53.531  1.00  0.00    -0.267 OA
HETATM   10  H   UNL     1      27.252  44.748  50.844  1.00  0.00     0.169 HD
BRANCH   8  11
HETATM   11  C   UNL     1      27.610  43.970  53.178  1.00  0.00     0.037 A 
HETATM   12  C   UNL     1      27.862  42.700  52.651  1.00  0.00     0.054 A 
HETATM   13  C   UNL     1      28.947  41.955  53.109  1.00  0.00     0.071 A 
HETATM   14  C   UNL     1      29.790  42.503  54.076  1.00  0.00     0.073 A 
HETATM   15  C   UNL     1      29.560  43.788  54.588  1.00  0.00     0.071 A 
HETATM   16  C   UNL     1      28.465  44.525  54.140  1.00  0.00     0.054 A 
BRANCH  13  17
HETATM   17  O   UNL     1      29.068  40.716  52.543  1.00  0.00    -0.356 OA
HETATM   18  C   UNL     1      28.446  40.521  51.279  1.00  0.00     0.210 C 
ENDBRANCH  13  17
BRANCH  15  19
HETATM   19  O   UNL     1      30.473  44.195  55.523  1.00  0.00    -0.356 OA
HETATM   20  C   UNL     1      30.197  45.406  56.218  1.00  0.00     0.210 C 
ENDBRANCH  15  19
ENDBRANCH   8  11
ENDBRANCH   4   7
BRANCH   1  21
HETATM   21  C   UNL     1      22.644  48.530  48.964  1.00  0.00     0.180 A 
HETATM   22  N   UNL     1      22.495  49.816  49.235  1.00  0.00    -0.221 NA
HETATM   23  C   UNL     1      21.359  50.163  48.550  1.00  0.00     0.093 A 
HETATM   24  C   UNL     1      20.867  49.066  47.864  1.00  0.00     0.107 A 
HETATM   25  C   UNL     1      20.668  51.377  48.466  1.00  0.00     0.035 A 
HETATM   26  C   UNL     1      19.724  49.070  47.075  1.00  0.00     0.046 A 
HETATM   27  O   UNL     1      21.691  48.010  48.121  1.00  0.00    -0.289 OA
HETATM   28  C   UNL     1      19.038  50.293  46.986  1.00  0.00    -0.059 A 
HETATM   29  C   UNL     1      17.765  50.381  46.191  1.00  0.00     0.048 C 
HETATM   30  C   UNL     1      19.503  51.424  47.684  1.00  0.00     0.009 A 
ENDBRANCH   1  21
TORSDOF 5
ENDMDL
MODEL 6
REMARK VINA RESULT:      -8.2      2.899     10.968
REMARK  5 active torsions:
REMARK  status: ('A' for Active; 'I' for Inactive)
REMARK    1  A    between atoms: C_7  and  C_8 
REMARK    2  A    between atoms: C_11  and  N_12 
REMARK       I    between atoms: N_12  and  C_13 
REMARK    3  A    between atoms: C_13  and  C_14 
REMARK    4  A    between atoms: C_16  and  O_17 
REMARK    5  A    between atoms: C_20  and  O_21 
ROOT
HETATM    1  C   UNL     1      22.487  47.816  48.809  1.00  0.00     0.017 A 
HETATM    2  C   UNL     1      22.196  46.537  48.317  1.00  0.00     0.018 A 
HETATM    3  C   UNL     1      23.022  45.445  48.614  1.00  0.00     0.030 A 
HETATM    4  C   UNL     1      24.155  45.609  49.411  1.00  0.00     0.035 A 
HETATM    5  C   UNL     1      24.477  46.892  49.867  1.00  0.00     0.030 A 
HETATM    6  C   UNL     1      23.650  47.982  49.572  1.00  0.00     0.018 A 
ENDROOT
BRANCH   4   7
HETATM    7  N   UNL     1      24.987  44.550  49.830  1.00  0.00    -0.323 N 
HETATM    8  C   UNL     1      25.024  43.967  51.084  1.00  0.00     0.256 C 
HETATM    9  O   UNL     1      24.292  44.197  52.036  1.00  0.00    -0.267 OA
HETATM   10  H   UNL     1      25.723  44.293  49.185  1.00  0.00     0.169 HD
BRANCH   8  11
HETATM   11  C   UNL     1      26.140  43.005  51.270  1.00  0.00     0.037 A 
HETATM   12  C   UNL     1      26.977  43.179  52.376  1.00  0.00     0.054 A 
HETATM   13  C   UNL     1      28.077  42.343  52.559  1.00  0.00     0.071 A 
HETATM   14  C   UNL     1      28.314  41.317  51.642  1.00  0.00     0.073 A 
HETATM   15  C   UNL     1      27.461  41.120  50.547  1.00  0.00     0.071 A 
HETATM   16  C   UNL     1      26.370  41.967  50.357  1.00  0.00     0.054 A 
BRANCH  13  17
HETATM   17  O   UNL     1      28.839  42.634  53.657  1.00  0.00    -0.356 OA
HETATM   18  C   UNL     1      28.445  43.756  54.435  1.00  0.00     0.210 C 
ENDBRANCH  13  17
BRANCH  15  19
HETATM   19  O   UNL     1      27.813  40.073  49.739  1.00  0.00    -0.356 OA
HETATM   20  C   UNL     1      28.761  39.144  50.252  1.00  0.00     0.210 C 
ENDBRANCH  15  19
ENDBRANCH   8  11
ENDBRANCH   4   7
BRANCH   1  21
HETATM   21  C   UNL     1      21.598  48.955  48.593  1.00  0.00     0.180 A 
HETATM   22  N   UNL     1      21.393  50.004  49.372  1.00  0.00    -0.221 NA
HETATM   23  C   UNL     1      20.402  50.699  48.729  1.00  0.00     0.093 A 
HETATM   24  C   UNL     1      20.053  50.048  47.558  1.00  0.00     0.107 A 
HETATM   25  C   UNL     1      19.731  51.878  49.072  1.00  0.00     0.035 A 
HETATM   26  C   UNL     1      19.076  50.480  46.670  1.00  0.00     0.046 A 
HETATM   27  O   UNL     1      20.822  48.927  47.459  1.00  0.00    -0.289 OA
HETATM   28  C   UNL     1      18.410  51.670  47.013  1.00  0.00    -0.059 A 
HETATM   29  C   UNL     1      17.306  52.189  46.136  1.00  0.00     0.048 C 
HETATM   30  C   UNL     1      18.730  52.347  48.205  1.00  0.00     0.009 A 
ENDBRANCH   1  21
TORSDOF 5
ENDMDL
MODEL 7
REMARK VINA RESULT:      -8.2     13.672     14.139
REMARK  5 active torsions:
REMARK  status: ('A' for Active; 'I' for Inactive)
REMARK    1  A    between atoms: C_7  and  C_8 
REMARK    2  A    between atoms: C_11  and  N_12 
REMARK       I    between atoms: N_12  and  C_13 
REMARK    3  A    between atoms: C_13  and  C_14 
REMARK    4  A    between atoms: C_16  and  O_17 
REMARK    5  A    between atoms: C_20  and  O_21 
ROOT
HETATM    1  C   UNL     1      35.819  51.939  43.673  1.00  0.00     0.017 A 
HETATM    2  C   UNL     1      36.251  51.114  42.627  1.00  0.00     0.018 A 
HETATM    3  C   UNL     1      35.335  50.383  41.858  1.00  0.00     0.030 A 
HETATM    4  C   UNL     1      33.968  50.464  42.119  1.00  0.00     0.035 A 
HETATM    5  C   UNL     1      33.533  51.250  43.193  1.00  0.00     0.030 A 
HETATM    6  C   UNL     1      34.448  51.981  43.958  1.00  0.00     0.018 A 
ENDROOT
BRANCH   4   7
HETATM    7  N   UNL     1      32.975  49.835  41.340  1.00  0.00    -0.323 N 
HETATM    8  C   UNL     1      32.392  50.319  40.183  1.00  0.00     0.256 C 
HETATM    9  O   UNL     1      32.682  51.339  39.573  1.00  0.00    -0.267 OA
HETATM   10  H   UNL     1      32.555  49.012  41.753  1.00  0.00     0.169 HD
BRANCH   8  11
HETATM   11  C   UNL     1      31.243  49.513  39.701  1.00  0.00     0.037 A 
HETATM   12  C   UNL     1      30.201  50.180  39.050  1.00  0.00     0.054 A 
HETATM   13  C   UNL     1      29.070  49.477  38.638  1.00  0.00     0.071 A 
HETATM   14  C   UNL     1      29.005  48.101  38.858  1.00  0.00     0.073 A 
HETATM   15  C   UNL     1      30.059  47.422  39.485  1.00  0.00     0.071 A 
HETATM   16  C   UNL     1      31.182  48.129  39.911  1.00  0.00     0.054 A 
BRANCH  13  17
HETATM   17  O   UNL     1      28.106  50.245  38.044  1.00  0.00    -0.356 OA
HETATM   18  C   UNL     1      28.063  51.619  38.406  1.00  0.00     0.210 C 
ENDBRANCH  13  17
BRANCH  15  19
HETATM   19  O   UNL     1      29.858  46.075  39.626  1.00  0.00    -0.356 OA
HETATM   20  C   UNL     1      28.522  45.635  39.839  1.00  0.00     0.210 C 
ENDBRANCH  15  19
ENDBRANCH   8  11
ENDBRANCH   4   7
BRANCH   1  21
HETATM   21  C   UNL     1      36.739  52.782  44.433  1.00  0.00     0.180 A 
HETATM   22  N   UNL     1      37.074  54.043  44.218  1.00  0.00    -0.221 NA
HETATM   23  C   UNL     1      38.032  54.291  45.168  1.00  0.00     0.093 A 
HETATM   24  C   UNL     1      38.228  53.164  45.946  1.00  0.00     0.107 A 
HETATM   25  C   UNL     1      38.793  55.435  45.432  1.00  0.00     0.035 A 
HETATM   26  C   UNL     1      39.133  53.071  46.996  1.00  0.00     0.046 A 
HETATM   27  O   UNL     1      37.396  52.187  45.483  1.00  0.00    -0.289 OA
HETATM   28  C   UNL     1      39.890  54.225  47.264  1.00  0.00    -0.059 A 
HETATM   29  C   UNL     1      40.927  54.203  48.352  1.00  0.00     0.048 C 
HETATM   30  C   UNL     1      39.726  55.383  46.481  1.00  0.00     0.009 A 
ENDBRANCH   1  21
TORSDOF 5
ENDMDL
MODEL 8
REMARK VINA RESULT:      -8.2      3.000      3.831
REMARK  5 active torsions:
REMARK  status: ('A' for Active; 'I' for Inactive)
REMARK    1  A    between atoms: C_7  and  C_8 
REMARK    2  A    between atoms: C_11  and  N_12 
REMARK       I    between atoms: N_12  and  C_13 
REMARK    3  A    between atoms: C_13  and  C_14 
REMARK    4  A    between atoms: C_16  and  O_17 
REMARK    5  A    between atoms: C_20  and  O_21 
ROOT
HETATM    1  C   UNL     1      26.955  44.515  52.135  1.00  0.00     0.017 A 
HETATM    2  C   UNL     1      25.587  44.592  52.424  1.00  0.00     0.018 A 
HETATM    3  C   UNL     1      24.630  44.555  51.401  1.00  0.00     0.030 A 
HETATM    4  C   UNL     1      25.022  44.441  50.068  1.00  0.00     0.035 A 
HETATM    5  C   UNL     1      26.389  44.412  49.768  1.00  0.00     0.030 A 
HETATM    6  C   UNL     1      27.344  44.445  50.791  1.00  0.00     0.018 A 
ENDROOT
BRANCH   4   7
HETATM    7  N   UNL     1      24.125  44.307  48.988  1.00  0.00    -0.323 N 
HETATM    8  C   UNL     1      23.196  45.237  48.557  1.00  0.00     0.256 C 
HETATM    9  O   UNL     1      23.032  46.376  48.973  1.00  0.00    -0.267 OA
HETATM   10  H   UNL     1      24.067  43.382  48.582  1.00  0.00     0.169 HD
BRANCH   8  11
HETATM   11  C   UNL     1      22.268  44.727  47.517  1.00  0.00     0.037 A 
HETATM   12  C   UNL     1      20.895  44.795  47.772  1.00  0.00     0.054 A 
HETATM   13  C   UNL     1      19.986  44.269  46.856  1.00  0.00     0.071 A 
HETATM   14  C   UNL     1      20.461  43.702  45.673  1.00  0.00     0.073 A 
HETATM   15  C   UNL     1      21.836  43.657  45.398  1.00  0.00     0.071 A 
HETATM   16  C   UNL     1      22.744  44.169  46.323  1.00  0.00     0.054 A 
BRANCH  13  17
HETATM   17  O   UNL     1      18.675  44.365  47.234  1.00  0.00    -0.356 OA
HETATM   18  C   UNL     1      17.709  44.444  46.194  1.00  0.00     0.210 C 
ENDBRANCH  13  17
BRANCH  15  19
HETATM   19  O   UNL     1      22.152  43.079  44.198  1.00  0.00    -0.356 OA
HETATM   20  C   UNL     1      23.492  43.223  43.740  1.00  0.00     0.210 C 
ENDBRANCH  15  19
ENDBRANCH   8  11
ENDBRANCH   4   7
BRANCH   1  21
HETATM   21  C   UNL     1      27.972  44.460  53.183  1.00  0.00     0.180 A 
HETATM   22  N   UNL     1      28.945  43.579  53.344  1.00  0.00    -0.221 NA
HETATM   23  C   UNL     1      29.528  43.952  54.528  1.00  0.00     0.093 A 
HETATM   24  C   UNL     1      28.892  45.072  55.035  1.00  0.00     0.107 A 
HETATM   25  C   UNL     1      30.587  43.392  55.251  1.00  0.00     0.035 A 
HETATM   26  C   UNL     1      29.228  45.706  56.225  1.00  0.00     0.046 A 
HETATM   27  O   UNL     1      27.892  45.410  54.172  1.00  0.00    -0.289 OA
HETATM   28  C   UNL     1      30.299  45.146  56.943  1.00  0.00    -0.059 A 
HETATM   29  C   UNL     1      30.704  45.737  58.264  1.00  0.00     0.048 C 
HETATM   30  C   UNL     1      30.956  43.998  56.463  1.00  0.00     0.009 A 
ENDBRANCH   1  21
TORSDOF 5
ENDMDL
MODEL 9
REMARK VINA RESULT:      -8.2     13.751     14.349
REMARK  5 active torsions:
REMARK  status: ('A' for Active; 'I' for Inactive)
REMARK    1  A    between atoms: C_7  and  C_8 
REMARK    2  A    between atoms: C_11  and  N_12 
REMARK       I    between atoms: N_12  and  C_13 
REMARK    3  A    between atoms: C_13  and  C_14 
REMARK    4  A    between atoms: C_16  and  O_17 
REMARK    5  A    between atoms: C_20  and  O_21 
ROOT
HETATM    1  C   UNL     1      35.884  52.118  43.750  1.00  0.00     0.017 A 
HETATM    2  C   UNL     1      36.197  51.384  42.599  1.00  0.00     0.018 A 
HETATM    3  C   UNL     1      35.203  50.699  41.888  1.00  0.00     0.030 A 
HETATM    4  C   UNL     1      33.875  50.736  42.312  1.00  0.00     0.035 A 
HETATM    5  C   UNL     1      33.563  51.429  43.487  1.00  0.00     0.030 A 
HETATM    6  C   UNL     1      34.556  52.115  44.196  1.00  0.00     0.018 A 
ENDROOT
BRANCH   4   7
HETATM    7  N   UNL     1      32.803  50.152  41.607  1.00  0.00    -0.323 N 
HETATM    8  C   UNL     1      32.701  48.839  41.183  1.00  0.00     0.256 C 
HETATM    9  O   UNL     1      33.477  47.920  41.408  1.00  0.00    -0.267 OA
HETATM   10  H   UNL     1      32.106  50.798  41.259  1.00  0.00     0.169 HD
BRANCH   8  11
HETATM   11  C   UNL     1      31.538  48.577  40.299  1.00  0.00     0.037 A 
HETATM   12  C   UNL     1      31.089  47.258  40.179  1.00  0.00     0.054 A 
HETATM   13  C   UNL     1      30.043  46.951  39.311  1.00  0.00     0.071 A 
HETATM   14  C   UNL     1      29.434  47.978  38.588  1.00  0.00     0.073 A 
HETATM   15  C   UNL     1      29.860  49.306  38.725  1.00  0.00     0.071 A 
HETATM   16  C   UNL     1      30.917  49.609  39.582  1.00  0.00     0.054 A 
BRANCH  13  17
HETATM   17  O   UNL     1      29.718  45.624  39.256  1.00  0.00    -0.356 OA
HETATM   18  C   UNL     1      28.421  45.258  39.708  1.00  0.00     0.210 C 
ENDBRANCH  13  17
BRANCH  15  19
HETATM   19  O   UNL     1      29.166  50.204  37.960  1.00  0.00    -0.356 OA
HETATM   20  C   UNL     1      29.560  51.569  38.039  1.00  0.00     0.210 C 
ENDBRANCH  15  19
ENDBRANCH   8  11
ENDBRANCH   4   7
BRANCH   1  21
HETATM   21  C   UNL     1      36.881  52.916  44.461  1.00  0.00     0.180 A 
HETATM   22  N   UNL     1      37.380  54.096  44.136  1.00  0.00    -0.221 NA
HETATM   23  C   UNL     1      38.332  54.322  45.097  1.00  0.00     0.093 A 
HETATM   24  C   UNL     1      38.358  53.267  45.993  1.00  0.00     0.107 A 
HETATM   25  C   UNL     1      39.225  55.384  45.278  1.00  0.00     0.035 A 
HETATM   26  C   UNL     1      39.212  53.174  47.085  1.00  0.00     0.046 A 
HETATM   27  O   UNL     1      37.423  52.358  45.594  1.00  0.00    -0.289 OA
HETATM   28  C   UNL     1      40.101  54.247  47.269  1.00  0.00    -0.059 A 
HETATM   29  C   UNL     1      41.093  54.211  48.398  1.00  0.00     0.048 C 
HETATM   30  C   UNL     1      40.110  55.327  46.368  1.00  0.00     0.009 A 
ENDBRANCH   1  21
TORSDOF 5
ENDMDL
MODEL 10
REMARK VINA RESULT:      -8.1      3.557      4.588
REMARK  5 active torsions:
REMARK  status: ('A' for Active; 'I' for Inactive)
REMARK    1  A    between atoms: C_7  and  C_8 
REMARK    2  A    between atoms: C_11  and  N_12 
REMARK       I    between atoms: N_12  and  C_13 
REMARK    3  A    between atoms: C_13  and  C_14 
REMARK    4  A    between atoms: C_16  and  O_17 
REMARK    5  A    between atoms: C_20  and  O_21 
ROOT
HETATM    1  C   UNL     1      26.854  44.880  52.302  1.00  0.00     0.017 A 
HETATM    2  C   UNL     1      25.495  45.211  52.347  1.00  0.00     0.018 A 
HETATM    3  C   UNL     1      24.690  45.115  51.203  1.00  0.00     0.030 A 
HETATM    4  C   UNL     1      25.230  44.685  49.991  1.00  0.00     0.035 A 
HETATM    5  C   UNL     1      26.598  44.398  49.928  1.00  0.00     0.030 A 
HETATM    6  C   UNL     1      27.400  44.491  51.072  1.00  0.00     0.018 A 
ENDROOT
BRANCH   4   7
HETATM    7  N   UNL     1      24.474  44.475  48.819  1.00  0.00    -0.323 N 
HETATM    8  C   UNL     1      23.726  43.357  48.499  1.00  0.00     0.256 C 
HETATM    9  O   UNL     1      23.510  42.378  49.201  1.00  0.00    -0.267 OA
HETATM   10  H   UNL     1      24.612  45.157  48.085  1.00  0.00     0.169 HD
BRANCH   8  11
HETATM   11  C   UNL     1      23.201  43.357  47.111  1.00  0.00     0.037 A 
HETATM   12  C   UNL     1      22.823  44.581  46.552  1.00  0.00     0.054 A 
HETATM   13  C   UNL     1      22.264  44.626  45.277  1.00  0.00     0.071 A 
HETATM   14  C   UNL     1      22.112  43.440  44.557  1.00  0.00     0.073 A 
HETATM   15  C   UNL     1      22.515  42.212  45.100  1.00  0.00     0.071 A 
HETATM   16  C   UNL     1      23.060  42.168  46.382  1.00  0.00     0.054 A 
BRANCH  13  17
HETATM   17  O   UNL     1      21.904  45.877  44.855  1.00  0.00    -0.356 OA
HETATM   18  C   UNL     1      20.612  46.016  44.278  1.00  0.00     0.210 C 
ENDBRANCH  13  17
BRANCH  15  19
HETATM   19  O   UNL     1      22.313  41.137  44.277  1.00  0.00    -0.356 OA
HETATM   20  C   UNL     1      23.080  39.967  44.534  1.00  0.00     0.210 C 
ENDBRANCH  15  19
ENDBRANCH   8  11
ENDBRANCH   4   7
BRANCH   1  21
HETATM   21  C   UNL     1      27.698  44.882  53.495  1.00  0.00     0.180 A 
HETATM   22  N   UNL     1      27.736  45.765  54.478  1.00  0.00    -0.221 NA
HETATM   23  C   UNL     1      28.764  45.324  55.271  1.00  0.00     0.093 A 
HETATM   24  C   UNL     1      29.303  44.164  54.744  1.00  0.00     0.107 A 
HETATM   25  C   UNL     1      29.315  45.852  56.444  1.00  0.00     0.035 A 
HETATM   26  C   UNL     1      30.364  43.458  55.297  1.00  0.00     0.046 A 
HETATM   27  O   UNL     1      28.619  43.868  53.602  1.00  0.00    -0.289 OA
HETATM   28  C   UNL     1      30.909  43.986  56.480  1.00  0.00    -0.059 A 
HETATM   29  C   UNL     1      32.090  43.315  57.125  1.00  0.00     0.048 C 
HETATM   30  C   UNL     1      30.395  45.173  57.034  1.00  0.00     0.009 A 
ENDBRANCH   1  21
TORSDOF 5
ENDMDL
