MODEL 1
REMARK VINA RESULT:     -10.8      0.000      0.000
REMARK  4 active torsions:
REMARK  status: ('A' for Active; 'I' for Inactive)
REMARK    1  A    between atoms: C_3  and  C_4 
REMARK    2  A    between atoms: C_4  and  N_5 
REMARK       I    between atoms: N_5  and  C_6 
REMARK       I    between atoms: C_6  and  N_7 
REMARK    3  A    between atoms: N_7  and  C_8 
REMARK    4  A    between atoms: C_16  and  C_17 
ROOT
HETATM    1  C   UNL     1      23.279  44.762  48.987  1.00  0.00     0.049 C 
HETATM    2  C   UNL     1      24.235  45.010  50.125  1.00  0.00    -0.054 A 
HETATM    3  C   UNL     1      24.736  46.294  50.427  1.00  0.00    -0.034 A 
HETATM    4  C   UNL     1      25.551  46.462  51.564  1.00  0.00     0.023 A 
HETATM    5  C   UNL     1      25.939  45.366  52.343  1.00  0.00    -0.004 A 
HETATM    6  C   UNL     1      25.432  44.100  52.041  1.00  0.00     0.014 A 
HETATM    7  C   UNL     1      24.577  43.927  50.952  1.00  0.00     0.008 A 
ENDROOT
BRANCH   3   8
HETATM    8  C   UNL     1      24.454  47.492  49.552  1.00  0.00     0.163 C 
BRANCH   8   9
HETATM    9  N   UNL     1      23.207  48.134  49.886  1.00  0.00    -0.339 N 
HETATM   10  C   UNL     1      22.295  48.357  48.886  1.00  0.00     0.316 C 
HETATM   11  N   UNL     1      21.255  49.139  49.315  1.00  0.00    -0.339 N 
HETATM   12  O   UNL     1      22.405  47.917  47.749  1.00  0.00    -0.247 OA
HETATM   13  H   UNL     1      21.093  49.134  50.312  1.00  0.00     0.164 HD
HETATM   14  H   UNL     1      23.237  48.828  50.617  1.00  0.00     0.164 HD
BRANCH  11  15
HETATM   15  C   UNL     1      20.105  49.394  48.452  1.00  0.00     0.086 C 
HETATM   16  C   UNL     1      18.796  49.340  49.254  1.00  0.00     0.025 C 
HETATM   17  C   UNL     1      18.620  50.551  50.170  1.00  0.00     0.002 C 
HETATM   18  C   UNL     1      18.753  51.862  49.402  1.00  0.00     0.000 C 
HETATM   19  C   UNL     1      20.068  51.938  48.634  1.00  0.00     0.002 C 
HETATM   20  C   UNL     1      20.257  50.731  47.718  1.00  0.00     0.025 C 
ENDBRANCH  11  15
ENDBRANCH   8   9
ENDBRANCH   3   8
BRANCH   5  21
HETATM   21  C   UNL     1      26.824  45.511  53.541  1.00  0.00     0.098 C 
HETATM   22  N   UNL     1      26.561  46.514  54.327  1.00  0.00    -0.169 NA
HETATM   23  N   UNL     1      27.361  46.759  55.409  1.00  0.00    -0.238 N 
HETATM   24  C   UNL     1      26.982  47.870  56.257  1.00  0.00     0.183 C 
HETATM   25  C   UNL     1      28.535  46.071  55.686  1.00  0.00     0.274 C 
HETATM   26  O   UNL     1      29.301  46.362  56.603  1.00  0.00    -0.266 OA
HETATM   27  C   UNL     1      28.821  44.903  54.836  1.00  0.00     0.046 A 
HETATM   28  C   UNL     1      27.943  44.569  53.809  1.00  0.00     0.011 A 
HETATM   29  C   UNL     1      29.937  44.100  55.113  1.00  0.00     0.018 A 
HETATM   30  C   UNL     1      28.138  43.365  53.118  1.00  0.00     0.015 A 
HETATM   31  C   UNL     1      29.250  42.562  53.392  1.00  0.00     0.001 A 
HETATM   32  C   UNL     1      30.159  42.937  54.379  1.00  0.00     0.001 A 
ENDBRANCH   5  21
TORSDOF 4
ENDMDL
MODEL 2
REMARK VINA RESULT:     -10.4      1.252      2.546
REMARK  4 active torsions:
REMARK  status: ('A' for Active; 'I' for Inactive)
REMARK    1  A    between atoms: C_3  and  C_4 
REMARK    2  A    between atoms: C_4  and  N_5 
REMARK       I    between atoms: N_5  and  C_6 
REMARK       I    between atoms: C_6  and  N_7 
REMARK    3  A    between atoms: N_7  and  C_8 
REMARK    4  A    between atoms: C_16  and  C_17 
ROOT
HETATM    1  C   UNL     1      22.344  44.664  48.883  1.00  0.00     0.049 C 
HETATM    2  C   UNL     1      23.541  44.787  49.790  1.00  0.00    -0.054 A 
HETATM    3  C   UNL     1      24.257  45.993  49.940  1.00  0.00    -0.034 A 
HETATM    4  C   UNL     1      25.306  46.055  50.878  1.00  0.00     0.023 A 
HETATM    5  C   UNL     1      25.703  44.920  51.595  1.00  0.00    -0.004 A 
HETATM    6  C   UNL     1      24.983  43.732  51.446  1.00  0.00     0.014 A 
HETATM    7  C   UNL     1      23.904  43.672  50.563  1.00  0.00     0.008 A 
ENDROOT
BRANCH   3   8
HETATM    8  C   UNL     1      23.956  47.214  49.105  1.00  0.00     0.163 C 
BRANCH   8   9
HETATM    9  N   UNL     1      22.755  47.888  49.530  1.00  0.00    -0.339 N 
HETATM   10  C   UNL     1      21.842  48.264  48.579  1.00  0.00     0.316 C 
HETATM   11  N   UNL     1      20.857  49.057  49.108  1.00  0.00    -0.339 N 
HETATM   12  O   UNL     1      21.906  47.938  47.400  1.00  0.00    -0.247 OA
HETATM   13  H   UNL     1      20.711  48.958  50.102  1.00  0.00     0.164 HD
HETATM   14  H   UNL     1      22.838  48.501  50.327  1.00  0.00     0.164 HD
BRANCH  11  15
HETATM   15  C   UNL     1      19.710  49.463  48.301  1.00  0.00     0.086 C 
HETATM   16  C   UNL     1      18.428  49.495  49.148  1.00  0.00     0.025 C 
HETATM   17  C   UNL     1      18.401  50.670  50.125  1.00  0.00     0.002 C 
HETATM   18  C   UNL     1      18.637  51.999  49.415  1.00  0.00     0.000 C 
HETATM   19  C   UNL     1      19.927  51.987  48.603  1.00  0.00     0.002 C 
HETATM   20  C   UNL     1      19.967  50.814  47.625  1.00  0.00     0.025 C 
ENDBRANCH  11  15
ENDBRANCH   8   9
ENDBRANCH   3   8
BRANCH   5  21
HETATM   21  C   UNL     1      26.830  44.951  52.579  1.00  0.00     0.098 C 
HETATM   22  N   UNL     1      27.738  44.030  52.436  1.00  0.00    -0.169 NA
HETATM   23  N   UNL     1      28.768  43.946  53.331  1.00  0.00    -0.238 N 
HETATM   24  C   UNL     1      29.759  42.918  53.084  1.00  0.00     0.183 C 
HETATM   25  C   UNL     1      28.871  44.715  54.482  1.00  0.00     0.274 C 
HETATM   26  O   UNL     1      29.745  44.565  55.334  1.00  0.00    -0.266 OA
HETATM   27  C   UNL     1      27.880  45.794  54.633  1.00  0.00     0.046 A 
HETATM   28  C   UNL     1      26.901  45.970  53.659  1.00  0.00     0.011 A 
HETATM   29  C   UNL     1      27.974  46.675  55.720  1.00  0.00     0.018 A 
HETATM   30  C   UNL     1      26.072  47.098  53.730  1.00  0.00     0.015 A 
HETATM   31  C   UNL     1      26.163  47.978  54.813  1.00  0.00     0.001 A 
HETATM   32  C   UNL     1      27.104  47.759  55.817  1.00  0.00     0.001 A 
ENDBRANCH   5  21
TORSDOF 4
ENDMDL
MODEL 3
REMARK VINA RESULT:     -10.0      2.348      9.265
REMARK  4 active torsions:
REMARK  status: ('A' for Active; 'I' for Inactive)
REMARK    1  A    between atoms: C_3  and  C_4 
REMARK    2  A    between atoms: C_4  and  N_5 
REMARK       I    between atoms: N_5  and  C_6 
REMARK       I    between atoms: C_6  and  N_7 
REMARK    3  A    between atoms: N_7  and  C_8 
REMARK    4  A    between atoms: C_16  and  C_17 
ROOT
HETATM    1  C   UNL     1      27.086  42.233  52.272  1.00  0.00     0.049 C 
HETATM    2  C   UNL     1      26.419  43.447  51.679  1.00  0.00    -0.054 A 
HETATM    3  C   UNL     1      25.721  44.387  52.465  1.00  0.00    -0.034 A 
HETATM    4  C   UNL     1      25.204  45.546  51.852  1.00  0.00     0.023 A 
HETATM    5  C   UNL     1      25.298  45.734  50.468  1.00  0.00    -0.004 A 
HETATM    6  C   UNL     1      25.999  44.802  49.698  1.00  0.00     0.014 A 
HETATM    7  C   UNL     1      26.565  43.678  50.301  1.00  0.00     0.008 A 
ENDROOT
BRANCH   3   8
HETATM    8  C   UNL     1      25.479  44.178  53.941  1.00  0.00     0.163 C 
BRANCH   8   9
HETATM    9  N   UNL     1      26.699  43.929  54.667  1.00  0.00    -0.339 N 
HETATM   10  C   UNL     1      27.602  44.952  54.804  1.00  0.00     0.316 C 
HETATM   11  N   UNL     1      28.783  44.515  55.343  1.00  0.00    -0.339 N 
HETATM   12  O   UNL     1      27.379  46.110  54.476  1.00  0.00    -0.247 OA
HETATM   13  H   UNL     1      28.723  43.664  55.885  1.00  0.00     0.164 HD
HETATM   14  H   UNL     1      27.091  43.003  54.587  1.00  0.00     0.164 HD
BRANCH  11  15
HETATM   15  C   UNL     1      29.839  45.460  55.698  1.00  0.00     0.086 C 
HETATM   16  C   UNL     1      29.509  46.179  57.015  1.00  0.00     0.025 C 
HETATM   17  C   UNL     1      29.654  45.265  58.232  1.00  0.00     0.002 C 
HETATM   18  C   UNL     1      31.028  44.605  58.282  1.00  0.00     0.000 C 
HETATM   19  C   UNL     1      31.344  43.858  56.991  1.00  0.00     0.002 C 
HETATM   20  C   UNL     1      31.200  44.760  55.767  1.00  0.00     0.025 C 
ENDBRANCH  11  15
ENDBRANCH   8   9
ENDBRANCH   3   8
BRANCH   5  21
HETATM   21  C   UNL     1      24.737  46.942  49.786  1.00  0.00     0.098 C 
HETATM   22  N   UNL     1      23.453  46.936  49.579  1.00  0.00    -0.169 NA
HETATM   23  N   UNL     1      22.867  47.972  48.904  1.00  0.00    -0.238 N 
HETATM   24  C   UNL     1      21.428  47.911  48.747  1.00  0.00     0.183 C 
HETATM   25  C   UNL     1      23.566  49.009  48.303  1.00  0.00     0.274 C 
HETATM   26  O   UNL     1      23.043  49.882  47.613  1.00  0.00    -0.266 OA
HETATM   27  C   UNL     1      25.014  49.057  48.569  1.00  0.00     0.046 A 
HETATM   28  C   UNL     1      25.601  48.076  49.364  1.00  0.00     0.011 A 
HETATM   29  C   UNL     1      25.774  50.128  48.077  1.00  0.00     0.018 A 
HETATM   30  C   UNL     1      26.941  48.227  49.744  1.00  0.00     0.015 A 
HETATM   31  C   UNL     1      27.702  49.293  49.254  1.00  0.00     0.001 A 
HETATM   32  C   UNL     1      27.123  50.236  48.408  1.00  0.00     0.001 A 
ENDBRANCH   5  21
TORSDOF 4
ENDMDL
MODEL 4
REMARK VINA RESULT:      -9.6      3.575      5.035
REMARK  4 active torsions:
REMARK  status: ('A' for Active; 'I' for Inactive)
REMARK    1  A    between atoms: C_3  and  C_4 
REMARK    2  A    between atoms: C_4  and  N_5 
REMARK       I    between atoms: N_5  and  C_6 
REMARK       I    between atoms: C_6  and  N_7 
REMARK    3  A    between atoms: N_7  and  C_8 
REMARK    4  A    between atoms: C_16  and  C_17 
ROOT
HETATM    1  C   UNL     1      28.333  39.131  49.968  1.00  0.00     0.049 C 
HETATM    2  C   UNL     1      28.276  40.395  50.786  1.00  0.00    -0.054 A 
HETATM    3  C   UNL     1      27.692  41.585  50.301  1.00  0.00    -0.034 A 
HETATM    4  C   UNL     1      27.591  42.699  51.159  1.00  0.00     0.023 A 
HETATM    5  C   UNL     1      28.137  42.669  52.447  1.00  0.00    -0.004 A 
HETATM    6  C   UNL     1      28.706  41.485  52.922  1.00  0.00     0.014 A 
HETATM    7  C   UNL     1      28.761  40.356  52.104  1.00  0.00     0.008 A 
ENDROOT
BRANCH   3   8
HETATM    8  C   UNL     1      27.200  41.716  48.880  1.00  0.00     0.163 C 
BRANCH   8   9
HETATM    9  N   UNL     1      26.262  42.800  48.722  1.00  0.00    -0.339 N 
HETATM   10  C   UNL     1      24.934  42.501  48.564  1.00  0.00     0.316 C 
HETATM   11  N   UNL     1      24.201  43.611  48.234  1.00  0.00    -0.339 N 
HETATM   12  O   UNL     1      24.464  41.377  48.692  1.00  0.00    -0.247 OA
HETATM   13  H   UNL     1      24.610  44.494  48.504  1.00  0.00     0.164 HD
HETATM   14  H   UNL     1      26.593  43.615  48.226  1.00  0.00     0.164 HD
BRANCH  11  15
HETATM   15  C   UNL     1      22.745  43.547  48.146  1.00  0.00     0.086 C 
HETATM   16  C   UNL     1      22.100  44.744  48.862  1.00  0.00     0.025 C 
HETATM   17  C   UNL     1      22.281  46.053  48.093  1.00  0.00     0.002 C 
HETATM   18  C   UNL     1      21.793  45.932  46.652  1.00  0.00     0.000 C 
HETATM   19  C   UNL     1      22.459  44.768  45.925  1.00  0.00     0.002 C 
HETATM   20  C   UNL     1      22.288  43.455  46.687  1.00  0.00     0.025 C 
ENDBRANCH  11  15
ENDBRANCH   8   9
ENDBRANCH   3   8
BRANCH   5  21
HETATM   21  C   UNL     1      28.067  43.845  53.371  1.00  0.00     0.098 C 
HETATM   22  N   UNL     1      27.099  44.686  53.153  1.00  0.00    -0.169 NA
HETATM   23  N   UNL     1      27.000  45.821  53.908  1.00  0.00    -0.238 N 
HETATM   24  C   UNL     1      25.873  46.689  53.630  1.00  0.00     0.183 C 
HETATM   25  C   UNL     1      27.942  46.222  54.846  1.00  0.00     0.274 C 
HETATM   26  O   UNL     1      27.899  47.293  55.449  1.00  0.00    -0.266 OA
HETATM   27  C   UNL     1      29.017  45.259  55.140  1.00  0.00     0.046 A 
HETATM   28  C   UNL     1      29.053  44.042  54.466  1.00  0.00     0.011 A 
HETATM   29  C   UNL     1      29.952  45.550  56.144  1.00  0.00     0.018 A 
HETATM   30  C   UNL     1      29.980  43.072  54.873  1.00  0.00     0.015 A 
HETATM   31  C   UNL     1      30.913  43.358  55.874  1.00  0.00     0.001 A 
HETATM   32  C   UNL     1      30.911  44.603  56.499  1.00  0.00     0.001 A 
ENDBRANCH   5  21
TORSDOF 4
ENDMDL
MODEL 5
REMARK VINA RESULT:      -9.6      3.922      7.387
REMARK  4 active torsions:
REMARK  status: ('A' for Active; 'I' for Inactive)
REMARK    1  A    between atoms: C_3  and  C_4 
REMARK    2  A    between atoms: C_4  and  N_5 
REMARK       I    between atoms: N_5  and  C_6 
REMARK       I    between atoms: C_6  and  N_7 
REMARK    3  A    between atoms: N_7  and  C_8 
REMARK    4  A    between atoms: C_16  and  C_17 
ROOT
HETATM    1  C   UNL     1      23.898  45.606  49.239  1.00  0.00     0.049 C 
HETATM    2  C   UNL     1      24.698  45.563  50.515  1.00  0.00    -0.054 A 
HETATM    3  C   UNL     1      24.886  44.375  51.251  1.00  0.00    -0.034 A 
HETATM    4  C   UNL     1      25.725  44.395  52.383  1.00  0.00     0.023 A 
HETATM    5  C   UNL     1      26.300  45.589  52.835  1.00  0.00    -0.004 A 
HETATM    6  C   UNL     1      26.114  46.759  52.096  1.00  0.00     0.014 A 
HETATM    7  C   UNL     1      25.333  46.742  50.940  1.00  0.00     0.008 A 
ENDROOT
BRANCH   3   8
HETATM    8  C   UNL     1      24.193  43.085  50.885  1.00  0.00     0.163 C 
BRANCH   8   9
HETATM    9  N   UNL     1      25.089  41.955  50.903  1.00  0.00    -0.339 N 
HETATM   10  C   UNL     1      25.623  41.522  49.717  1.00  0.00     0.316 C 
HETATM   11  N   UNL     1      26.293  40.336  49.867  1.00  0.00    -0.339 N 
HETATM   12  O   UNL     1      25.507  42.120  48.655  1.00  0.00    -0.247 OA
HETATM   13  H   UNL     1      26.618  40.139  50.802  1.00  0.00     0.164 HD
HETATM   14  H   UNL     1      24.900  41.239  51.588  1.00  0.00     0.164 HD
BRANCH  11  15
HETATM   15  C   UNL     1      27.050  39.760  48.759  1.00  0.00     0.086 C 
HETATM   16  C   UNL     1      28.560  39.827  49.036  1.00  0.00     0.025 C 
HETATM   17  C   UNL     1      29.004  38.833  50.109  1.00  0.00     0.002 C 
HETATM   18  C   UNL     1      28.557  37.412  49.780  1.00  0.00     0.000 C 
HETATM   19  C   UNL     1      27.052  37.332  49.543  1.00  0.00     0.002 C 
HETATM   20  C   UNL     1      26.597  38.324  48.474  1.00  0.00     0.025 C 
ENDBRANCH  11  15
ENDBRANCH   8   9
ENDBRANCH   3   8
BRANCH   5  21
HETATM   21  C   UNL     1      27.174  45.645  54.048  1.00  0.00     0.098 C 
HETATM   22  N   UNL     1      26.880  46.562  54.923  1.00  0.00    -0.169 NA
HETATM   23  N   UNL     1      27.667  46.725  56.029  1.00  0.00    -0.238 N 
HETATM   24  C   UNL     1      27.253  47.743  56.974  1.00  0.00     0.183 C 
HETATM   25  C   UNL     1      28.857  46.046  56.251  1.00  0.00     0.274 C 
HETATM   26  O   UNL     1      29.610  46.269  57.197  1.00  0.00    -0.266 OA
HETATM   27  C   UNL     1      29.178  44.970  55.298  1.00  0.00     0.046 A 
HETATM   28  C   UNL     1      28.315  44.710  54.237  1.00  0.00     0.011 A 
HETATM   29  C   UNL     1      30.314  44.174  55.508  1.00  0.00     0.018 A 
HETATM   30  C   UNL     1      28.546  43.581  53.439  1.00  0.00     0.015 A 
HETATM   31  C   UNL     1      29.678  42.786  53.645  1.00  0.00     0.001 A 
HETATM   32  C   UNL     1      30.571  43.091  54.670  1.00  0.00     0.001 A 
ENDBRANCH   5  21
TORSDOF 4
ENDMDL
MODEL 6
REMARK VINA RESULT:      -9.6      2.397      9.904
REMARK  4 active torsions:
REMARK  status: ('A' for Active; 'I' for Inactive)
REMARK    1  A    between atoms: C_3  and  C_4 
REMARK    2  A    between atoms: C_4  and  N_5 
REMARK       I    between atoms: N_5  and  C_6 
REMARK       I    between atoms: C_6  and  N_7 
REMARK    3  A    between atoms: N_7  and  C_8 
REMARK    4  A    between atoms: C_16  and  C_17 
ROOT
HETATM    1  C   UNL     1      26.362  49.851  48.419  1.00  0.00     0.049 C 
HETATM    2  C   UNL     1      24.908  49.465  48.493  1.00  0.00    -0.054 A 
HETATM    3  C   UNL     1      24.477  48.232  49.027  1.00  0.00    -0.034 A 
HETATM    4  C   UNL     1      23.096  47.982  49.149  1.00  0.00     0.023 A 
HETATM    5  C   UNL     1      22.151  48.897  48.670  1.00  0.00    -0.004 A 
HETATM    6  C   UNL     1      22.586  50.118  48.150  1.00  0.00     0.014 A 
HETATM    7  C   UNL     1      23.950  50.404  48.076  1.00  0.00     0.008 A 
ENDROOT
BRANCH   3   8
HETATM    8  C   UNL     1      25.449  47.155  49.445  1.00  0.00     0.163 C 
BRANCH   8   9
HETATM    9  N   UNL     1      26.099  47.457  50.696  1.00  0.00    -0.339 N 
HETATM   10  C   UNL     1      25.649  46.840  51.835  1.00  0.00     0.316 C 
HETATM   11  N   UNL     1      26.228  47.367  52.959  1.00  0.00    -0.339 N 
HETATM   12  O   UNL     1      24.823  45.935  51.843  1.00  0.00    -0.247 OA
HETATM   13  H   UNL     1      27.115  47.827  52.813  1.00  0.00     0.164 HD
HETATM   14  H   UNL     1      26.442  48.399  50.812  1.00  0.00     0.164 HD
BRANCH  11  15
HETATM   15  C   UNL     1      25.992  46.772  54.272  1.00  0.00     0.086 C 
HETATM   16  C   UNL     1      26.257  45.259  54.242  1.00  0.00     0.025 C 
HETATM   17  C   UNL     1      27.747  44.928  54.147  1.00  0.00     0.002 C 
HETATM   18  C   UNL     1      28.549  45.617  55.246  1.00  0.00     0.000 C 
HETATM   19  C   UNL     1      28.319  47.124  55.255  1.00  0.00     0.002 C 
HETATM   20  C   UNL     1      26.834  47.467  55.347  1.00  0.00     0.025 C 
ENDBRANCH  11  15
ENDBRANCH   8   9
ENDBRANCH   3   8
BRANCH   5  21
HETATM   21  C   UNL     1      20.679  48.647  48.763  1.00  0.00     0.098 C 
HETATM   22  N   UNL     1      20.287  47.435  48.499  1.00  0.00    -0.169 NA
HETATM   23  N   UNL     1      18.953  47.136  48.497  1.00  0.00    -0.238 N 
HETATM   24  C   UNL     1      18.599  45.756  48.231  1.00  0.00     0.183 C 
HETATM   25  C   UNL     1      17.940  48.073  48.649  1.00  0.00     0.274 C 
HETATM   26  O   UNL     1      16.743  47.814  48.546  1.00  0.00    -0.266 OA
HETATM   27  C   UNL     1      18.365  49.439  48.997  1.00  0.00     0.046 A 
HETATM   28  C   UNL     1      19.722  49.725  49.128  1.00  0.00     0.011 A 
HETATM   29  C   UNL     1      17.399  50.420  49.261  1.00  0.00     0.018 A 
HETATM   30  C   UNL     1      20.103  50.981  49.620  1.00  0.00     0.015 A 
HETATM   31  C   UNL     1      19.141  51.961  49.884  1.00  0.00     0.001 A 
HETATM   32  C   UNL     1      17.789  51.687  49.690  1.00  0.00     0.001 A 
ENDBRANCH   5  21
TORSDOF 4
ENDMDL
MODEL 7
REMARK VINA RESULT:      -9.6      1.853      3.277
REMARK  4 active torsions:
REMARK  status: ('A' for Active; 'I' for Inactive)
REMARK    1  A    between atoms: C_3  and  C_4 
REMARK    2  A    between atoms: C_4  and  N_5 
REMARK       I    between atoms: N_5  and  C_6 
REMARK       I    between atoms: C_6  and  N_7 
REMARK    3  A    between atoms: N_7  and  C_8 
REMARK    4  A    between atoms: C_16  and  C_17 
ROOT
HETATM    1  C   UNL     1      24.919  41.840  48.856  1.00  0.00     0.049 C 
HETATM    2  C   UNL     1      25.603  42.567  49.984  1.00  0.00    -0.054 A 
HETATM    3  C   UNL     1      24.959  43.568  50.741  1.00  0.00    -0.034 A 
HETATM    4  C   UNL     1      25.633  44.136  51.841  1.00  0.00     0.023 A 
HETATM    5  C   UNL     1      26.956  43.787  52.136  1.00  0.00    -0.004 A 
HETATM    6  C   UNL     1      27.583  42.790  51.386  1.00  0.00     0.014 A 
HETATM    7  C   UNL     1      26.907  42.177  50.330  1.00  0.00     0.008 A 
ENDROOT
BRANCH   3   8
HETATM    8  C   UNL     1      23.580  44.076  50.394  1.00  0.00     0.163 C 
BRANCH   8   9
HETATM    9  N   UNL     1      23.522  45.515  50.341  1.00  0.00    -0.339 N 
HETATM   10  C   UNL     1      23.108  46.113  49.179  1.00  0.00     0.316 C 
HETATM   11  N   UNL     1      23.289  47.471  49.217  1.00  0.00    -0.339 N 
HETATM   12  O   UNL     1      22.644  45.505  48.223  1.00  0.00    -0.247 OA
HETATM   13  H   UNL     1      23.331  47.876  50.141  1.00  0.00     0.164 HD
HETATM   14  H   UNL     1      24.221  46.015  50.870  1.00  0.00     0.164 HD
BRANCH  11  15
HETATM   15  C   UNL     1      22.796  48.322  48.137  1.00  0.00     0.086 C 
HETATM   16  C   UNL     1      21.294  48.600  48.301  1.00  0.00     0.025 C 
HETATM   17  C   UNL     1      20.999  49.562  49.452  1.00  0.00     0.002 C 
HETATM   18  C   UNL     1      21.799  50.855  49.324  1.00  0.00     0.000 C 
HETATM   19  C   UNL     1      23.294  50.586  49.199  1.00  0.00     0.002 C 
HETATM   20  C   UNL     1      23.601  49.623  48.054  1.00  0.00     0.025 C 
ENDBRANCH  11  15
ENDBRANCH   8   9
ENDBRANCH   3   8
BRANCH   5  21
HETATM   21  C   UNL     1      27.704  44.392  53.282  1.00  0.00     0.098 C 
HETATM   22  N   UNL     1      28.732  43.721  53.712  1.00  0.00    -0.169 NA
HETATM   23  N   UNL     1      29.433  44.170  54.798  1.00  0.00    -0.238 N 
HETATM   24  C   UNL     1      30.586  43.386  55.193  1.00  0.00     0.183 C 
HETATM   25  C   UNL     1      29.061  45.259  55.574  1.00  0.00     0.274 C 
HETATM   26  O   UNL     1      29.639  45.597  56.605  1.00  0.00    -0.266 OA
HETATM   27  C   UNL     1      27.931  46.059  55.072  1.00  0.00     0.046 A 
HETATM   28  C   UNL     1      27.290  45.682  53.895  1.00  0.00     0.011 A 
HETATM   29  C   UNL     1      27.557  47.230  55.748  1.00  0.00     0.018 A 
HETATM   30  C   UNL     1      26.330  46.542  53.344  1.00  0.00     0.015 A 
HETATM   31  C   UNL     1      25.954  47.710  54.015  1.00  0.00     0.001 A 
HETATM   32  C   UNL     1      26.556  48.047  55.225  1.00  0.00     0.001 A 
ENDBRANCH   5  21
TORSDOF 4
ENDMDL
MODEL 8
REMARK VINA RESULT:      -9.5      2.031      3.305
REMARK  4 active torsions:
REMARK  status: ('A' for Active; 'I' for Inactive)
REMARK    1  A    between atoms: C_3  and  C_4 
REMARK    2  A    between atoms: C_4  and  N_5 
REMARK       I    between atoms: N_5  and  C_6 
REMARK       I    between atoms: C_6  and  N_7 
REMARK    3  A    between atoms: N_7  and  C_8 
REMARK    4  A    between atoms: C_16  and  C_17 
ROOT
HETATM    1  C   UNL     1      24.036  49.407  48.085  1.00  0.00     0.049 C 
HETATM    2  C   UNL     1      24.560  48.385  49.061  1.00  0.00    -0.054 A 
HETATM    3  C   UNL     1      23.848  47.211  49.385  1.00  0.00    -0.034 A 
HETATM    4  C   UNL     1      24.445  46.258  50.233  1.00  0.00     0.023 A 
HETATM    5  C   UNL     1      25.691  46.499  50.826  1.00  0.00    -0.004 A 
HETATM    6  C   UNL     1      26.392  47.660  50.494  1.00  0.00     0.014 A 
HETATM    7  C   UNL     1      25.838  48.586  49.610  1.00  0.00     0.008 A 
ENDROOT
BRANCH   3   8
HETATM    8  C   UNL     1      22.450  46.955  48.876  1.00  0.00     0.163 C 
BRANCH   8   9
HETATM    9  N   UNL     1      21.525  47.989  49.268  1.00  0.00    -0.339 N 
HETATM   10  C   UNL     1      20.550  48.368  48.381  1.00  0.00     0.316 C 
HETATM   11  N   UNL     1      19.878  49.481  48.814  1.00  0.00    -0.339 N 
HETATM   12  O   UNL     1      20.317  47.786  47.329  1.00  0.00    -0.247 OA
HETATM   13  H   UNL     1      19.906  49.643  49.810  1.00  0.00     0.164 HD
HETATM   14  H   UNL     1      21.888  48.719  49.862  1.00  0.00     0.164 HD
BRANCH  11  15
HETATM   15  C   UNL     1      18.713  49.980  48.088  1.00  0.00     0.086 C 
HETATM   16  C   UNL     1      17.500  50.108  49.022  1.00  0.00     0.025 C 
HETATM   17  C   UNL     1      17.633  51.277  49.998  1.00  0.00     0.002 C 
HETATM   18  C   UNL     1      17.922  52.587  49.272  1.00  0.00     0.000 C 
HETATM   19  C   UNL     1      19.148  52.477  48.373  1.00  0.00     0.002 C 
HETATM   20  C   UNL     1      19.028  51.310  47.395  1.00  0.00     0.025 C 
ENDBRANCH  11  15
ENDBRANCH   8   9
ENDBRANCH   3   8
BRANCH   5  21
HETATM   21  C   UNL     1      26.337  45.516  51.751  1.00  0.00     0.098 C 
HETATM   22  N   UNL     1      26.425  44.294  51.316  1.00  0.00    -0.169 NA
HETATM   23  N   UNL     1      26.942  43.319  52.123  1.00  0.00    -0.238 N 
HETATM   24  C   UNL     1      27.041  41.990  51.553  1.00  0.00     0.183 C 
HETATM   25  C   UNL     1      27.292  43.508  53.453  1.00  0.00     0.274 C 
HETATM   26  O   UNL     1      27.662  42.605  54.201  1.00  0.00    -0.266 OA
HETATM   27  C   UNL     1      27.247  44.895  53.947  1.00  0.00     0.046 A 
HETATM   28  C   UNL     1      26.842  45.916  53.091  1.00  0.00     0.011 A 
HETATM   29  C   UNL     1      27.677  45.181  55.250  1.00  0.00     0.018 A 
HETATM   30  C   UNL     1      26.962  47.245  53.522  1.00  0.00     0.015 A 
HETATM   31  C   UNL     1      27.391  47.533  54.821  1.00  0.00     0.001 A 
HETATM   32  C   UNL     1      27.734  46.502  55.692  1.00  0.00     0.001 A 
ENDBRANCH   5  21
TORSDOF 4
ENDMDL
MODEL 9
REMARK VINA RESULT:      -9.4      1.694      2.361
REMARK  4 active torsions:
REMARK  status: ('A' for Active; 'I' for Inactive)
REMARK    1  A    between atoms: C_3  and  C_4 
REMARK    2  A    between atoms: C_4  and  N_5 
REMARK       I    between atoms: N_5  and  C_6 
REMARK       I    between atoms: C_6  and  N_7 
REMARK    3  A    between atoms: N_7  and  C_8 
REMARK    4  A    between atoms: C_16  and  C_17 
ROOT
HETATM    1  C   UNL     1      24.203  41.273  48.378  1.00  0.00     0.049 C 
HETATM    2  C   UNL     1      24.772  42.151  49.462  1.00  0.00    -0.054 A 
HETATM    3  C   UNL     1      24.039  43.205  50.047  1.00  0.00    -0.034 A 
HETATM    4  C   UNL     1      24.604  43.921  51.121  1.00  0.00     0.023 A 
HETATM    5  C   UNL     1      25.910  43.660  51.554  1.00  0.00    -0.004 A 
HETATM    6  C   UNL     1      26.626  42.610  50.975  1.00  0.00     0.014 A 
HETATM    7  C   UNL     1      26.056  41.855  49.949  1.00  0.00     0.008 A 
ENDROOT
BRANCH   3   8
HETATM    8  C   UNL     1      22.677  43.613  49.539  1.00  0.00     0.163 C 
BRANCH   8   9
HETATM    9  N   UNL     1      22.417  45.018  49.734  1.00  0.00    -0.339 N 
HETATM   10  C   UNL     1      22.349  45.832  48.633  1.00  0.00     0.316 C 
HETATM   11  N   UNL     1      22.291  47.155  48.984  1.00  0.00    -0.339 N 
HETATM   12  O   UNL     1      22.350  45.423  47.478  1.00  0.00    -0.247 OA
HETATM   13  H   UNL     1      21.944  47.340  49.914  1.00  0.00     0.164 HD
HETATM   14  H   UNL     1      22.799  45.437  50.568  1.00  0.00     0.164 HD
BRANCH  11  15
HETATM   15  C   UNL     1      22.083  48.189  47.974  1.00  0.00     0.086 C 
HETATM   16  C   UNL     1      20.623  48.669  47.976  1.00  0.00     0.025 C 
HETATM   17  C   UNL     1      20.291  49.526  49.197  1.00  0.00     0.002 C 
HETATM   18  C   UNL     1      21.265  50.690  49.352  1.00  0.00     0.000 C 
HETATM   19  C   UNL     1      22.714  50.215  49.389  1.00  0.00     0.002 C 
HETATM   20  C   UNL     1      23.056  49.355  48.174  1.00  0.00     0.025 C 
ENDBRANCH  11  15
ENDBRANCH   8   9
ENDBRANCH   3   8
BRANCH   5  21
HETATM   21  C   UNL     1      26.545  44.422  52.675  1.00  0.00     0.098 C 
HETATM   22  N   UNL     1      26.017  45.578  52.952  1.00  0.00    -0.169 NA
HETATM   23  N   UNL     1      26.576  46.368  53.918  1.00  0.00    -0.238 N 
HETATM   24  C   UNL     1      25.909  47.624  54.195  1.00  0.00     0.183 C 
HETATM   25  C   UNL     1      27.765  46.080  54.574  1.00  0.00     0.274 C 
HETATM   26  O   UNL     1      28.315  46.841  55.368  1.00  0.00    -0.266 OA
HETATM   27  C   UNL     1      28.349  44.754  54.309  1.00  0.00     0.046 A 
HETATM   28  C   UNL     1      27.716  43.889  53.420  1.00  0.00     0.011 A 
HETATM   29  C   UNL     1      29.498  44.350  55.005  1.00  0.00     0.018 A 
HETATM   30  C   UNL     1      28.189  42.574  53.305  1.00  0.00     0.015 A 
HETATM   31  C   UNL     1      29.334  42.169  53.998  1.00  0.00     0.001 A 
HETATM   32  C   UNL     1      29.999  43.061  54.836  1.00  0.00     0.001 A 
ENDBRANCH   5  21
TORSDOF 4
ENDMDL
MODEL 10
REMARK VINA RESULT:      -9.3      2.458      9.487
REMARK  4 active torsions:
REMARK  status: ('A' for Active; 'I' for Inactive)
REMARK    1  A    between atoms: C_3  and  C_4 
REMARK    2  A    between atoms: C_4  and  N_5 
REMARK       I    between atoms: N_5  and  C_6 
REMARK       I    between atoms: C_6  and  N_7 
REMARK    3  A    between atoms: N_7  and  C_8 
REMARK    4  A    between atoms: C_16  and  C_17 
ROOT
HETATM    1  C   UNL     1      27.041  42.743  52.641  1.00  0.00     0.049 C 
HETATM    2  C   UNL     1      26.499  43.932  51.891  1.00  0.00    -0.054 A 
HETATM    3  C   UNL     1      25.813  44.984  52.533  1.00  0.00    -0.034 A 
HETATM    4  C   UNL     1      25.419  46.107  51.778  1.00  0.00     0.023 A 
HETATM    5  C   UNL     1      25.620  46.153  50.393  1.00  0.00    -0.004 A 
HETATM    6  C   UNL     1      26.306  45.110  49.767  1.00  0.00     0.014 A 
HETATM    7  C   UNL     1      26.753  44.018  50.512  1.00  0.00     0.008 A 
ENDROOT
BRANCH   3   8
HETATM    8  C   UNL     1      25.458  44.934  53.999  1.00  0.00     0.163 C 
BRANCH   8   9
HETATM    9  N   UNL     1      26.584  44.573  54.825  1.00  0.00    -0.339 N 
HETATM   10  C   UNL     1      27.627  45.456  54.936  1.00  0.00     0.316 C 
HETATM   11  N   UNL     1      28.695  44.898  55.588  1.00  0.00    -0.339 N 
HETATM   12  O   UNL     1      27.606  46.599  54.497  1.00  0.00    -0.247 OA
HETATM   13  H   UNL     1      28.473  44.121  56.194  1.00  0.00     0.164 HD
HETATM   14  H   UNL     1      26.830  43.595  54.850  1.00  0.00     0.164 HD
BRANCH  11  15
HETATM   15  C   UNL     1      29.864  45.702  55.932  1.00  0.00     0.086 C 
HETATM   16  C   UNL     1      29.773  46.209  57.379  1.00  0.00     0.025 C 
HETATM   17  C   UNL     1      29.998  45.097  58.404  1.00  0.00     0.002 C 
HETATM   18  C   UNL     1      31.305  44.353  58.152  1.00  0.00     0.000 C 
HETATM   19  C   UNL     1      31.384  43.814  56.727  1.00  0.00     0.002 C 
HETATM   20  C   UNL     1      31.158  44.916  55.694  1.00  0.00     0.025 C 
ENDBRANCH  11  15
ENDBRANCH   8   9
ENDBRANCH   3   8
BRANCH   5  21
HETATM   21  C   UNL     1      25.189  47.321  49.563  1.00  0.00     0.098 C 
HETATM   22  N   UNL     1      26.088  48.238  49.356  1.00  0.00    -0.169 NA
HETATM   23  N   UNL     1      25.759  49.370  48.663  1.00  0.00    -0.238 N 
HETATM   24  C   UNL     1      26.825  50.327  48.442  1.00  0.00     0.183 C 
HETATM   25  C   UNL     1      24.475  49.686  48.243  1.00  0.00     0.274 C 
HETATM   26  O   UNL     1      24.168  50.750  47.709  1.00  0.00    -0.266 OA
HETATM   27  C   UNL     1      23.456  48.638  48.424  1.00  0.00     0.046 A 
HETATM   28  C   UNL     1      23.811  47.428  49.015  1.00  0.00     0.011 A 
HETATM   29  C   UNL     1      22.156  48.843  47.938  1.00  0.00     0.018 A 
HETATM   30  C   UNL     1      22.876  46.384  49.030  1.00  0.00     0.015 A 
HETATM   31  C   UNL     1      21.579  46.585  48.547  1.00  0.00     0.001 A 
HETATM   32  C   UNL     1      21.214  47.820  48.015  1.00  0.00     0.001 A 
ENDBRANCH   5  21
TORSDOF 4
ENDMDL
