MODEL 1
REMARK VINA RESULT:      -9.8      0.000      0.000
REMARK  7 active torsions:
REMARK  status: ('A' for Active; 'I' for Inactive)
REMARK    1  A    between atoms: C_3  and  C_4 
REMARK       I    between atoms: C_4  and  N_5 
REMARK    2  A    between atoms: N_8  and  C_9 
REMARK    3  A    between atoms: C_12  and  N_13 
REMARK    4  A    between atoms: N_13  and  C_14 
REMARK    5  A    between atoms: C_14  and  N_15 
REMARK       I    between atoms: N_15  and  C_16 
REMARK    6  A    between atoms: C_16  and  C_17 
REMARK    7  A    between atoms: C_18  and  O_19 
ROOT
HETATM    1  C   UNL     1      23.722  47.969  49.309  1.00  0.00     0.030 A 
HETATM    2  C   UNL     1      23.620  46.573  49.419  1.00  0.00     0.031 A 
HETATM    3  C   UNL     1      24.748  45.760  49.629  1.00  0.00     0.032 A 
HETATM    4  C   UNL     1      26.020  46.323  49.700  1.00  0.00     0.034 A 
HETATM    5  C   UNL     1      26.127  47.709  49.681  1.00  0.00     0.032 A 
HETATM    6  C   UNL     1      25.000  48.514  49.485  1.00  0.00     0.031 A 
ENDROOT
BRANCH   4   7
HETATM    7  N   UNL     1      27.134  45.466  49.824  1.00  0.00    -0.333 N 
HETATM    8  H   UNL     1      28.050  45.889  49.679  1.00  0.00     0.168 HD
BRANCH   7   9
HETATM    9  C   UNL     1      27.187  44.169  50.283  1.00  0.00     0.179 C 
HETATM   10  S   UNL     1      26.560  42.777  49.592  1.00  0.00    -0.040 SA
BRANCH   9  11
HETATM   11  N   UNL     1      27.833  43.993  51.487  1.00  0.00    -0.299 N 
HETATM   12  C   UNL     1      27.359  44.119  52.784  1.00  0.00     0.260 C 
HETATM   13  O   UNL     1      26.168  44.050  53.077  1.00  0.00    -0.267 OA
HETATM   14  H   UNL     1      28.841  43.953  51.381  1.00  0.00     0.171 HD
BRANCH  12  15
HETATM   15  C   UNL     1      28.411  44.232  53.844  1.00  0.00     0.065 A 
HETATM   16  C   UNL     1      28.438  45.276  54.793  1.00  0.00     0.084 A 
HETATM   17  C   UNL     1      29.469  45.319  55.739  1.00  0.00     0.038 A 
HETATM   18  C   UNL     1      30.450  44.326  55.760  1.00  0.00     0.003 A 
HETATM   19  C   UNL     1      30.411  43.282  54.840  1.00  0.00     0.001 A 
HETATM   20  C   UNL     1      29.394  43.232  53.886  1.00  0.00     0.020 A 
BRANCH  16  21
HETATM   21  O   UNL     1      27.459  46.233  54.715  1.00  0.00    -0.355 OA
HETATM   22  C   UNL     1      27.875  47.593  54.808  1.00  0.00     0.210 C 
ENDBRANCH  16  21
ENDBRANCH  12  15
ENDBRANCH   9  11
ENDBRANCH   7   9
ENDBRANCH   4   7
BRANCH   1  23
HETATM   23  N   UNL     1      22.615  48.745  48.952  1.00  0.00    -0.378 N 
HETATM   24  C   UNL     1      22.577  50.155  49.389  1.00  0.00     0.143 C 
HETATM   25  C   UNL     1      21.596  50.960  48.529  1.00  0.00     0.146 C 
HETATM   26  N   UNL     1      20.273  50.344  48.420  1.00  0.00    -0.345 N 
HETATM   27  C   UNL     1      19.220  51.202  48.108  1.00  0.00     0.254 C 
HETATM   28  C   UNL     1      20.271  48.896  48.148  1.00  0.00     0.146 C 
HETATM   29  O   UNL     1      19.286  52.426  48.195  1.00  0.00    -0.267 OA
HETATM   30  C   UNL     1      21.285  48.102  49.003  1.00  0.00     0.143 C 
BRANCH  27  31
HETATM   31  C   UNL     1      17.943  50.629  47.645  1.00  0.00     0.038 A 
HETATM   32  C   UNL     1      17.676  50.419  46.281  1.00  0.00    -0.046 A 
HETATM   33  C   UNL     1      18.678  50.703  45.200  1.00  0.00     0.049 C 
HETATM   34  C   UNL     1      16.421  49.901  45.925  1.00  0.00     0.007 A 
HETATM   35  C   UNL     1      15.450  49.646  46.896  1.00  0.00     0.001 A 
HETATM   36  C   UNL     1      15.718  49.895  48.242  1.00  0.00     0.001 A 
HETATM   37  C   UNL     1      16.964  50.388  48.619  1.00  0.00     0.017 A 
ENDBRANCH  27  31
ENDBRANCH   1  23
TORSDOF 7
ENDMDL
MODEL 2
REMARK VINA RESULT:      -9.7      1.712      2.350
REMARK  7 active torsions:
REMARK  status: ('A' for Active; 'I' for Inactive)
REMARK    1  A    between atoms: C_3  and  C_4 
REMARK       I    between atoms: C_4  and  N_5 
REMARK    2  A    between atoms: N_8  and  C_9 
REMARK    3  A    between atoms: C_12  and  N_13 
REMARK    4  A    between atoms: N_13  and  C_14 
REMARK    5  A    between atoms: C_14  and  N_15 
REMARK       I    between atoms: N_15  and  C_16 
REMARK    6  A    between atoms: C_16  and  C_17 
REMARK    7  A    between atoms: C_18  and  O_19 
ROOT
HETATM    1  C   UNL     1      23.728  46.054  49.257  1.00  0.00     0.030 A 
HETATM    2  C   UNL     1      24.736  46.658  50.026  1.00  0.00     0.031 A 
HETATM    3  C   UNL     1      25.930  45.988  50.346  1.00  0.00     0.032 A 
HETATM    4  C   UNL     1      26.132  44.672  49.933  1.00  0.00     0.034 A 
HETATM    5  C   UNL     1      25.183  44.092  49.098  1.00  0.00     0.032 A 
HETATM    6  C   UNL     1      24.004  44.770  48.772  1.00  0.00     0.031 A 
ENDROOT
BRANCH   4   7
HETATM    7  N   UNL     1      27.303  44.004  50.348  1.00  0.00    -0.333 N 
HETATM    8  H   UNL     1      28.186  44.475  50.153  1.00  0.00     0.168 HD
BRANCH   7   9
HETATM    9  C   UNL     1      27.433  42.882  51.135  1.00  0.00     0.179 C 
HETATM   10  S   UNL     1      26.965  41.305  50.814  1.00  0.00    -0.040 SA
BRANCH   9  11
HETATM   11  N   UNL     1      28.016  43.088  52.367  1.00  0.00    -0.299 N 
HETATM   12  C   UNL     1      27.660  43.950  53.393  1.00  0.00     0.260 C 
HETATM   13  O   UNL     1      26.532  44.419  53.521  1.00  0.00    -0.267 OA
HETATM   14  H   UNL     1      28.940  42.676  52.428  1.00  0.00     0.171 HD
BRANCH  12  15
HETATM   15  C   UNL     1      28.720  44.194  54.423  1.00  0.00     0.065 A 
HETATM   16  C   UNL     1      28.709  45.307  55.289  1.00  0.00     0.084 A 
HETATM   17  C   UNL     1      29.749  45.472  56.212  1.00  0.00     0.038 A 
HETATM   18  C   UNL     1      30.777  44.530  56.292  1.00  0.00     0.003 A 
HETATM   19  C   UNL     1      30.776  43.418  55.455  1.00  0.00     0.001 A 
HETATM   20  C   UNL     1      29.749  43.246  54.525  1.00  0.00     0.020 A 
BRANCH  16  21
HETATM   21  O   UNL     1      27.684  46.209  55.155  1.00  0.00    -0.355 OA
HETATM   22  C   UNL     1      28.037  47.538  54.780  1.00  0.00     0.210 C 
ENDBRANCH  16  21
ENDBRANCH  12  15
ENDBRANCH   9  11
ENDBRANCH   7   9
ENDBRANCH   4   7
BRANCH   1  23
HETATM   23  N   UNL     1      22.491  46.679  49.076  1.00  0.00    -0.378 N 
HETATM   24  C   UNL     1      21.441  45.952  48.332  1.00  0.00     0.143 C 
HETATM   25  C   UNL     1      20.058  46.533  48.647  1.00  0.00     0.146 C 
HETATM   26  N   UNL     1      19.985  47.987  48.494  1.00  0.00    -0.345 N 
HETATM   27  C   UNL     1      18.716  48.517  48.269  1.00  0.00     0.254 C 
HETATM   28  C   UNL     1      21.107  48.740  49.081  1.00  0.00     0.146 C 
HETATM   29  O   UNL     1      17.745  47.847  47.924  1.00  0.00    -0.267 OA
HETATM   30  C   UNL     1      22.493  48.127  48.778  1.00  0.00     0.143 C 
BRANCH  27  31
HETATM   31  C   UNL     1      18.505  49.966  48.447  1.00  0.00     0.038 A 
HETATM   32  C   UNL     1      18.681  50.875  47.389  1.00  0.00    -0.046 A 
HETATM   33  C   UNL     1      19.037  50.447  45.995  1.00  0.00     0.049 C 
HETATM   34  C   UNL     1      18.493  52.241  47.653  1.00  0.00     0.007 A 
HETATM   35  C   UNL     1      18.186  52.685  48.942  1.00  0.00     0.001 A 
HETATM   36  C   UNL     1      18.052  51.773  49.987  1.00  0.00     0.001 A 
HETATM   37  C   UNL     1      18.212  50.412  49.742  1.00  0.00     0.017 A 
ENDBRANCH  27  31
ENDBRANCH   1  23
TORSDOF 7
ENDMDL
MODEL 3
REMARK VINA RESULT:      -9.5      2.225     11.676
REMARK  7 active torsions:
REMARK  status: ('A' for Active; 'I' for Inactive)
REMARK    1  A    between atoms: C_3  and  C_4 
REMARK       I    between atoms: C_4  and  N_5 
REMARK    2  A    between atoms: N_8  and  C_9 
REMARK    3  A    between atoms: C_12  and  N_13 
REMARK    4  A    between atoms: N_13  and  C_14 
REMARK    5  A    between atoms: C_14  and  N_15 
REMARK       I    between atoms: N_15  and  C_16 
REMARK    6  A    between atoms: C_16  and  C_17 
REMARK    7  A    between atoms: C_18  and  O_19 
ROOT
HETATM    1  C   UNL     1      24.298  46.249  50.011  1.00  0.00     0.030 A 
HETATM    2  C   UNL     1      23.528  45.486  49.119  1.00  0.00     0.031 A 
HETATM    3  C   UNL     1      22.601  46.079  48.242  1.00  0.00     0.032 A 
HETATM    4  C   UNL     1      22.392  47.457  48.263  1.00  0.00     0.034 A 
HETATM    5  C   UNL     1      23.209  48.233  49.077  1.00  0.00     0.032 A 
HETATM    6  C   UNL     1      24.138  47.639  49.937  1.00  0.00     0.031 A 
ENDROOT
BRANCH   4   7
HETATM    7  N   UNL     1      21.392  48.002  47.431  1.00  0.00    -0.333 N 
HETATM    8  H   UNL     1      21.704  48.665  46.722  1.00  0.00     0.168 HD
BRANCH   7   9
HETATM    9  C   UNL     1      20.067  47.647  47.315  1.00  0.00     0.179 C 
HETATM   10  S   UNL     1      19.396  46.274  46.626  1.00  0.00    -0.040 SA
BRANCH   9  11
HETATM   11  N   UNL     1      19.164  48.555  47.825  1.00  0.00    -0.299 N 
HETATM   12  C   UNL     1      18.543  49.636  47.219  1.00  0.00     0.260 C 
HETATM   13  O   UNL     1      18.413  49.745  46.002  1.00  0.00    -0.267 OA
HETATM   14  H   UNL     1      19.111  48.518  48.837  1.00  0.00     0.171 HD
BRANCH  12  15
HETATM   15  C   UNL     1      17.924  50.629  48.154  1.00  0.00     0.065 A 
HETATM   16  C   UNL     1      18.683  51.491  48.974  1.00  0.00     0.084 A 
HETATM   17  C   UNL     1      18.025  52.376  49.836  1.00  0.00     0.038 A 
HETATM   18  C   UNL     1      16.630  52.424  49.870  1.00  0.00     0.003 A 
HETATM   19  C   UNL     1      15.880  51.591  49.044  1.00  0.00     0.001 A 
HETATM   20  C   UNL     1      16.523  50.697  48.186  1.00  0.00     0.020 A 
BRANCH  16  21
HETATM   21  O   UNL     1      20.049  51.389  48.912  1.00  0.00    -0.355 OA
HETATM   22  C   UNL     1      20.720  50.955  50.093  1.00  0.00     0.210 C 
ENDBRANCH  16  21
ENDBRANCH  12  15
ENDBRANCH   9  11
ENDBRANCH   7   9
ENDBRANCH   4   7
BRANCH   1  23
HETATM   23  N   UNL     1      25.101  45.634  50.975  1.00  0.00    -0.378 N 
HETATM   24  C   UNL     1      24.705  44.299  51.471  1.00  0.00     0.143 C 
HETATM   25  C   UNL     1      25.901  43.584  52.108  1.00  0.00     0.146 C 
HETATM   26  N   UNL     1      26.604  44.395  53.104  1.00  0.00    -0.345 N 
HETATM   27  C   UNL     1      27.343  43.693  54.055  1.00  0.00     0.254 C 
HETATM   28  C   UNL     1      26.871  45.788  52.710  1.00  0.00     0.146 C 
HETATM   29  O   UNL     1      27.215  42.490  54.270  1.00  0.00    -0.267 OA
HETATM   30  C   UNL     1      25.665  46.487  52.042  1.00  0.00     0.143 C 
BRANCH  27  31
HETATM   31  C   UNL     1      28.340  44.419  54.864  1.00  0.00     0.038 A 
HETATM   32  C   UNL     1      29.699  44.063  54.857  1.00  0.00    -0.046 A 
HETATM   33  C   UNL     1      30.253  42.967  53.993  1.00  0.00     0.049 C 
HETATM   34  C   UNL     1      30.576  44.784  55.684  1.00  0.00     0.007 A 
HETATM   35  C   UNL     1      30.100  45.795  56.523  1.00  0.00     0.001 A 
HETATM   36  C   UNL     1      28.742  46.110  56.545  1.00  0.00     0.001 A 
HETATM   37  C   UNL     1      27.859  45.422  55.716  1.00  0.00     0.017 A 
ENDBRANCH  27  31
ENDBRANCH   1  23
TORSDOF 7
ENDMDL
MODEL 4
REMARK VINA RESULT:      -9.3      2.350      3.564
REMARK  7 active torsions:
REMARK  status: ('A' for Active; 'I' for Inactive)
REMARK    1  A    between atoms: C_3  and  C_4 
REMARK       I    between atoms: C_4  and  N_5 
REMARK    2  A    between atoms: N_8  and  C_9 
REMARK    3  A    between atoms: C_12  and  N_13 
REMARK    4  A    between atoms: N_13  and  C_14 
REMARK    5  A    between atoms: C_14  and  N_15 
REMARK       I    between atoms: N_15  and  C_16 
REMARK    6  A    between atoms: C_16  and  C_17 
REMARK    7  A    between atoms: C_18  and  O_19 
ROOT
HETATM    1  C   UNL     1      24.817  45.031  49.558  1.00  0.00     0.030 A 
HETATM    2  C   UNL     1      26.034  45.678  49.824  1.00  0.00     0.031 A 
HETATM    3  C   UNL     1      27.139  44.992  50.361  1.00  0.00     0.032 A 
HETATM    4  C   UNL     1      27.041  43.639  50.681  1.00  0.00     0.034 A 
HETATM    5  C   UNL     1      25.874  42.966  50.341  1.00  0.00     0.032 A 
HETATM    6  C   UNL     1      24.783  43.651  49.795  1.00  0.00     0.031 A 
ENDROOT
BRANCH   4   7
HETATM    7  N   UNL     1      28.142  43.008  51.298  1.00  0.00    -0.333 N 
HETATM    8  H   UNL     1      29.043  43.109  50.831  1.00  0.00     0.168 HD
BRANCH   7   9
HETATM    9  C   UNL     1      28.222  42.412  52.537  1.00  0.00     0.179 C 
HETATM   10  S   UNL     1      27.746  40.874  53.003  1.00  0.00    -0.040 SA
BRANCH   9  11
HETATM   11  N   UNL     1      28.753  43.197  53.538  1.00  0.00    -0.299 N 
HETATM   12  C   UNL     1      30.056  43.299  53.999  1.00  0.00     0.260 C 
HETATM   13  O   UNL     1      31.035  42.970  53.334  1.00  0.00    -0.267 OA
HETATM   14  H   UNL     1      28.035  43.604  54.128  1.00  0.00     0.171 HD
BRANCH  12  15
HETATM   15  C   UNL     1      30.214  43.953  55.337  1.00  0.00     0.065 A 
HETATM   16  C   UNL     1      29.479  45.092  55.728  1.00  0.00     0.084 A 
HETATM   17  C   UNL     1      29.703  45.655  56.990  1.00  0.00     0.038 A 
HETATM   18  C   UNL     1      30.629  45.082  57.865  1.00  0.00     0.003 A 
HETATM   19  C   UNL     1      31.338  43.945  57.489  1.00  0.00     0.001 A 
HETATM   20  C   UNL     1      31.130  43.378  56.231  1.00  0.00     0.020 A 
BRANCH  16  21
HETATM   21  O   UNL     1      28.596  45.622  54.823  1.00  0.00    -0.355 OA
HETATM   22  C   UNL     1      28.470  47.042  54.797  1.00  0.00     0.210 C 
ENDBRANCH  16  21
ENDBRANCH  12  15
ENDBRANCH   9  11
ENDBRANCH   7   9
ENDBRANCH   4   7
BRANCH   1  23
HETATM   23  N   UNL     1      23.689  45.756  49.166  1.00  0.00    -0.378 N 
HETATM   24  C   UNL     1      22.976  45.338  47.942  1.00  0.00     0.143 C 
HETATM   25  C   UNL     1      21.545  45.889  47.936  1.00  0.00     0.146 C 
HETATM   26  N   UNL     1      21.472  47.327  48.194  1.00  0.00    -0.345 N 
HETATM   27  C   UNL     1      20.332  47.977  47.726  1.00  0.00     0.254 C 
HETATM   28  C   UNL     1      22.303  47.812  49.309  1.00  0.00     0.146 C 
HETATM   29  O   UNL     1      19.558  47.495  46.902  1.00  0.00    -0.267 OA
HETATM   30  C   UNL     1      23.734  47.226  49.318  1.00  0.00     0.143 C 
BRANCH  27  31
HETATM   31  C   UNL     1      20.017  49.325  48.234  1.00  0.00     0.038 A 
HETATM   32  C   UNL     1      19.155  49.522  49.327  1.00  0.00    -0.046 A 
HETATM   33  C   UNL     1      18.538  48.389  50.094  1.00  0.00     0.049 C 
HETATM   34  C   UNL     1      18.882  50.841  49.725  1.00  0.00     0.007 A 
HETATM   35  C   UNL     1      19.416  51.925  49.024  1.00  0.00     0.001 A 
HETATM   36  C   UNL     1      20.239  51.712  47.919  1.00  0.00     0.001 A 
HETATM   37  C   UNL     1      20.540  50.412  47.521  1.00  0.00     0.017 A 
ENDBRANCH  27  31
ENDBRANCH   1  23
TORSDOF 7
ENDMDL
MODEL 5
REMARK VINA RESULT:      -9.1      1.831      3.024
REMARK  7 active torsions:
REMARK  status: ('A' for Active; 'I' for Inactive)
REMARK    1  A    between atoms: C_3  and  C_4 
REMARK       I    between atoms: C_4  and  N_5 
REMARK    2  A    between atoms: N_8  and  C_9 
REMARK    3  A    between atoms: C_12  and  N_13 
REMARK    4  A    between atoms: N_13  and  C_14 
REMARK    5  A    between atoms: C_14  and  N_15 
REMARK       I    between atoms: N_15  and  C_16 
REMARK    6  A    between atoms: C_16  and  C_17 
REMARK    7  A    between atoms: C_18  and  O_19 
ROOT
HETATM    1  C   UNL     1      21.878  45.977  48.749  1.00  0.00     0.030 A 
HETATM    2  C   UNL     1      23.141  46.340  49.244  1.00  0.00     0.031 A 
HETATM    3  C   UNL     1      24.017  45.397  49.811  1.00  0.00     0.032 A 
HETATM    4  C   UNL     1      23.633  44.062  49.932  1.00  0.00     0.034 A 
HETATM    5  C   UNL     1      22.424  43.672  49.368  1.00  0.00     0.032 A 
HETATM    6  C   UNL     1      21.563  44.613  48.793  1.00  0.00     0.031 A 
ENDROOT
BRANCH   4   7
HETATM    7  N   UNL     1      24.504  43.164  50.585  1.00  0.00    -0.333 N 
HETATM    8  H   UNL     1      24.075  42.339  51.001  1.00  0.00     0.168 HD
BRANCH   7   9
HETATM    9  C   UNL     1      25.880  43.144  50.601  1.00  0.00     0.179 C 
HETATM   10  S   UNL     1      26.942  42.490  49.481  1.00  0.00    -0.040 SA
BRANCH   9  11
HETATM   11  N   UNL     1      26.467  43.731  51.702  1.00  0.00    -0.299 N 
HETATM   12  C   UNL     1      25.893  44.268  52.843  1.00  0.00     0.260 C 
HETATM   13  O   UNL     1      24.765  43.974  53.234  1.00  0.00    -0.267 OA
HETATM   14  H   UNL     1      27.442  43.959  51.541  1.00  0.00     0.171 HD
BRANCH  12  15
HETATM   15  C   UNL     1      26.784  45.158  53.654  1.00  0.00     0.065 A 
HETATM   16  C   UNL     1      27.923  44.687  54.340  1.00  0.00     0.084 A 
HETATM   17  C   UNL     1      28.692  45.582  55.093  1.00  0.00     0.038 A 
HETATM   18  C   UNL     1      28.350  46.935  55.146  1.00  0.00     0.003 A 
HETATM   19  C   UNL     1      27.240  47.406  54.449  1.00  0.00     0.001 A 
HETATM   20  C   UNL     1      26.460  46.522  53.702  1.00  0.00     0.020 A 
BRANCH  16  21
HETATM   21  O   UNL     1      28.202  43.346  54.267  1.00  0.00    -0.355 OA
HETATM   22  C   UNL     1      29.560  42.956  54.454  1.00  0.00     0.210 C 
ENDBRANCH  16  21
ENDBRANCH  12  15
ENDBRANCH   9  11
ENDBRANCH   7   9
ENDBRANCH   4   7
BRANCH   1  23
HETATM   23  N   UNL     1      20.965  46.948  48.328  1.00  0.00    -0.378 N 
HETATM   24  C   UNL     1      20.982  47.358  46.909  1.00  0.00     0.143 C 
HETATM   25  C   UNL     1      19.654  48.019  46.522  1.00  0.00     0.146 C 
HETATM   26  N   UNL     1      19.244  49.086  47.436  1.00  0.00    -0.345 N 
HETATM   27  C   UNL     1      18.369  50.037  46.915  1.00  0.00     0.254 C 
HETATM   28  C   UNL     1      19.371  48.773  48.870  1.00  0.00     0.146 C 
HETATM   29  O   UNL     1      18.157  50.187  45.714  1.00  0.00    -0.267 OA
HETATM   30  C   UNL     1      20.703  48.082  49.240  1.00  0.00     0.143 C 
BRANCH  27  31
HETATM   31  C   UNL     1      17.647  50.928  47.842  1.00  0.00     0.038 A 
HETATM   32  C   UNL     1      18.300  51.964  48.533  1.00  0.00    -0.046 A 
HETATM   33  C   UNL     1      19.754  52.282  48.342  1.00  0.00     0.049 C 
HETATM   34  C   UNL     1      17.544  52.744  49.423  1.00  0.00     0.007 A 
HETATM   35  C   UNL     1      16.194  52.466  49.649  1.00  0.00     0.001 A 
HETATM   36  C   UNL     1      15.571  51.411  48.983  1.00  0.00     0.001 A 
HETATM   37  C   UNL     1      16.297  50.639  48.079  1.00  0.00     0.017 A 
ENDBRANCH  27  31
ENDBRANCH   1  23
TORSDOF 7
ENDMDL
MODEL 6
REMARK VINA RESULT:      -9.1      2.529      3.612
REMARK  7 active torsions:
REMARK  status: ('A' for Active; 'I' for Inactive)
REMARK    1  A    between atoms: C_3  and  C_4 
REMARK       I    between atoms: C_4  and  N_5 
REMARK    2  A    between atoms: N_8  and  C_9 
REMARK    3  A    between atoms: C_12  and  N_13 
REMARK    4  A    between atoms: N_13  and  C_14 
REMARK    5  A    between atoms: C_14  and  N_15 
REMARK       I    between atoms: N_15  and  C_16 
REMARK    6  A    between atoms: C_16  and  C_17 
REMARK    7  A    between atoms: C_18  and  O_19 
ROOT
HETATM    1  C   UNL     1      22.626  44.186  48.553  1.00  0.00     0.030 A 
HETATM    2  C   UNL     1      23.460  43.557  47.615  1.00  0.00     0.031 A 
HETATM    3  C   UNL     1      24.396  42.577  47.992  1.00  0.00     0.032 A 
HETATM    4  C   UNL     1      24.548  42.225  49.332  1.00  0.00     0.034 A 
HETATM    5  C   UNL     1      23.670  42.774  50.259  1.00  0.00     0.032 A 
HETATM    6  C   UNL     1      22.732  43.738  49.876  1.00  0.00     0.031 A 
ENDROOT
BRANCH   4   7
HETATM    7  N   UNL     1      25.557  41.302  49.679  1.00  0.00    -0.333 N 
HETATM    8  H   UNL     1      25.244  40.390  50.010  1.00  0.00     0.168 HD
BRANCH   7   9
HETATM    9  C   UNL     1      26.917  41.384  49.478  1.00  0.00     0.179 C 
HETATM   10  S   UNL     1      27.829  40.843  48.180  1.00  0.00    -0.040 SA
BRANCH   9  11
HETATM   11  N   UNL     1      27.630  41.980  50.496  1.00  0.00    -0.299 N 
HETATM   12  C   UNL     1      28.271  41.418  51.588  1.00  0.00     0.260 C 
HETATM   13  O   UNL     1      28.627  40.242  51.632  1.00  0.00    -0.267 OA
HETATM   14  H   UNL     1      27.489  42.984  50.527  1.00  0.00     0.171 HD
BRANCH  12  15
HETATM   15  C   UNL     1      28.618  42.371  52.691  1.00  0.00     0.065 A 
HETATM   16  C   UNL     1      27.687  43.270  53.252  1.00  0.00     0.084 A 
HETATM   17  C   UNL     1      28.098  44.143  54.266  1.00  0.00     0.038 A 
HETATM   18  C   UNL     1      29.413  44.110  54.736  1.00  0.00     0.003 A 
HETATM   19  C   UNL     1      30.327  43.206  54.200  1.00  0.00     0.001 A 
HETATM   20  C   UNL     1      29.931  42.336  53.183  1.00  0.00     0.020 A 
BRANCH  16  21
HETATM   21  O   UNL     1      26.415  43.272  52.740  1.00  0.00    -0.355 OA
HETATM   22  C   UNL     1      25.729  44.521  52.714  1.00  0.00     0.210 C 
ENDBRANCH  16  21
ENDBRANCH  12  15
ENDBRANCH   9  11
ENDBRANCH   7   9
ENDBRANCH   4   7
BRANCH   1  23
HETATM   23  N   UNL     1      21.810  45.259  48.184  1.00  0.00    -0.378 N 
HETATM   24  C   UNL     1      21.488  45.436  46.753  1.00  0.00     0.143 C 
HETATM   25  C   UNL     1      20.239  46.307  46.585  1.00  0.00     0.146 C 
HETATM   26  N   UNL     1      20.298  47.564  47.332  1.00  0.00    -0.345 N 
HETATM   27  C   UNL     1      19.486  48.595  46.863  1.00  0.00     0.254 C 
HETATM   28  C   UNL     1      20.777  47.452  48.720  1.00  0.00     0.146 C 
HETATM   29  O   UNL     1      18.966  48.605  45.749  1.00  0.00    -0.267 OA
HETATM   30  C   UNL     1      22.020  46.547  48.878  1.00  0.00     0.143 C 
BRANCH  27  31
HETATM   31  C   UNL     1      19.225  49.754  47.737  1.00  0.00     0.038 A 
HETATM   32  C   UNL     1      18.054  49.851  48.508  1.00  0.00    -0.046 A 
HETATM   33  C   UNL     1      17.013  48.770  48.551  1.00  0.00     0.049 C 
HETATM   34  C   UNL     1      17.868  51.004  49.286  1.00  0.00     0.007 A 
HETATM   35  C   UNL     1      18.799  52.045  49.257  1.00  0.00     0.001 A 
HETATM   36  C   UNL     1      19.937  51.949  48.458  1.00  0.00     0.001 A 
HETATM   37  C   UNL     1      20.152  50.804  47.695  1.00  0.00     0.017 A 
ENDBRANCH  27  31
ENDBRANCH   1  23
TORSDOF 7
ENDMDL
MODEL 7
REMARK VINA RESULT:      -8.8      2.241      3.263
REMARK  7 active torsions:
REMARK  status: ('A' for Active; 'I' for Inactive)
REMARK    1  A    between atoms: C_3  and  C_4 
REMARK       I    between atoms: C_4  and  N_5 
REMARK    2  A    between atoms: N_8  and  C_9 
REMARK    3  A    between atoms: C_12  and  N_13 
REMARK    4  A    between atoms: N_13  and  C_14 
REMARK    5  A    between atoms: C_14  and  N_15 
REMARK       I    between atoms: N_15  and  C_16 
REMARK    6  A    between atoms: C_16  and  C_17 
REMARK    7  A    between atoms: C_18  and  O_19 
ROOT
HETATM    1  C   UNL     1      22.930  44.853  48.741  1.00  0.00     0.030 A 
HETATM    2  C   UNL     1      23.517  44.108  47.705  1.00  0.00     0.031 A 
HETATM    3  C   UNL     1      24.036  42.818  47.918  1.00  0.00     0.032 A 
HETATM    4  C   UNL     1      24.013  42.251  49.191  1.00  0.00     0.034 A 
HETATM    5  C   UNL     1      23.356  42.938  50.205  1.00  0.00     0.032 A 
HETATM    6  C   UNL     1      22.830  44.215  49.984  1.00  0.00     0.031 A 
ENDROOT
BRANCH   4   7
HETATM    7  N   UNL     1      24.621  40.992  49.382  1.00  0.00    -0.333 N 
HETATM    8  H   UNL     1      24.152  40.193  48.958  1.00  0.00     0.168 HD
BRANCH   7   9
HETATM    9  C   UNL     1      25.855  40.694  49.915  1.00  0.00     0.179 C 
HETATM   10  S   UNL     1      26.893  39.433  49.539  1.00  0.00    -0.040 SA
BRANCH   9  11
HETATM   11  N   UNL     1      26.290  41.543  50.910  1.00  0.00    -0.299 N 
HETATM   12  C   UNL     1      27.118  42.653  50.840  1.00  0.00     0.260 C 
HETATM   13  O   UNL     1      27.308  43.290  49.807  1.00  0.00    -0.267 OA
HETATM   14  H   UNL     1      26.120  41.168  51.837  1.00  0.00     0.171 HD
BRANCH  12  15
HETATM   15  C   UNL     1      27.689  43.111  52.147  1.00  0.00     0.065 A 
HETATM   16  C   UNL     1      26.945  43.838  53.099  1.00  0.00     0.084 A 
HETATM   17  C   UNL     1      27.561  44.247  54.288  1.00  0.00     0.038 A 
HETATM   18  C   UNL     1      28.895  43.918  54.542  1.00  0.00     0.003 A 
HETATM   19  C   UNL     1      29.623  43.179  53.613  1.00  0.00     0.001 A 
HETATM   20  C   UNL     1      29.023  42.773  52.420  1.00  0.00     0.020 A 
BRANCH  16  21
HETATM   21  O   UNL     1      25.645  44.148  52.791  1.00  0.00    -0.355 OA
HETATM   22  C   UNL     1      25.371  45.498  52.424  1.00  0.00     0.210 C 
ENDBRANCH  16  21
ENDBRANCH  12  15
ENDBRANCH   9  11
ENDBRANCH   7   9
ENDBRANCH   4   7
BRANCH   1  23
HETATM   23  N   UNL     1      22.557  46.185  48.545  1.00  0.00    -0.378 N 
HETATM   24  C   UNL     1      23.415  47.245  49.114  1.00  0.00     0.143 C 
HETATM   25  C   UNL     1      23.156  48.583  48.412  1.00  0.00     0.146 C 
HETATM   26  N   UNL     1      21.740  48.946  48.350  1.00  0.00    -0.345 N 
HETATM   27  C   UNL     1      21.461  50.303  48.202  1.00  0.00     0.254 C 
HETATM   28  C   UNL     1      20.828  47.863  47.946  1.00  0.00     0.146 C 
HETATM   29  O   UNL     1      22.282  51.196  48.398  1.00  0.00    -0.267 OA
HETATM   30  C   UNL     1      21.118  46.513  48.640  1.00  0.00     0.143 C 
BRANCH  27  31
HETATM   31  C   UNL     1      20.106  50.714  47.790  1.00  0.00     0.038 A 
HETATM   32  C   UNL     1      19.160  51.185  48.718  1.00  0.00    -0.046 A 
HETATM   33  C   UNL     1      19.466  51.361  50.177  1.00  0.00     0.049 C 
HETATM   34  C   UNL     1      17.882  51.522  48.246  1.00  0.00     0.007 A 
HETATM   35  C   UNL     1      17.547  51.349  46.900  1.00  0.00     0.001 A 
HETATM   36  C   UNL     1      18.486  50.846  46.000  1.00  0.00     0.001 A 
HETATM   37  C   UNL     1      19.767  50.526  46.444  1.00  0.00     0.017 A 
ENDBRANCH  27  31
ENDBRANCH   1  23
TORSDOF 7
ENDMDL
MODEL 8
REMARK VINA RESULT:      -8.7      6.928     10.041
REMARK  7 active torsions:
REMARK  status: ('A' for Active; 'I' for Inactive)
REMARK    1  A    between atoms: C_3  and  C_4 
REMARK       I    between atoms: C_4  and  N_5 
REMARK    2  A    between atoms: N_8  and  C_9 
REMARK    3  A    between atoms: C_12  and  N_13 
REMARK    4  A    between atoms: N_13  and  C_14 
REMARK    5  A    between atoms: C_14  and  N_15 
REMARK       I    between atoms: N_15  and  C_16 
REMARK    6  A    between atoms: C_16  and  C_17 
REMARK    7  A    between atoms: C_18  and  O_19 
ROOT
HETATM    1  C   UNL     1      26.624  42.460  49.629  1.00  0.00     0.030 A 
HETATM    2  C   UNL     1      26.197  43.797  49.655  1.00  0.00     0.031 A 
HETATM    3  C   UNL     1      25.930  44.470  50.862  1.00  0.00     0.032 A 
HETATM    4  C   UNL     1      26.048  43.804  52.080  1.00  0.00     0.034 A 
HETATM    5  C   UNL     1      26.554  42.509  52.076  1.00  0.00     0.032 A 
HETATM    6  C   UNL     1      26.831  41.851  50.873  1.00  0.00     0.031 A 
ENDROOT
BRANCH   4   7
HETATM    7  N   UNL     1      25.687  44.486  53.262  1.00  0.00    -0.333 N 
HETATM    8  H   UNL     1      24.939  44.069  53.815  1.00  0.00     0.168 HD
BRANCH   7   9
HETATM    9  C   UNL     1      26.309  45.548  53.878  1.00  0.00     0.179 C 
HETATM   10  S   UNL     1      26.034  47.191  53.686  1.00  0.00    -0.040 SA
BRANCH   9  11
HETATM   11  N   UNL     1      27.309  45.214  54.766  1.00  0.00    -0.299 N 
HETATM   12  C   UNL     1      28.381  45.961  55.228  1.00  0.00     0.260 C 
HETATM   13  O   UNL     1      28.411  47.189  55.202  1.00  0.00    -0.267 OA
HETATM   14  H   UNL     1      27.347  44.217  54.943  1.00  0.00     0.171 HD
BRANCH  12  15
HETATM   15  C   UNL     1      29.477  45.175  55.880  1.00  0.00     0.065 A 
HETATM   16  C   UNL     1      30.117  44.083  55.257  1.00  0.00     0.084 A 
HETATM   17  C   UNL     1      31.119  43.388  55.945  1.00  0.00     0.038 A 
HETATM   18  C   UNL     1      31.500  43.786  57.228  1.00  0.00     0.003 A 
HETATM   19  C   UNL     1      30.887  44.879  57.835  1.00  0.00     0.001 A 
HETATM   20  C   UNL     1      29.880  45.575  57.163  1.00  0.00     0.020 A 
BRANCH  16  21
HETATM   21  O   UNL     1      29.690  43.725  54.003  1.00  0.00    -0.355 OA
HETATM   22  C   UNL     1      30.264  42.551  53.435  1.00  0.00     0.210 C 
ENDBRANCH  16  21
ENDBRANCH  12  15
ENDBRANCH   9  11
ENDBRANCH   7   9
ENDBRANCH   4   7
BRANCH   1  23
HETATM   23  N   UNL     1      26.741  41.766  48.422  1.00  0.00    -0.378 N 
HETATM   24  C   UNL     1      25.559  41.040  47.913  1.00  0.00     0.143 C 
HETATM   25  C   UNL     1      25.696  40.773  46.410  1.00  0.00     0.146 C 
HETATM   26  N   UNL     1      26.970  40.152  46.041  1.00  0.00    -0.345 N 
HETATM   27  C   UNL     1      26.980  39.440  44.843  1.00  0.00     0.254 C 
HETATM   28  C   UNL     1      28.165  40.746  46.663  1.00  0.00     0.146 C 
HETATM   29  O   UNL     1      25.964  39.079  44.252  1.00  0.00    -0.267 OA
HETATM   30  C   UNL     1      28.002  41.036  48.172  1.00  0.00     0.143 C 
BRANCH  27  31
HETATM   31  C   UNL     1      28.275  39.084  44.234  1.00  0.00     0.038 A 
HETATM   32  C   UNL     1      28.923  39.936  43.323  1.00  0.00    -0.046 A 
HETATM   33  C   UNL     1      28.387  41.287  42.944  1.00  0.00     0.049 C 
HETATM   34  C   UNL     1      30.136  39.505  42.762  1.00  0.00     0.007 A 
HETATM   35  C   UNL     1      30.658  38.246  43.067  1.00  0.00     0.001 A 
HETATM   36  C   UNL     1      29.983  37.398  43.944  1.00  0.00     0.001 A 
HETATM   37  C   UNL     1      28.789  37.815  44.528  1.00  0.00     0.017 A 
ENDBRANCH  27  31
ENDBRANCH   1  23
TORSDOF 7
ENDMDL
MODEL 9
REMARK VINA RESULT:      -8.7      6.258      9.093
REMARK  7 active torsions:
REMARK  status: ('A' for Active; 'I' for Inactive)
REMARK    1  A    between atoms: C_3  and  C_4 
REMARK       I    between atoms: C_4  and  N_5 
REMARK    2  A    between atoms: N_8  and  C_9 
REMARK    3  A    between atoms: C_12  and  N_13 
REMARK    4  A    between atoms: N_13  and  C_14 
REMARK    5  A    between atoms: C_14  and  N_15 
REMARK       I    between atoms: N_15  and  C_16 
REMARK    6  A    between atoms: C_16  and  C_17 
REMARK    7  A    between atoms: C_18  and  O_19 
ROOT
HETATM    1  C   UNL     1      25.402  44.256  49.875  1.00  0.00     0.030 A 
HETATM    2  C   UNL     1      24.663  44.231  51.068  1.00  0.00     0.031 A 
HETATM    3  C   UNL     1      24.725  45.280  52.003  1.00  0.00     0.032 A 
HETATM    4  C   UNL     1      25.563  46.372  51.784  1.00  0.00     0.034 A 
HETATM    5  C   UNL     1      26.232  46.452  50.568  1.00  0.00     0.032 A 
HETATM    6  C   UNL     1      26.156  45.412  49.636  1.00  0.00     0.031 A 
ENDROOT
BRANCH   4   7
HETATM    7  N   UNL     1      25.663  47.360  52.786  1.00  0.00    -0.333 N 
HETATM    8  H   UNL     1      25.044  48.164  52.693  1.00  0.00     0.168 HD
BRANCH   7   9
HETATM    9  C   UNL     1      26.357  47.326  53.975  1.00  0.00     0.179 C 
HETATM   10  S   UNL     1      26.177  48.294  55.332  1.00  0.00    -0.040 SA
BRANCH   9  11
HETATM   11  N   UNL     1      27.348  46.372  54.054  1.00  0.00    -0.299 N 
HETATM   12  C   UNL     1      27.336  45.115  54.638  1.00  0.00     0.260 C 
HETATM   13  O   UNL     1      26.306  44.486  54.866  1.00  0.00    -0.267 OA
HETATM   14  H   UNL     1      28.260  46.744  53.811  1.00  0.00     0.171 HD
BRANCH  12  15
HETATM   15  C   UNL     1      28.683  44.504  54.876  1.00  0.00     0.065 A 
HETATM   16  C   UNL     1      29.571  44.963  55.872  1.00  0.00     0.084 A 
HETATM   17  C   UNL     1      30.821  44.349  56.015  1.00  0.00     0.038 A 
HETATM   18  C   UNL     1      31.179  43.276  55.196  1.00  0.00     0.003 A 
HETATM   19  C   UNL     1      30.294  42.807  54.229  1.00  0.00     0.001 A 
HETATM   20  C   UNL     1      29.048  43.415  54.070  1.00  0.00     0.020 A 
BRANCH  16  21
HETATM   21  O   UNL     1      29.175  46.031  56.636  1.00  0.00    -0.355 OA
HETATM   22  C   UNL     1      29.618  46.058  57.990  1.00  0.00     0.210 C 
ENDBRANCH  16  21
ENDBRANCH  12  15
ENDBRANCH   9  11
ENDBRANCH   7   9
ENDBRANCH   4   7
BRANCH   1  23
HETATM   23  N   UNL     1      25.443  43.143  49.031  1.00  0.00    -0.378 N 
HETATM   24  C   UNL     1      24.167  42.607  48.514  1.00  0.00     0.143 C 
HETATM   25  C   UNL     1      24.408  41.750  47.266  1.00  0.00     0.146 C 
HETATM   26  N   UNL     1      25.442  40.730  47.448  1.00  0.00    -0.345 N 
HETATM   27  C   UNL     1      25.376  39.631  46.593  1.00  0.00     0.254 C 
HETATM   28  C   UNL     1      26.672  41.189  48.115  1.00  0.00     0.146 C 
HETATM   29  O   UNL     1      24.387  39.344  45.922  1.00  0.00    -0.267 OA
HETATM   30  C   UNL     1      26.413  42.075  49.355  1.00  0.00     0.143 C 
BRANCH  27  31
HETATM   31  C   UNL     1      26.550  38.747  46.474  1.00  0.00     0.038 A 
HETATM   32  C   UNL     1      27.530  38.945  45.486  1.00  0.00    -0.046 A 
HETATM   33  C   UNL     1      27.494  40.094  44.519  1.00  0.00     0.049 C 
HETATM   34  C   UNL     1      28.597  38.036  45.420  1.00  0.00     0.007 A 
HETATM   35  C   UNL     1      28.657  36.939  46.284  1.00  0.00     0.001 A 
HETATM   36  C   UNL     1      27.657  36.736  47.234  1.00  0.00     0.001 A 
HETATM   37  C   UNL     1      26.601  37.639  47.330  1.00  0.00     0.017 A 
ENDBRANCH  27  31
ENDBRANCH   1  23
TORSDOF 7
ENDMDL
MODEL 10
REMARK VINA RESULT:      -8.7      2.445     11.423
REMARK  7 active torsions:
REMARK  status: ('A' for Active; 'I' for Inactive)
REMARK    1  A    between atoms: C_3  and  C_4 
REMARK       I    between atoms: C_4  and  N_5 
REMARK    2  A    between atoms: N_8  and  C_9 
REMARK    3  A    between atoms: C_12  and  N_13 
REMARK    4  A    between atoms: N_13  and  C_14 
REMARK    5  A    between atoms: C_14  and  N_15 
REMARK       I    between atoms: N_15  and  C_16 
REMARK    6  A    between atoms: C_16  and  C_17 
REMARK    7  A    between atoms: C_18  and  O_19 
ROOT
HETATM    1  C   UNL     1      24.633  46.020  50.721  1.00  0.00     0.030 A 
HETATM    2  C   UNL     1      24.013  44.858  50.234  1.00  0.00     0.031 A 
HETATM    3  C   UNL     1      23.074  44.899  49.188  1.00  0.00     0.032 A 
HETATM    4  C   UNL     1      22.701  46.117  48.622  1.00  0.00     0.034 A 
HETATM    5  C   UNL     1      23.371  47.264  49.032  1.00  0.00     0.032 A 
HETATM    6  C   UNL     1      24.313  47.215  50.064  1.00  0.00     0.031 A 
ENDROOT
BRANCH   4   7
HETATM    7  N   UNL     1      21.692  46.124  47.636  1.00  0.00    -0.333 N 
HETATM    8  H   UNL     1      21.998  45.977  46.674  1.00  0.00     0.168 HD
BRANCH   7   9
HETATM    9  C   UNL     1      20.324  46.131  47.790  1.00  0.00     0.179 C 
HETATM   10  S   UNL     1      19.221  44.904  47.497  1.00  0.00    -0.040 SA
BRANCH   9  11
HETATM   11  N   UNL     1      19.785  47.319  48.234  1.00  0.00    -0.299 N 
HETATM   12  C   UNL     1      19.197  48.355  47.525  1.00  0.00     0.260 C 
HETATM   13  O   UNL     1      18.720  48.219  46.400  1.00  0.00    -0.267 OA
HETATM   14  H   UNL     1      20.039  47.522  49.194  1.00  0.00     0.171 HD
BRANCH  12  15
HETATM   15  C   UNL     1      19.068  49.650  48.267  1.00  0.00     0.065 A 
HETATM   16  C   UNL     1      20.137  50.556  48.425  1.00  0.00     0.084 A 
HETATM   17  C   UNL     1      19.938  51.735  49.151  1.00  0.00     0.038 A 
HETATM   18  C   UNL     1      18.685  52.027  49.696  1.00  0.00     0.003 A 
HETATM   19  C   UNL     1      17.622  51.145  49.520  1.00  0.00     0.001 A 
HETATM   20  C   UNL     1      17.810  49.961  48.805  1.00  0.00     0.020 A 
BRANCH  16  21
HETATM   21  O   UNL     1      21.350  50.211  47.884  1.00  0.00    -0.355 OA
HETATM   22  C   UNL     1      22.505  50.841  48.432  1.00  0.00     0.210 C 
ENDBRANCH  16  21
ENDBRANCH  12  15
ENDBRANCH   9  11
ENDBRANCH   7   9
ENDBRANCH   4   7
BRANCH   1  23
HETATM   23  N   UNL     1      25.448  45.979  51.855  1.00  0.00    -0.378 N 
HETATM   24  C   UNL     1      25.529  47.184  52.705  1.00  0.00     0.143 C 
HETATM   25  C   UNL     1      26.033  46.823  54.107  1.00  0.00     0.146 C 
HETATM   26  N   UNL     1      27.262  46.028  54.099  1.00  0.00    -0.345 N 
HETATM   27  C   UNL     1      28.037  46.085  55.256  1.00  0.00     0.254 C 
HETATM   28  C   UNL     1      27.285  44.911  53.140  1.00  0.00     0.146 C 
HETATM   29  O   UNL     1      27.904  46.941  56.127  1.00  0.00    -0.267 OA
HETATM   30  C   UNL     1      26.747  45.283  51.739  1.00  0.00     0.143 C 
BRANCH  27  31
HETATM   31  C   UNL     1      29.085  45.069  55.465  1.00  0.00     0.038 A 
HETATM   32  C   UNL     1      29.920  45.088  56.596  1.00  0.00    -0.046 A 
HETATM   33  C   UNL     1      29.777  46.096  57.699  1.00  0.00     0.049 C 
HETATM   34  C   UNL     1      30.915  44.104  56.700  1.00  0.00     0.007 A 
HETATM   35  C   UNL     1      31.099  43.161  55.685  1.00  0.00     0.001 A 
HETATM   36  C   UNL     1      30.287  43.180  54.552  1.00  0.00     0.001 A 
HETATM   37  C   UNL     1      29.279  44.135  54.439  1.00  0.00     0.017 A 
ENDBRANCH  27  31
ENDBRANCH   1  23
TORSDOF 7
ENDMDL
