MODEL 1
REMARK VINA RESULT:     -11.3      0.000      0.000
REMARK  8 active torsions:
REMARK  status: ('A' for Active; 'I' for Inactive)
REMARK    1  A    between atoms: C_6  and  N_7 
REMARK       I    between atoms: N_7  and  C_8 
REMARK    2  A    between atoms: C_8  and  C_9 
REMARK    3  A    between atoms: C_9  and  N_10 
REMARK    4  A    between atoms: N_14  and  C_15 
REMARK    5  A    between atoms: C_17  and  N_18 
REMARK    6  A    between atoms: N_18  and  C_19 
REMARK    7  A    between atoms: C_26  and  N_27 
REMARK    8  A    between atoms: N_27  and  C_28 
ROOT
HETATM    1  C   UNL     1      27.118  44.071  52.080  1.00  0.00     0.756 A 
HETATM    2  N   UNL     1      26.836  42.896  51.547  1.00  0.00     0.131 NA
HETATM    3  C   UNL     1      27.678  41.907  51.838  1.00  0.00     0.758 A 
HETATM    4  N   UNL     1      28.737  42.044  52.628  1.00  0.00     0.131 NA
HETATM    5  C   UNL     1      28.955  43.259  53.111  1.00  0.00     0.758 A 
HETATM    6  N   UNL     1      28.189  44.300  52.819  1.00  0.00     0.131 NA
ENDROOT
BRANCH   1   7
HETATM    7  N   UNL     1      26.251  45.143  51.892  1.00  0.00    -0.210 N 
HETATM    8  C   UNL     1      24.843  44.915  52.239  1.00  0.00     0.169 C 
HETATM    9  C   UNL     1      24.006  44.454  51.030  1.00  0.00     0.256 C 
HETATM   10  N   UNL     1      24.230  45.435  49.870  1.00  0.00    -0.060 N 
HETATM   11  H   UNL     1      24.063  46.373  50.252  1.00  0.00     0.280 HD
HETATM   12  C   UNL     1      25.707  45.408  49.471  1.00  0.00     0.256 C 
HETATM   13  C   UNL     1      26.549  45.909  50.672  1.00  0.00     0.169 C 
BRANCH  10  14
HETATM   14  C   UNL     1      23.260  45.275  48.708  1.00  0.00     0.337 C 
BRANCH  14  15
HETATM   15  C   UNL     1      22.617  46.554  48.156  1.00  0.00     0.248 C 
HETATM   16  N   UNL     1      22.390  47.495  49.151  1.00  0.00    -0.325 N 
HETATM   17  H   UNL     1      22.445  47.166  50.105  1.00  0.00     0.169 HD
HETATM   18  O   UNL     1      22.318  46.638  46.971  1.00  0.00    -0.271 OA
BRANCH  16  19
HETATM   19  C   UNL     1      21.722  48.741  49.011  1.00  0.00     0.046 A 
HETATM   20  C   UNL     1      20.308  48.722  49.138  1.00  0.00    -0.034 A 
HETATM   21  C   UNL     1      19.571  49.905  48.950  1.00  0.00     0.015 A 
HETATM   22  C   UNL     1      19.527  47.466  49.435  1.00  0.00     0.050 C 
HETATM   23  C   UNL     1      20.206  51.111  48.665  1.00  0.00    -0.061 A 
HETATM   24  C   UNL     1      19.410  52.357  48.412  1.00  0.00     0.048 C 
HETATM   25  C   UNL     1      21.600  51.131  48.585  1.00  0.00     0.015 A 
HETATM   26  C   UNL     1      22.374  49.972  48.796  1.00  0.00    -0.034 A 
HETATM   27  C   UNL     1      23.864  50.177  48.837  1.00  0.00     0.050 C 
ENDBRANCH  16  19
ENDBRANCH  14  15
ENDBRANCH  10  14
ENDBRANCH   1   7
BRANCH   3  28
HETATM   28  N   UNL     1      27.447  40.617  51.367  1.00  0.00    -0.187 N 
HETATM   29  H   UNL     1      26.720  40.170  51.909  1.00  0.00     0.184 HD
BRANCH  28  30
HETATM   30  C   UNL     1      28.211  39.758  50.567  1.00  0.00     0.049 A 
HETATM   31  C   UNL     1      29.171  38.880  51.081  1.00  0.00     0.030 A 
HETATM   32  C   UNL     1      29.929  38.062  50.235  1.00  0.00     0.002 A 
HETATM   33  C   UNL     1      29.751  38.131  48.856  1.00  0.00     0.000 A 
HETATM   34  C   UNL     1      28.816  39.015  48.324  1.00  0.00     0.002 A 
HETATM   35  C   UNL     1      28.056  39.822  49.174  1.00  0.00     0.030 A 
ENDBRANCH  28  30
ENDBRANCH   3  28
BRANCH   5  36
HETATM   36  N   UNL     1      30.071  43.402  53.933  1.00  0.00    -0.187 N 
HETATM   37  H   UNL     1      30.800  42.763  53.644  1.00  0.00     0.184 HD
BRANCH  36  38
HETATM   38  C   UNL     1      30.227  43.947  55.216  1.00  0.00     0.049 A 
HETATM   39  C   UNL     1      29.602  45.125  55.643  1.00  0.00     0.030 A 
HETATM   40  C   UNL     1      29.823  45.643  56.924  1.00  0.00     0.002 A 
HETATM   41  C   UNL     1      30.696  44.999  57.796  1.00  0.00     0.000 A 
HETATM   42  C   UNL     1      31.347  43.841  57.385  1.00  0.00     0.002 A 
HETATM   43  C   UNL     1      31.118  43.325  56.105  1.00  0.00     0.030 A 
ENDBRANCH  36  38
ENDBRANCH   5  36
TORSDOF 8
ENDMDL
MODEL 2
REMARK VINA RESULT:     -11.2      0.324      5.472
REMARK  8 active torsions:
REMARK  status: ('A' for Active; 'I' for Inactive)
REMARK    1  A    between atoms: C_6  and  N_7 
REMARK       I    between atoms: N_7  and  C_8 
REMARK    2  A    between atoms: C_8  and  C_9 
REMARK    3  A    between atoms: C_9  and  N_10 
REMARK    4  A    between atoms: N_14  and  C_15 
REMARK    5  A    between atoms: C_17  and  N_18 
REMARK    6  A    between atoms: N_18  and  C_19 
REMARK    7  A    between atoms: C_26  and  N_27 
REMARK    8  A    between atoms: N_27  and  C_28 
ROOT
HETATM    1  C   UNL     1      27.258  44.126  52.263  1.00  0.00     0.756 A 
HETATM    2  N   UNL     1      28.281  44.317  53.078  1.00  0.00     0.131 NA
HETATM    3  C   UNL     1      29.028  43.246  53.336  1.00  0.00     0.758 A 
HETATM    4  N   UNL     1      28.807  42.046  52.811  1.00  0.00     0.131 NA
HETATM    5  C   UNL     1      27.753  41.938  52.015  1.00  0.00     0.758 A 
HETATM    6  N   UNL     1      26.936  42.949  51.759  1.00  0.00     0.131 NA
ENDROOT
BRANCH   1   7
HETATM    7  N   UNL     1      26.469  45.206  51.879  1.00  0.00    -0.210 N 
HETATM    8  C   UNL     1      25.050  45.145  52.253  1.00  0.00     0.169 C 
HETATM    9  C   UNL     1      24.174  44.535  51.142  1.00  0.00     0.256 C 
HETATM   10  N   UNL     1      24.460  45.272  49.825  1.00  0.00    -0.060 N 
HETATM   11  H   UNL     1      24.363  46.273  50.031  1.00  0.00     0.280 HD
HETATM   12  C   UNL     1      25.928  45.069  49.447  1.00  0.00     0.256 C 
HETATM   13  C   UNL     1      26.812  45.716  50.543  1.00  0.00     0.169 C 
BRANCH  10  14
HETATM   14  C   UNL     1      23.473  44.976  48.706  1.00  0.00     0.337 C 
BRANCH  14  15
HETATM   15  C   UNL     1      22.712  46.169  48.114  1.00  0.00     0.248 C 
HETATM   16  N   UNL     1      22.490  47.166  49.054  1.00  0.00    -0.325 N 
HETATM   17  H   UNL     1      22.631  46.912  50.023  1.00  0.00     0.169 HD
HETATM   18  O   UNL     1      22.328  46.147  46.950  1.00  0.00    -0.271 OA
BRANCH  16  19
HETATM   19  C   UNL     1      21.734  48.355  48.876  1.00  0.00     0.046 A 
HETATM   20  C   UNL     1      22.464  49.532  48.561  1.00  0.00    -0.034 A 
HETATM   21  C   UNL     1      21.793  50.760  48.432  1.00  0.00     0.015 A 
HETATM   22  C   UNL     1      23.962  49.545  48.386  1.00  0.00     0.050 C 
HETATM   23  C   UNL     1      20.411  50.844  48.584  1.00  0.00    -0.061 A 
HETATM   24  C   UNL     1      19.708  52.167  48.499  1.00  0.00     0.048 C 
HETATM   25  C   UNL     1      19.694  49.676  48.850  1.00  0.00     0.015 A 
HETATM   26  C   UNL     1      20.329  48.422  48.958  1.00  0.00    -0.034 A 
HETATM   27  C   UNL     1      19.415  47.234  49.088  1.00  0.00     0.050 C 
ENDBRANCH  16  19
ENDBRANCH  14  15
ENDBRANCH  10  14
ENDBRANCH   1   7
BRANCH   3  28
HETATM   28  N   UNL     1      30.157  43.347  54.144  1.00  0.00    -0.187 N 
HETATM   29  H   UNL     1      30.868  42.697  53.835  1.00  0.00     0.184 HD
BRANCH  28  30
HETATM   30  C   UNL     1      30.354  43.889  55.420  1.00  0.00     0.049 A 
HETATM   31  C   UNL     1      29.798  45.104  55.834  1.00  0.00     0.030 A 
HETATM   32  C   UNL     1      30.050  45.616  57.111  1.00  0.00     0.002 A 
HETATM   33  C   UNL     1      30.884  44.926  57.987  1.00  0.00     0.000 A 
HETATM   34  C   UNL     1      31.465  43.726  57.585  1.00  0.00     0.002 A 
HETATM   35  C   UNL     1      31.202  43.216  56.312  1.00  0.00     0.030 A 
ENDBRANCH  28  30
ENDBRANCH   3  28
BRANCH   5  36
HETATM   36  N   UNL     1      27.520  40.676  51.473  1.00  0.00    -0.187 N 
HETATM   37  H   UNL     1      26.881  40.158  52.061  1.00  0.00     0.184 HD
BRANCH  36  38
HETATM   38  C   UNL     1      28.238  39.907  50.544  1.00  0.00     0.049 A 
HETATM   39  C   UNL     1      28.103  40.034  49.157  1.00  0.00     0.030 A 
HETATM   40  C   UNL     1      28.819  39.214  48.278  1.00  0.00     0.002 A 
HETATM   41  C   UNL     1      29.669  38.232  48.775  1.00  0.00     0.000 A 
HETATM   42  C   UNL     1      29.799  38.070  50.151  1.00  0.00     0.002 A 
HETATM   43  C   UNL     1      29.086  38.896  51.024  1.00  0.00     0.030 A 
ENDBRANCH  36  38
ENDBRANCH   5  36
TORSDOF 8
ENDMDL
MODEL 3
REMARK VINA RESULT:     -11.1      2.985     11.813
REMARK  8 active torsions:
REMARK  status: ('A' for Active; 'I' for Inactive)
REMARK    1  A    between atoms: C_6  and  N_7 
REMARK       I    between atoms: N_7  and  C_8 
REMARK    2  A    between atoms: C_8  and  C_9 
REMARK    3  A    between atoms: C_9  and  N_10 
REMARK    4  A    between atoms: N_14  and  C_15 
REMARK    5  A    between atoms: C_17  and  N_18 
REMARK    6  A    between atoms: N_18  and  C_19 
REMARK    7  A    between atoms: C_26  and  N_27 
REMARK    8  A    between atoms: N_27  and  C_28 
ROOT
HETATM    1  C   UNL     1      23.951  47.538  49.464  1.00  0.00     0.756 A 
HETATM    2  N   UNL     1      23.547  48.735  49.853  1.00  0.00     0.131 NA
HETATM    3  C   UNL     1      22.312  49.077  49.493  1.00  0.00     0.758 A 
HETATM    4  N   UNL     1      21.495  48.287  48.806  1.00  0.00     0.131 NA
HETATM    5  C   UNL     1      21.984  47.109  48.445  1.00  0.00     0.758 A 
HETATM    6  N   UNL     1      23.222  46.726  48.721  1.00  0.00     0.131 NA
ENDROOT
BRANCH   1   7
HETATM    7  N   UNL     1      25.200  47.068  49.859  1.00  0.00    -0.210 N 
HETATM    8  C   UNL     1      25.616  45.772  49.308  1.00  0.00     0.169 C 
HETATM    9  C   UNL     1      25.249  44.595  50.230  1.00  0.00     0.256 C 
HETATM   10  N   UNL     1      25.774  44.889  51.643  1.00  0.00    -0.060 N 
HETATM   11  H   UNL     1      26.765  45.135  51.533  1.00  0.00     0.280 HD
HETATM   12  C   UNL     1      25.093  46.150  52.177  1.00  0.00     0.256 C 
HETATM   13  C   UNL     1      25.492  47.344  51.274  1.00  0.00     0.169 C 
BRANCH  10  14
HETATM   14  C   UNL     1      25.739  43.701  52.593  1.00  0.00     0.337 C 
BRANCH  14  15
HETATM   15  C   UNL     1      26.541  43.825  53.894  1.00  0.00     0.248 C 
HETATM   16  N   UNL     1      27.863  44.178  53.662  1.00  0.00    -0.325 N 
HETATM   17  H   UNL     1      28.195  44.085  52.710  1.00  0.00     0.169 HD
HETATM   18  O   UNL     1      26.019  43.571  54.973  1.00  0.00    -0.271 OA
BRANCH  16  19
HETATM   19  C   UNL     1      28.903  44.280  54.624  1.00  0.00     0.046 A 
HETATM   20  C   UNL     1      29.843  43.216  54.659  1.00  0.00    -0.034 A 
HETATM   21  C   UNL     1      30.863  43.214  55.626  1.00  0.00     0.015 A 
HETATM   22  C   UNL     1      29.786  42.040  53.716  1.00  0.00     0.050 C 
HETATM   23  C   UNL     1      30.989  44.255  56.542  1.00  0.00    -0.061 A 
HETATM   24  C   UNL     1      32.047  44.220  57.605  1.00  0.00     0.048 C 
HETATM   25  C   UNL     1      30.088  45.320  56.474  1.00  0.00     0.015 A 
HETATM   26  C   UNL     1      29.069  45.371  55.501  1.00  0.00    -0.034 A 
HETATM   27  C   UNL     1      28.277  46.649  55.447  1.00  0.00     0.050 C 
ENDBRANCH  16  19
ENDBRANCH  14  15
ENDBRANCH  10  14
ENDBRANCH   1   7
BRANCH   3  28
HETATM   28  N   UNL     1      21.770  50.297  49.890  1.00  0.00    -0.187 N 
HETATM   29  H   UNL     1      22.267  50.656  50.695  1.00  0.00     0.184 HD
BRANCH  28  30
HETATM   30  C   UNL     1      20.539  50.910  49.625  1.00  0.00     0.049 A 
HETATM   31  C   UNL     1      19.375  50.643  50.352  1.00  0.00     0.030 A 
HETATM   32  C   UNL     1      18.162  51.262  50.027  1.00  0.00     0.002 A 
HETATM   33  C   UNL     1      18.096  52.141  48.949  1.00  0.00     0.000 A 
HETATM   34  C   UNL     1      19.239  52.402  48.199  1.00  0.00     0.002 A 
HETATM   35  C   UNL     1      20.448  51.788  48.535  1.00  0.00     0.030 A 
ENDBRANCH  28  30
ENDBRANCH   3  28
BRANCH   5  36
HETATM   36  N   UNL     1      21.127  46.286  47.717  1.00  0.00    -0.187 N 
HETATM   37  H   UNL     1      21.660  45.600  47.200  1.00  0.00     0.184 HD
BRANCH  36  38
HETATM   38  C   UNL     1      19.798  46.452  47.299  1.00  0.00     0.049 A 
HETATM   39  C   UNL     1      19.428  47.119  46.124  1.00  0.00     0.030 A 
HETATM   40  C   UNL     1      18.083  47.286  45.776  1.00  0.00     0.002 A 
HETATM   41  C   UNL     1      17.080  46.807  46.612  1.00  0.00     0.000 A 
HETATM   42  C   UNL     1      17.423  46.165  47.797  1.00  0.00     0.002 A 
HETATM   43  C   UNL     1      18.769  45.995  48.138  1.00  0.00     0.030 A 
ENDBRANCH  36  38
ENDBRANCH   5  36
TORSDOF 8
ENDMDL
MODEL 4
REMARK VINA RESULT:     -11.0      1.032      5.113
REMARK  8 active torsions:
REMARK  status: ('A' for Active; 'I' for Inactive)
REMARK    1  A    between atoms: C_6  and  N_7 
REMARK       I    between atoms: N_7  and  C_8 
REMARK    2  A    between atoms: C_8  and  C_9 
REMARK    3  A    between atoms: C_9  and  N_10 
REMARK    4  A    between atoms: N_14  and  C_15 
REMARK    5  A    between atoms: C_17  and  N_18 
REMARK    6  A    between atoms: N_18  and  C_19 
REMARK    7  A    between atoms: C_26  and  N_27 
REMARK    8  A    between atoms: N_27  and  C_28 
ROOT
HETATM    1  C   UNL     1      26.914  43.907  50.800  1.00  0.00     0.756 A 
HETATM    2  N   UNL     1      27.170  44.626  51.878  1.00  0.00     0.131 NA
HETATM    3  C   UNL     1      27.637  43.954  52.928  1.00  0.00     0.758 A 
HETATM    4  N   UNL     1      27.867  42.646  52.928  1.00  0.00     0.131 NA
HETATM    5  C   UNL     1      27.571  41.998  51.810  1.00  0.00     0.758 A 
HETATM    6  N   UNL     1      27.052  42.594  50.746  1.00  0.00     0.131 NA
ENDROOT
BRANCH   1   7
HETATM    7  N   UNL     1      26.495  44.537  49.632  1.00  0.00    -0.210 N 
HETATM    8  C   UNL     1      26.094  45.944  49.755  1.00  0.00     0.169 C 
HETATM    9  C   UNL     1      24.581  46.107  49.992  1.00  0.00     0.256 C 
HETATM   10  N   UNL     1      23.823  45.315  48.916  1.00  0.00    -0.060 N 
HETATM   11  H   UNL     1      24.212  45.615  48.015  1.00  0.00     0.280 HD
HETATM   12  C   UNL     1      24.175  43.832  49.046  1.00  0.00     0.256 C 
HETATM   13  C   UNL     1      25.689  43.660  48.769  1.00  0.00     0.169 C 
BRANCH  10  14
HETATM   14  C   UNL     1      22.332  45.607  48.847  1.00  0.00     0.337 C 
BRANCH  14  15
HETATM   15  C   UNL     1      21.913  46.973  48.290  1.00  0.00     0.248 C 
HETATM   16  N   UNL     1      21.367  47.792  49.269  1.00  0.00    -0.325 N 
HETATM   17  H   UNL     1      21.098  47.342  50.135  1.00  0.00     0.169 HD
HETATM   18  O   UNL     1      22.029  47.220  47.095  1.00  0.00    -0.271 OA
BRANCH  16  19
HETATM   19  C   UNL     1      20.786  49.075  49.084  1.00  0.00     0.046 A 
HETATM   20  C   UNL     1      19.382  49.170  49.272  1.00  0.00    -0.034 A 
HETATM   21  C   UNL     1      18.726  50.393  49.046  1.00  0.00     0.015 A 
HETATM   22  C   UNL     1      18.526  47.995  49.676  1.00  0.00     0.050 C 
HETATM   23  C   UNL     1      19.433  51.530  48.663  1.00  0.00    -0.061 A 
HETATM   24  C   UNL     1      18.720  52.816  48.371  1.00  0.00     0.048 C 
HETATM   25  C   UNL     1      20.820  51.439  48.523  1.00  0.00     0.015 A 
HETATM   26  C   UNL     1      21.516  50.238  48.769  1.00  0.00    -0.034 A 
HETATM   27  C   UNL     1      23.017  50.332  48.734  1.00  0.00     0.050 C 
ENDBRANCH  16  19
ENDBRANCH  14  15
ENDBRANCH  10  14
ENDBRANCH   1   7
BRANCH   3  28
HETATM   28  N   UNL     1      27.984  44.621  54.100  1.00  0.00    -0.187 N 
HETATM   29  H   UNL     1      27.477  45.494  54.169  1.00  0.00     0.184 HD
BRANCH  28  30
HETATM   30  C   UNL     1      29.076  44.492  54.968  1.00  0.00     0.049 A 
HETATM   31  C   UNL     1      29.960  43.408  54.935  1.00  0.00     0.030 A 
HETATM   32  C   UNL     1      31.020  43.313  55.843  1.00  0.00     0.002 A 
HETATM   33  C   UNL     1      31.194  44.293  56.816  1.00  0.00     0.000 A 
HETATM   34  C   UNL     1      30.311  45.368  56.880  1.00  0.00     0.002 A 
HETATM   35  C   UNL     1      29.261  45.462  55.963  1.00  0.00     0.030 A 
ENDBRANCH  28  30
ENDBRANCH   3  28
BRANCH   5  36
HETATM   36  N   UNL     1      27.806  40.625  51.815  1.00  0.00    -0.187 N 
HETATM   37  H   UNL     1      27.693  40.256  52.750  1.00  0.00     0.184 HD
BRANCH  36  38
HETATM   38  C   UNL     1      28.485  39.786  50.919  1.00  0.00     0.049 A 
HETATM   39  C   UNL     1      28.174  39.685  49.558  1.00  0.00     0.030 A 
HETATM   40  C   UNL     1      28.862  38.803  48.717  1.00  0.00     0.002 A 
HETATM   41  C   UNL     1      29.864  37.987  49.232  1.00  0.00     0.000 A 
HETATM   42  C   UNL     1      30.174  38.052  50.586  1.00  0.00     0.002 A 
HETATM   43  C   UNL     1      29.486  38.938  51.421  1.00  0.00     0.030 A 
ENDBRANCH  36  38
ENDBRANCH   5  36
TORSDOF 8
ENDMDL
MODEL 5
REMARK VINA RESULT:     -10.9      1.367      5.458
REMARK  8 active torsions:
REMARK  status: ('A' for Active; 'I' for Inactive)
REMARK    1  A    between atoms: C_6  and  N_7 
REMARK       I    between atoms: N_7  and  C_8 
REMARK    2  A    between atoms: C_8  and  C_9 
REMARK    3  A    between atoms: C_9  and  N_10 
REMARK    4  A    between atoms: N_14  and  C_15 
REMARK    5  A    between atoms: C_17  and  N_18 
REMARK    6  A    between atoms: N_18  and  C_19 
REMARK    7  A    between atoms: C_26  and  N_27 
REMARK    8  A    between atoms: N_27  and  C_28 
ROOT
HETATM    1  C   UNL     1      26.725  43.945  50.636  1.00  0.00     0.756 A 
HETATM    2  N   UNL     1      26.954  44.496  51.815  1.00  0.00     0.131 NA
HETATM    3  C   UNL     1      27.296  43.660  52.792  1.00  0.00     0.758 A 
HETATM    4  N   UNL     1      27.432  42.349  52.631  1.00  0.00     0.131 NA
HETATM    5  C   UNL     1      27.171  41.876  51.420  1.00  0.00     0.758 A 
HETATM    6  N   UNL     1      26.773  42.644  50.416  1.00  0.00     0.131 NA
ENDROOT
BRANCH   1   7
HETATM    7  N   UNL     1      26.436  44.752  49.540  1.00  0.00    -0.210 N 
HETATM    8  C   UNL     1      27.032  46.094  49.539  1.00  0.00     0.169 C 
HETATM    9  C   UNL     1      26.095  47.154  50.147  1.00  0.00     0.256 C 
HETATM   10  N   UNL     1      24.726  47.059  49.456  1.00  0.00    -0.060 N 
HETATM   11  H   UNL     1      24.912  47.091  48.447  1.00  0.00     0.280 HD
HETATM   12  C   UNL     1      24.127  45.677  49.723  1.00  0.00     0.256 C 
HETATM   13  C   UNL     1      25.047  44.610  49.078  1.00  0.00     0.169 C 
BRANCH  10  14
HETATM   14  C   UNL     1      23.788  48.221  49.747  1.00  0.00     0.337 C 
BRANCH  14  15
HETATM   15  C   UNL     1      22.541  48.348  48.863  1.00  0.00     0.248 C 
HETATM   16  N   UNL     1      21.386  48.532  49.612  1.00  0.00    -0.325 N 
HETATM   17  H   UNL     1      21.454  48.333  50.602  1.00  0.00     0.169 HD
HETATM   18  O   UNL     1      22.626  48.235  47.646  1.00  0.00    -0.271 OA
BRANCH  16  19
HETATM   19  C   UNL     1      20.052  48.586  49.127  1.00  0.00     0.046 A 
HETATM   20  C   UNL     1      19.478  49.877  48.988  1.00  0.00    -0.034 A 
HETATM   21  C   UNL     1      18.141  50.009  48.574  1.00  0.00     0.015 A 
HETATM   22  C   UNL     1      20.229  51.148  49.301  1.00  0.00     0.050 C 
HETATM   23  C   UNL     1      17.368  48.891  48.270  1.00  0.00    -0.061 A 
HETATM   24  C   UNL     1      15.927  49.037  47.882  1.00  0.00     0.048 C 
HETATM   25  C   UNL     1      17.953  47.627  48.367  1.00  0.00     0.015 A 
HETATM   26  C   UNL     1      19.299  47.457  48.751  1.00  0.00    -0.034 A 
HETATM   27  C   UNL     1      19.835  46.054  48.657  1.00  0.00     0.050 C 
ENDBRANCH  16  19
ENDBRANCH  14  15
ENDBRANCH  10  14
ENDBRANCH   1   7
BRANCH   3  28
HETATM   28  N   UNL     1      27.604  44.141  54.062  1.00  0.00    -0.187 N 
HETATM   29  H   UNL     1      26.871  44.755  54.392  1.00  0.00     0.184 HD
BRANCH  28  30
HETATM   30  C   UNL     1      28.808  44.209  54.774  1.00  0.00     0.049 A 
HETATM   31  C   UNL     1      29.721  43.152  54.844  1.00  0.00     0.030 A 
HETATM   32  C   UNL     1      30.898  43.261  55.594  1.00  0.00     0.002 A 
HETATM   33  C   UNL     1      31.164  44.428  56.305  1.00  0.00     0.000 A 
HETATM   34  C   UNL     1      30.257  45.484  56.266  1.00  0.00     0.002 A 
HETATM   35  C   UNL     1      29.089  45.371  55.508  1.00  0.00     0.030 A 
ENDBRANCH  28  30
ENDBRANCH   3  28
BRANCH   5  36
HETATM   36  N   UNL     1      27.306  40.499  51.256  1.00  0.00    -0.187 N 
HETATM   37  H   UNL     1      26.847  40.012  52.014  1.00  0.00     0.184 HD
BRANCH  36  38
HETATM   38  C   UNL     1      28.209  39.728  50.509  1.00  0.00     0.049 A 
HETATM   39  C   UNL     1      28.172  39.620  49.113  1.00  0.00     0.030 A 
HETATM   40  C   UNL     1      29.077  38.806  48.422  1.00  0.00     0.002 A 
HETATM   41  C   UNL     1      30.024  38.065  49.122  1.00  0.00     0.000 A 
HETATM   42  C   UNL     1      30.063  38.137  50.510  1.00  0.00     0.002 A 
HETATM   43  C   UNL     1      29.161  38.956  51.195  1.00  0.00     0.030 A 
ENDBRANCH  36  38
ENDBRANCH   5  36
TORSDOF 8
ENDMDL
MODEL 6
REMARK VINA RESULT:     -10.7      1.465      2.374
REMARK  8 active torsions:
REMARK  status: ('A' for Active; 'I' for Inactive)
REMARK    1  A    between atoms: C_6  and  N_7 
REMARK       I    between atoms: N_7  and  C_8 
REMARK    2  A    between atoms: C_8  and  C_9 
REMARK    3  A    between atoms: C_9  and  N_10 
REMARK    4  A    between atoms: N_14  and  C_15 
REMARK    5  A    between atoms: C_17  and  N_18 
REMARK    6  A    between atoms: N_18  and  C_19 
REMARK    7  A    between atoms: C_26  and  N_27 
REMARK    8  A    between atoms: N_27  and  C_28 
ROOT
HETATM    1  C   UNL     1      25.896  43.717  51.557  1.00  0.00     0.756 A 
HETATM    2  N   UNL     1      26.125  43.071  50.427  1.00  0.00     0.131 NA
HETATM    3  C   UNL     1      27.200  42.287  50.413  1.00  0.00     0.758 A 
HETATM    4  N   UNL     1      28.008  42.118  51.454  1.00  0.00     0.131 NA
HETATM    5  C   UNL     1      27.714  42.813  52.543  1.00  0.00     0.758 A 
HETATM    6  N   UNL     1      26.691  43.653  52.610  1.00  0.00     0.131 NA
ENDROOT
BRANCH   1   7
HETATM    7  N   UNL     1      24.753  44.500  51.687  1.00  0.00    -0.210 N 
HETATM    8  C   UNL     1      23.811  44.475  50.561  1.00  0.00     0.169 C 
HETATM    9  C   UNL     1      24.070  45.608  49.550  1.00  0.00     0.256 C 
HETATM   10  N   UNL     1      24.130  46.943  50.308  1.00  0.00    -0.060 N 
HETATM   11  H   UNL     1      23.279  46.984  50.881  1.00  0.00     0.280 HD
HETATM   12  C   UNL     1      25.295  46.904  51.298  1.00  0.00     0.256 C 
HETATM   13  C   UNL     1      25.018  45.791  52.339  1.00  0.00     0.169 C 
BRANCH  10  14
HETATM   14  C   UNL     1      24.096  48.178  49.420  1.00  0.00     0.337 C 
BRANCH  14  15
HETATM   15  C   UNL     1      22.787  48.466  48.674  1.00  0.00     0.248 C 
HETATM   16  N   UNL     1      21.690  48.457  49.524  1.00  0.00    -0.325 N 
HETATM   17  H   UNL     1      21.830  48.049  50.439  1.00  0.00     0.169 HD
HETATM   18  O   UNL     1      22.784  48.622  47.459  1.00  0.00    -0.271 OA
BRANCH  16  19
HETATM   19  C   UNL     1      20.323  48.585  49.157  1.00  0.00     0.046 A 
HETATM   20  C   UNL     1      19.798  49.903  49.110  1.00  0.00    -0.034 A 
HETATM   21  C   UNL     1      18.439  50.106  48.816  1.00  0.00     0.015 A 
HETATM   22  C   UNL     1      20.630  51.128  49.400  1.00  0.00     0.050 C 
HETATM   23  C   UNL     1      17.593  49.034  48.542  1.00  0.00    -0.061 A 
HETATM   24  C   UNL     1      16.133  49.254  48.283  1.00  0.00     0.048 C 
HETATM   25  C   UNL     1      18.126  47.744  48.546  1.00  0.00     0.015 A 
HETATM   26  C   UNL     1      19.491  47.502  48.808  1.00  0.00    -0.034 A 
HETATM   27  C   UNL     1      19.953  46.083  48.622  1.00  0.00     0.050 C 
ENDBRANCH  16  19
ENDBRANCH  14  15
ENDBRANCH  10  14
ENDBRANCH   1   7
BRANCH   3  28
HETATM   28  N   UNL     1      27.507  41.525  49.289  1.00  0.00    -0.187 N 
HETATM   29  H   UNL     1      27.261  42.028  48.446  1.00  0.00     0.184 HD
BRANCH  28  30
HETATM   30  C   UNL     1      27.752  40.156  49.119  1.00  0.00     0.049 A 
HETATM   31  C   UNL     1      29.003  39.637  48.771  1.00  0.00     0.030 A 
HETATM   32  C   UNL     1      29.189  38.262  48.585  1.00  0.00     0.002 A 
HETATM   33  C   UNL     1      28.113  37.389  48.724  1.00  0.00     0.000 A 
HETATM   34  C   UNL     1      26.855  37.889  49.048  1.00  0.00     0.002 A 
HETATM   35  C   UNL     1      26.679  39.262  49.241  1.00  0.00     0.030 A 
ENDBRANCH  28  30
ENDBRANCH   3  28
BRANCH   5  36
HETATM   36  N   UNL     1      28.567  42.640  53.631  1.00  0.00    -0.187 N 
HETATM   37  H   UNL     1      28.518  41.686  53.964  1.00  0.00     0.184 HD
BRANCH  36  38
HETATM   38  C   UNL     1      29.150  43.555  54.520  1.00  0.00     0.049 A 
HETATM   39  C   UNL     1      28.595  44.803  54.829  1.00  0.00     0.030 A 
HETATM   40  C   UNL     1      29.240  45.691  55.696  1.00  0.00     0.002 A 
HETATM   41  C   UNL     1      30.469  45.354  56.254  1.00  0.00     0.000 A 
HETATM   42  C   UNL     1      31.052  44.130  55.942  1.00  0.00     0.002 A 
HETATM   43  C   UNL     1      30.401  43.244  55.079  1.00  0.00     0.030 A 
ENDBRANCH  36  38
ENDBRANCH   5  36
TORSDOF 8
ENDMDL
MODEL 7
REMARK VINA RESULT:     -10.6      1.272      5.585
REMARK  8 active torsions:
REMARK  status: ('A' for Active; 'I' for Inactive)
REMARK    1  A    between atoms: C_6  and  N_7 
REMARK       I    between atoms: N_7  and  C_8 
REMARK    2  A    between atoms: C_8  and  C_9 
REMARK    3  A    between atoms: C_9  and  N_10 
REMARK    4  A    between atoms: N_14  and  C_15 
REMARK    5  A    between atoms: C_17  and  N_18 
REMARK    6  A    between atoms: N_18  and  C_19 
REMARK    7  A    between atoms: C_26  and  N_27 
REMARK    8  A    between atoms: N_27  and  C_28 
ROOT
HETATM    1  C   UNL     1      26.623  43.721  52.425  1.00  0.00     0.756 A 
HETATM    2  N   UNL     1      27.661  44.216  53.075  1.00  0.00     0.131 NA
HETATM    3  C   UNL     1      28.673  43.377  53.282  1.00  0.00     0.758 A 
HETATM    4  N   UNL     1      28.689  42.118  52.860  1.00  0.00     0.131 NA
HETATM    5  C   UNL     1      27.603  41.697  52.228  1.00  0.00     0.758 A 
HETATM    6  N   UNL     1      26.538  42.461  52.036  1.00  0.00     0.131 NA
ENDROOT
BRANCH   1   7
HETATM    7  N   UNL     1      25.552  44.547  52.099  1.00  0.00    -0.210 N 
HETATM    8  C   UNL     1      25.111  44.525  50.698  1.00  0.00     0.169 C 
HETATM    9  C   UNL     1      25.786  45.621  49.852  1.00  0.00     0.256 C 
HETATM   10  N   UNL     1      25.609  46.973  50.559  1.00  0.00    -0.060 N 
HETATM   11  H   UNL     1      24.606  47.059  50.763  1.00  0.00     0.280 HD
HETATM   12  C   UNL     1      26.304  46.919  51.920  1.00  0.00     0.256 C 
HETATM   13  C   UNL     1      25.603  45.845  52.789  1.00  0.00     0.169 C 
BRANCH  10  14
HETATM   14  C   UNL     1      25.971  48.184  49.712  1.00  0.00     0.337 C 
BRANCH  14  15
HETATM   15  C   UNL     1      24.830  48.868  48.950  1.00  0.00     0.248 C 
HETATM   16  N   UNL     1      23.583  48.410  49.354  1.00  0.00    -0.325 N 
HETATM   17  H   UNL     1      23.570  47.557  49.898  1.00  0.00     0.169 HD
HETATM   18  O   UNL     1      25.071  49.677  48.062  1.00  0.00    -0.271 OA
BRANCH  16  19
HETATM   19  C   UNL     1      22.324  48.751  48.792  1.00  0.00     0.046 A 
HETATM   20  C   UNL     1      21.700  47.766  47.983  1.00  0.00    -0.034 A 
HETATM   21  C   UNL     1      20.483  48.052  47.342  1.00  0.00     0.015 A 
HETATM   22  C   UNL     1      22.303  46.405  47.736  1.00  0.00     0.050 C 
HETATM   23  C   UNL     1      19.856  49.285  47.505  1.00  0.00    -0.061 A 
HETATM   24  C   UNL     1      18.585  49.604  46.775  1.00  0.00     0.048 C 
HETATM   25  C   UNL     1      20.452  50.234  48.338  1.00  0.00     0.015 A 
HETATM   26  C   UNL     1      21.658  49.972  49.021  1.00  0.00    -0.034 A 
HETATM   27  C   UNL     1      22.096  51.024  50.004  1.00  0.00     0.050 C 
ENDBRANCH  16  19
ENDBRANCH  14  15
ENDBRANCH  10  14
ENDBRANCH   1   7
BRANCH   3  28
HETATM   28  N   UNL     1      29.835  43.810  53.915  1.00  0.00    -0.187 N 
HETATM   29  H   UNL     1      30.648  43.548  53.373  1.00  0.00     0.184 HD
BRANCH  28  30
HETATM   30  C   UNL     1      30.096  44.205  55.233  1.00  0.00     0.049 A 
HETATM   31  C   UNL     1      29.574  45.371  55.804  1.00  0.00     0.030 A 
HETATM   32  C   UNL     1      29.888  45.736  57.117  1.00  0.00     0.002 A 
HETATM   33  C   UNL     1      30.753  44.947  57.872  1.00  0.00     0.000 A 
HETATM   34  C   UNL     1      31.301  43.795  57.314  1.00  0.00     0.002 A 
HETATM   35  C   UNL     1      30.975  43.431  56.005  1.00  0.00     0.030 A 
ENDBRANCH  28  30
ENDBRANCH   3  28
BRANCH   5  36
HETATM   36  N   UNL     1      27.619  40.373  51.794  1.00  0.00    -0.187 N 
HETATM   37  H   UNL     1      27.284  39.763  52.526  1.00  0.00     0.184 HD
BRANCH  36  38
HETATM   38  C   UNL     1      28.314  39.736  50.754  1.00  0.00     0.049 A 
HETATM   39  C   UNL     1      29.262  38.725  50.954  1.00  0.00     0.030 A 
HETATM   40  C   UNL     1      29.950  38.151  49.881  1.00  0.00     0.002 A 
HETATM   41  C   UNL     1      29.718  38.596  48.584  1.00  0.00     0.000 A 
HETATM   42  C   UNL     1      28.800  39.617  48.362  1.00  0.00     0.002 A 
HETATM   43  C   UNL     1      28.110  40.184  49.438  1.00  0.00     0.030 A 
ENDBRANCH  36  38
ENDBRANCH   5  36
TORSDOF 8
ENDMDL
MODEL 8
REMARK VINA RESULT:     -10.5      1.569      2.107
REMARK  8 active torsions:
REMARK  status: ('A' for Active; 'I' for Inactive)
REMARK    1  A    between atoms: C_6  and  N_7 
REMARK       I    between atoms: N_7  and  C_8 
REMARK    2  A    between atoms: C_8  and  C_9 
REMARK    3  A    between atoms: C_9  and  N_10 
REMARK    4  A    between atoms: N_14  and  C_15 
REMARK    5  A    between atoms: C_17  and  N_18 
REMARK    6  A    between atoms: N_18  and  C_19 
REMARK    7  A    between atoms: C_26  and  N_27 
REMARK    8  A    between atoms: N_27  and  C_28 
ROOT
HETATM    1  C   UNL     1      27.013  43.958  50.597  1.00  0.00     0.756 A 
HETATM    2  N   UNL     1      27.104  42.655  50.402  1.00  0.00     0.131 NA
HETATM    3  C   UNL     1      27.383  41.923  51.479  1.00  0.00     0.758 A 
HETATM    4  N   UNL     1      27.545  42.428  52.696  1.00  0.00     0.131 NA
HETATM    5  C   UNL     1      27.450  43.746  52.801  1.00  0.00     0.758 A 
HETATM    6  N   UNL     1      27.229  44.540  51.763  1.00  0.00     0.131 NA
ENDROOT
BRANCH   1   7
HETATM    7  N   UNL     1      26.651  44.792  49.543  1.00  0.00    -0.210 N 
HETATM    8  C   UNL     1      27.174  46.164  49.585  1.00  0.00     0.169 C 
HETATM    9  C   UNL     1      26.198  47.146  50.260  1.00  0.00     0.256 C 
HETATM   10  N   UNL     1      24.818  47.004  49.601  1.00  0.00    -0.060 N 
HETATM   11  H   UNL     1      24.975  47.088  48.590  1.00  0.00     0.280 HD
HETATM   12  C   UNL     1      24.301  45.582  49.824  1.00  0.00     0.256 C 
HETATM   13  C   UNL     1      25.259  44.594  49.112  1.00  0.00     0.169 C 
BRANCH  10  14
HETATM   14  C   UNL     1      23.827  48.100  49.964  1.00  0.00     0.337 C 
BRANCH  14  15
HETATM   15  C   UNL     1      23.001  48.701  48.820  1.00  0.00     0.248 C 
HETATM   16  N   UNL     1      21.638  48.653  49.079  1.00  0.00    -0.325 N 
HETATM   17  H   UNL     1      21.343  48.048  49.834  1.00  0.00     0.169 HD
HETATM   18  O   UNL     1      23.550  49.107  47.803  1.00  0.00    -0.271 OA
BRANCH  16  19
HETATM   19  C   UNL     1      20.588  49.026  48.198  1.00  0.00     0.046 A 
HETATM   20  C   UNL     1      19.905  47.970  47.539  1.00  0.00    -0.034 A 
HETATM   21  C   UNL     1      18.896  48.263  46.606  1.00  0.00     0.015 A 
HETATM   22  C   UNL     1      20.234  46.515  47.763  1.00  0.00     0.050 C 
HETATM   23  C   UNL     1      18.530  49.578  46.329  1.00  0.00    -0.061 A 
HETATM   24  C   UNL     1      17.490  49.884  45.293  1.00  0.00     0.048 C 
HETATM   25  C   UNL     1      19.175  50.610  47.014  1.00  0.00     0.015 A 
HETATM   26  C   UNL     1      20.172  50.354  47.978  1.00  0.00    -0.034 A 
HETATM   27  C   UNL     1      20.662  51.552  48.746  1.00  0.00     0.050 C 
ENDBRANCH  16  19
ENDBRANCH  14  15
ENDBRANCH  10  14
ENDBRANCH   1   7
BRANCH   3  28
HETATM   28  N   UNL     1      27.455  40.535  51.393  1.00  0.00    -0.187 N 
HETATM   29  H   UNL     1      26.976  40.110  52.176  1.00  0.00     0.184 HD
BRANCH  28  30
HETATM   30  C   UNL     1      28.297  39.681  50.671  1.00  0.00     0.049 A 
HETATM   31  C   UNL     1      29.262  38.864  51.270  1.00  0.00     0.030 A 
HETATM   32  C   UNL     1      30.098  38.049  50.499  1.00  0.00     0.002 A 
HETATM   33  C   UNL     1      29.994  38.059  49.111  1.00  0.00     0.000 A 
HETATM   34  C   UNL     1      29.055  38.881  48.494  1.00  0.00     0.002 A 
HETATM   35  C   UNL     1      28.217  39.685  49.270  1.00  0.00     0.030 A 
ENDBRANCH  28  30
ENDBRANCH   3  28
BRANCH   5  36
HETATM   36  N   UNL     1      27.629  44.274  54.078  1.00  0.00    -0.187 N 
HETATM   37  H   UNL     1      26.884  44.924  54.294  1.00  0.00     0.184 HD
BRANCH  36  38
HETATM   38  C   UNL     1      28.757  44.360  54.908  1.00  0.00     0.049 A 
HETATM   39  C   UNL     1      29.053  45.469  55.710  1.00  0.00     0.030 A 
HETATM   40  C   UNL     1      30.213  45.514  56.490  1.00  0.00     0.002 A 
HETATM   41  C   UNL     1      31.114  44.454  56.464  1.00  0.00     0.000 A 
HETATM   42  C   UNL     1      30.854  43.352  55.655  1.00  0.00     0.002 A 
HETATM   43  C   UNL     1      29.690  43.310  54.881  1.00  0.00     0.030 A 
ENDBRANCH  36  38
ENDBRANCH   5  36
TORSDOF 8
ENDMDL
MODEL 9
REMARK VINA RESULT:     -10.5      2.896     12.221
REMARK  8 active torsions:
REMARK  status: ('A' for Active; 'I' for Inactive)
REMARK    1  A    between atoms: C_6  and  N_7 
REMARK       I    between atoms: N_7  and  C_8 
REMARK    2  A    between atoms: C_8  and  C_9 
REMARK    3  A    between atoms: C_9  and  N_10 
REMARK    4  A    between atoms: N_14  and  C_15 
REMARK    5  A    between atoms: C_17  and  N_18 
REMARK    6  A    between atoms: N_18  and  C_19 
REMARK    7  A    between atoms: C_26  and  N_27 
REMARK    8  A    between atoms: N_27  and  C_28 
ROOT
HETATM    1  C   UNL     1      21.762  46.245  48.413  1.00  0.00     0.756 A 
HETATM    2  N   UNL     1      21.654  47.407  49.033  1.00  0.00     0.131 NA
HETATM    3  C   UNL     1      20.414  47.843  49.240  1.00  0.00     0.758 A 
HETATM    4  N   UNL     1      19.324  47.175  48.880  1.00  0.00     0.131 NA
HETATM    5  C   UNL     1      19.522  46.025  48.252  1.00  0.00     0.758 A 
HETATM    6  N   UNL     1      20.728  45.557  47.964  1.00  0.00     0.131 NA
ENDROOT
BRANCH   1   7
HETATM    7  N   UNL     1      23.018  45.677  48.222  1.00  0.00    -0.210 N 
HETATM    8  C   UNL     1      23.056  44.221  48.036  1.00  0.00     0.169 C 
HETATM    9  C   UNL     1      23.281  43.465  49.360  1.00  0.00     0.256 C 
HETATM   10  N   UNL     1      24.511  44.054  50.064  1.00  0.00    -0.060 N 
HETATM   11  H   UNL     1      25.266  44.056  49.367  1.00  0.00     0.280 HD
HETATM   12  C   UNL     1      24.245  45.525  50.389  1.00  0.00     0.256 C 
HETATM   13  C   UNL     1      24.057  46.296  49.059  1.00  0.00     0.169 C 
BRANCH  10  14
HETATM   14  C   UNL     1      25.026  43.232  51.236  1.00  0.00     0.337 C 
BRANCH  14  15
HETATM   15  C   UNL     1      26.462  43.502  51.702  1.00  0.00     0.248 C 
HETATM   16  N   UNL     1      26.616  43.295  53.066  1.00  0.00    -0.325 N 
HETATM   17  H   UNL     1      25.767  43.228  53.611  1.00  0.00     0.169 HD
HETATM   18  O   UNL     1      27.307  43.905  50.912  1.00  0.00    -0.271 OA
BRANCH  16  19
HETATM   19  C   UNL     1      27.778  43.548  53.843  1.00  0.00     0.046 A 
HETATM   20  C   UNL     1      28.706  42.481  53.964  1.00  0.00    -0.034 A 
HETATM   21  C   UNL     1      29.850  42.633  54.767  1.00  0.00     0.015 A 
HETATM   22  C   UNL     1      28.513  41.145  53.290  1.00  0.00     0.050 C 
HETATM   23  C   UNL     1      30.107  43.829  55.433  1.00  0.00    -0.061 A 
HETATM   24  C   UNL     1      31.300  43.967  56.332  1.00  0.00     0.048 C 
HETATM   25  C   UNL     1      29.213  44.890  55.274  1.00  0.00     0.015 A 
HETATM   26  C   UNL     1      28.071  44.784  54.454  1.00  0.00    -0.034 A 
HETATM   27  C   UNL     1      27.289  46.053  54.252  1.00  0.00     0.050 C 
ENDBRANCH  16  19
ENDBRANCH  14  15
ENDBRANCH  10  14
ENDBRANCH   1   7
BRANCH   3  28
HETATM   28  N   UNL     1      20.186  49.033  49.927  1.00  0.00    -0.187 N 
HETATM   29  H   UNL     1      20.302  48.891  50.921  1.00  0.00     0.184 HD
BRANCH  28  30
HETATM   30  C   UNL     1      19.536  50.219  49.563  1.00  0.00     0.049 A 
HETATM   31  C   UNL     1      20.100  51.174  48.710  1.00  0.00     0.030 A 
HETATM   32  C   UNL     1      19.419  52.357  48.400  1.00  0.00     0.002 A 
HETATM   33  C   UNL     1      18.170  52.610  48.962  1.00  0.00     0.000 A 
HETATM   34  C   UNL     1      17.602  51.681  49.830  1.00  0.00     0.002 A 
HETATM   35  C   UNL     1      18.283  50.498  50.128  1.00  0.00     0.030 A 
ENDBRANCH  28  30
ENDBRANCH   3  28
BRANCH   5  36
HETATM   36  N   UNL     1      18.376  45.330  47.868  1.00  0.00    -0.187 N 
HETATM   37  H   UNL     1      18.275  44.492  48.425  1.00  0.00     0.184 HD
BRANCH  36  38
HETATM   38  C   UNL     1      17.605  45.368  46.697  1.00  0.00     0.049 A 
HETATM   39  C   UNL     1      17.365  44.252  45.886  1.00  0.00     0.030 A 
HETATM   40  C   UNL     1      16.617  44.357  44.708  1.00  0.00     0.002 A 
HETATM   41  C   UNL     1      16.113  45.590  44.308  1.00  0.00     0.000 A 
HETATM   42  C   UNL     1      16.361  46.717  45.085  1.00  0.00     0.002 A 
HETATM   43  C   UNL     1      17.104  46.606  46.264  1.00  0.00     0.030 A 
ENDBRANCH  36  38
ENDBRANCH   5  36
TORSDOF 8
ENDMDL
MODEL 10
REMARK VINA RESULT:     -10.3      2.663     10.513
REMARK  8 active torsions:
REMARK  status: ('A' for Active; 'I' for Inactive)
REMARK    1  A    between atoms: C_6  and  N_7 
REMARK       I    between atoms: N_7  and  C_8 
REMARK    2  A    between atoms: C_8  and  C_9 
REMARK    3  A    between atoms: C_9  and  N_10 
REMARK    4  A    between atoms: N_14  and  C_15 
REMARK    5  A    between atoms: C_17  and  N_18 
REMARK    6  A    between atoms: N_18  and  C_19 
REMARK    7  A    between atoms: C_26  and  N_27 
REMARK    8  A    between atoms: N_27  and  C_28 
ROOT
HETATM    1  C   UNL     1      21.941  45.645  48.466  1.00  0.00     0.756 A 
HETATM    2  N   UNL     1      22.879  46.487  48.863  1.00  0.00     0.131 NA
HETATM    3  C   UNL     1      22.590  47.780  48.741  1.00  0.00     0.758 A 
HETATM    4  N   UNL     1      21.434  48.241  48.275  1.00  0.00     0.131 NA
HETATM    5  C   UNL     1      20.554  47.329  47.887  1.00  0.00     0.758 A 
HETATM    6  N   UNL     1      20.796  46.027  47.928  1.00  0.00     0.131 NA
ENDROOT
BRANCH   1   7
HETATM    7  N   UNL     1      22.127  44.276  48.626  1.00  0.00    -0.210 N 
HETATM    8  C   UNL     1      22.343  43.801  49.999  1.00  0.00     0.169 C 
HETATM    9  C   UNL     1      23.837  43.711  50.362  1.00  0.00     0.256 C 
HETATM   10  N   UNL     1      24.561  42.897  49.279  1.00  0.00    -0.060 N 
HETATM   11  H   UNL     1      24.030  42.025  49.174  1.00  0.00     0.280 HD
HETATM   12  C   UNL     1      24.434  43.623  47.939  1.00  0.00     0.256 C 
HETATM   13  C   UNL     1      22.935  43.681  47.552  1.00  0.00     0.169 C 
BRANCH  10  14
HETATM   14  C   UNL     1      25.980  42.482  49.641  1.00  0.00     0.337 C 
BRANCH  14  15
HETATM   15  C   UNL     1      26.816  43.484  50.447  1.00  0.00     0.248 C 
HETATM   16  N   UNL     1      26.881  43.147  51.792  1.00  0.00    -0.325 N 
HETATM   17  H   UNL     1      26.215  42.459  52.118  1.00  0.00     0.169 HD
HETATM   18  O   UNL     1      27.294  44.474  49.905  1.00  0.00    -0.271 OA
BRANCH  16  19
HETATM   19  C   UNL     1      27.482  43.903  52.834  1.00  0.00     0.046 A 
HETATM   20  C   UNL     1      28.734  43.438  53.316  1.00  0.00    -0.034 A 
HETATM   21  C   UNL     1      29.360  44.096  54.389  1.00  0.00     0.015 A 
HETATM   22  C   UNL     1      29.431  42.225  52.752  1.00  0.00     0.050 C 
HETATM   23  C   UNL     1      28.787  45.220  54.977  1.00  0.00    -0.061 A 
HETATM   24  C   UNL     1      29.434  45.885  56.156  1.00  0.00     0.048 C 
HETATM   25  C   UNL     1      27.577  45.698  54.469  1.00  0.00     0.015 A 
HETATM   26  C   UNL     1      26.934  45.082  53.377  1.00  0.00    -0.034 A 
HETATM   27  C   UNL     1      25.725  45.799  52.838  1.00  0.00     0.050 C 
ENDBRANCH  16  19
ENDBRANCH  14  15
ENDBRANCH  10  14
ENDBRANCH   1   7
BRANCH   3  28
HETATM   28  N   UNL     1      23.489  48.751  49.174  1.00  0.00    -0.187 N 
HETATM   29  H   UNL     1      23.015  49.635  49.304  1.00  0.00     0.184 HD
BRANCH  28  30
HETATM   30  C   UNL     1      24.887  48.821  49.135  1.00  0.00     0.049 A 
HETATM   31  C   UNL     1      25.721  47.930  49.818  1.00  0.00     0.030 A 
HETATM   32  C   UNL     1      27.114  48.061  49.768  1.00  0.00     0.002 A 
HETATM   33  C   UNL     1      27.690  49.106  49.051  1.00  0.00     0.000 A 
HETATM   34  C   UNL     1      26.876  50.017  48.383  1.00  0.00     0.002 A 
HETATM   35  C   UNL     1      25.487  49.874  48.428  1.00  0.00     0.030 A 
ENDBRANCH  28  30
ENDBRANCH   3  28
BRANCH   5  36
HETATM   36  N   UNL     1      19.346  47.815  47.390  1.00  0.00    -0.187 N 
HETATM   37  H   UNL     1      18.825  47.069  46.950  1.00  0.00     0.184 HD
BRANCH  36  38
HETATM   38  C   UNL     1      18.917  49.113  47.073  1.00  0.00     0.049 A 
HETATM   39  C   UNL     1      18.646  50.100  48.029  1.00  0.00     0.030 A 
HETATM   40  C   UNL     1      18.185  51.367  47.655  1.00  0.00     0.002 A 
HETATM   41  C   UNL     1      17.965  51.663  46.314  1.00  0.00     0.000 A 
HETATM   42  C   UNL     1      18.203  50.690  45.349  1.00  0.00     0.002 A 
HETATM   43  C   UNL     1      18.668  49.427  45.727  1.00  0.00     0.030 A 
ENDBRANCH  36  38
ENDBRANCH   5  36
TORSDOF 8
ENDMDL
