MODEL 1
REMARK VINA RESULT:      -9.9      0.000      0.000
REMARK  4 active torsions:
REMARK  status: ('A' for Active; 'I' for Inactive)
REMARK    1  A    between atoms: C_2  and  C_3 
REMARK       I    between atoms: C_3  and  N_4 
REMARK    2  A    between atoms: N_4  and  N_5 
REMARK    3  A    between atoms: N_5  and  C_6 
REMARK    4  A    between atoms: N_7  and  C_8 
ROOT
HETATM    1  C   UNL     1      28.165  40.912  50.437  1.00  0.00     0.208 A 
HETATM    2  N   UNL     1      27.150  41.379  49.604  1.00  0.00    -0.251 N 
HETATM    3  C   UNL     1      26.372  42.471  49.988  1.00  0.00     0.264 A 
HETATM    4  O   UNL     1      25.435  42.909  49.321  1.00  0.00    -0.267 OA
HETATM    5  C   UNL     1      26.760  43.173  51.250  1.00  0.00     0.049 A 
HETATM    6  C   UNL     1      27.826  42.665  51.899  1.00  0.00     0.083 A 
HETATM    7  C   UNL     1      28.345  43.373  53.101  1.00  0.00    -0.000 A 
HETATM    8  C   UNL     1      27.535  44.299  53.775  1.00  0.00    -0.044 A 
HETATM    9  C   UNL     1      28.007  44.957  54.921  1.00  0.00     0.008 A 
HETATM   10  C   UNL     1      29.298  44.714  55.387  1.00  0.00     0.001 A 
HETATM   11  C   UNL     1      30.116  43.807  54.720  1.00  0.00     0.001 A 
HETATM   12  C   UNL     1      29.641  43.140  53.587  1.00  0.00     0.014 A 
HETATM   13  C   UNL     1      26.135  44.528  53.282  1.00  0.00     0.054 C 
HETATM   14  C   UNL     1      26.029  44.442  51.735  1.00  0.00    -0.002 C 
HETATM   15  C   UNL     1      26.646  45.704  51.081  1.00  0.00     0.015 C 
HETATM   16  C   UNL     1      25.823  45.940  49.825  1.00  0.00     0.001 C 
HETATM   17  C   UNL     1      24.405  45.579  50.235  1.00  0.00     0.001 C 
HETATM   18  C   UNL     1      24.522  44.566  51.379  1.00  0.00     0.015 C 
HETATM   19  N   UNL     1      28.495  41.531  51.536  1.00  0.00    -0.217 NA
ENDROOT
BRANCH   1  20
HETATM   20  N   UNL     1      28.827  39.728  50.138  1.00  0.00    -0.171 NA
HETATM   21  H   UNL     1      28.445  39.174  49.364  1.00  0.00     0.156 HD
BRANCH  20  22
HETATM   22  N   UNL     1      29.157  38.922  51.249  1.00  0.00    -0.284 N 
HETATM   23  C   UNL     1      30.037  37.884  51.001  1.00  0.00     0.231 C 
HETATM   24  O   UNL     1      30.637  37.767  49.934  1.00  0.00    -0.272 OA
HETATM   25  H   UNL     1      28.404  38.832  51.931  1.00  0.00     0.184 HD
BRANCH  23  26
HETATM   26  C   UNL     1      30.157  36.919  52.161  1.00  0.00     0.100 C 
HETATM   27  C   UNL     1      29.749  35.508  51.773  1.00  0.00     0.014 C 
ENDBRANCH  23  26
ENDBRANCH  20  22
ENDBRANCH   1  20
BRANCH   2  28
HETATM   28  C   UNL     1      26.903  40.773  48.320  1.00  0.00     0.045 A 
HETATM   29  C   UNL     1      27.692  41.106  47.206  1.00  0.00     0.030 A 
HETATM   30  C   UNL     1      27.471  40.508  45.963  1.00  0.00     0.002 A 
HETATM   31  C   UNL     1      26.451  39.574  45.811  1.00  0.00     0.000 A 
HETATM   32  C   UNL     1      25.647  39.244  46.899  1.00  0.00     0.002 A 
HETATM   33  C   UNL     1      25.869  39.843  48.143  1.00  0.00     0.030 A 
ENDBRANCH   2  28
TORSDOF 4
ENDMDL
MODEL 2
REMARK VINA RESULT:      -9.7      3.465      6.547
REMARK  4 active torsions:
REMARK  status: ('A' for Active; 'I' for Inactive)
REMARK    1  A    between atoms: C_2  and  C_3 
REMARK       I    between atoms: C_3  and  N_4 
REMARK    2  A    between atoms: N_4  and  N_5 
REMARK    3  A    between atoms: N_5  and  C_6 
REMARK    4  A    between atoms: N_7  and  C_8 
ROOT
HETATM    1  C   UNL     1      26.158  45.686  52.427  1.00  0.00     0.208 A 
HETATM    2  N   UNL     1      26.150  44.513  51.675  1.00  0.00    -0.251 N 
HETATM    3  C   UNL     1      27.100  43.521  51.908  1.00  0.00     0.264 A 
HETATM    4  O   UNL     1      27.175  42.481  51.254  1.00  0.00    -0.267 OA
HETATM    5  C   UNL     1      28.027  43.724  53.064  1.00  0.00     0.049 A 
HETATM    6  C   UNL     1      27.852  44.863  53.762  1.00  0.00     0.083 A 
HETATM    7  C   UNL     1      28.657  45.087  54.994  1.00  0.00    -0.000 A 
HETATM    8  C   UNL     1      29.829  44.347  55.211  1.00  0.00    -0.044 A 
HETATM    9  C   UNL     1      30.606  44.565  56.359  1.00  0.00     0.008 A 
HETATM   10  C   UNL     1      30.206  45.504  57.308  1.00  0.00     0.001 A 
HETATM   11  C   UNL     1      29.039  46.235  57.110  1.00  0.00     0.001 A 
HETATM   12  C   UNL     1      28.272  46.030  55.960  1.00  0.00     0.014 A 
HETATM   13  C   UNL     1      30.266  43.362  54.165  1.00  0.00     0.054 C 
HETATM   14  C   UNL     1      29.066  42.660  53.473  1.00  0.00    -0.002 C 
HETATM   15  C   UNL     1      28.427  41.619  54.427  1.00  0.00     0.015 C 
HETATM   16  C   UNL     1      27.926  40.507  53.520  1.00  0.00     0.001 C 
HETATM   17  C   UNL     1      28.989  40.400  52.440  1.00  0.00     0.001 C 
HETATM   18  C   UNL     1      29.654  41.777  52.338  1.00  0.00     0.015 C 
HETATM   19  N   UNL     1      26.971  45.854  53.434  1.00  0.00    -0.217 NA
ENDROOT
BRANCH   1  20
HETATM   20  N   UNL     1      25.323  46.743  52.088  1.00  0.00    -0.171 NA
HETATM   21  H   UNL     1      24.353  46.503  51.857  1.00  0.00     0.156 HD
BRANCH  20  22
HETATM   22  N   UNL     1      25.866  47.674  51.175  1.00  0.00    -0.284 N 
HETATM   23  C   UNL     1      25.084  47.963  50.071  1.00  0.00     0.231 C 
HETATM   24  O   UNL     1      23.921  47.579  49.967  1.00  0.00    -0.272 OA
HETATM   25  H   UNL     1      26.884  47.649  51.116  1.00  0.00     0.184 HD
BRANCH  23  26
HETATM   26  C   UNL     1      25.817  48.767  49.020  1.00  0.00     0.100 C 
HETATM   27  C   UNL     1      27.311  48.831  49.289  1.00  0.00     0.014 C 
ENDBRANCH  23  26
ENDBRANCH  20  22
ENDBRANCH   1  20
BRANCH   2  28
HETATM   28  C   UNL     1      25.144  44.284  50.669  1.00  0.00     0.045 A 
HETATM   29  C   UNL     1      23.868  43.812  51.024  1.00  0.00     0.030 A 
HETATM   30  C   UNL     1      22.882  43.605  50.056  1.00  0.00     0.002 A 
HETATM   31  C   UNL     1      23.158  43.856  48.716  1.00  0.00     0.000 A 
HETATM   32  C   UNL     1      24.422  44.307  48.343  1.00  0.00     0.002 A 
HETATM   33  C   UNL     1      25.408  44.514  49.312  1.00  0.00     0.030 A 
ENDBRANCH   2  28
TORSDOF 4
ENDMDL
MODEL 3
REMARK VINA RESULT:      -9.2     16.684     18.953
REMARK  4 active torsions:
REMARK  status: ('A' for Active; 'I' for Inactive)
REMARK    1  A    between atoms: C_2  and  C_3 
REMARK       I    between atoms: C_3  and  N_4 
REMARK    2  A    between atoms: N_4  and  N_5 
REMARK    3  A    between atoms: N_5  and  C_6 
REMARK    4  A    between atoms: N_7  and  C_8 
ROOT
HETATM    1  C   UNL     1      37.741  44.015  64.391  1.00  0.00     0.208 A 
HETATM    2  N   UNL     1      38.986  43.392  64.317  1.00  0.00    -0.251 N 
HETATM    3  C   UNL     1      40.155  44.137  64.465  1.00  0.00     0.264 A 
HETATM    4  O   UNL     1      41.285  43.658  64.371  1.00  0.00    -0.267 OA
HETATM    5  C   UNL     1      40.001  45.580  64.824  1.00  0.00     0.049 A 
HETATM    6  C   UNL     1      38.734  46.019  64.958  1.00  0.00     0.083 A 
HETATM    7  C   UNL     1      38.498  47.413  65.424  1.00  0.00    -0.000 A 
HETATM    8  C   UNL     1      39.527  48.364  65.347  1.00  0.00    -0.044 A 
HETATM    9  C   UNL     1      39.308  49.685  65.765  1.00  0.00     0.008 A 
HETATM   10  C   UNL     1      38.070  50.060  66.284  1.00  0.00     0.001 A 
HETATM   11  C   UNL     1      37.046  49.123  66.377  1.00  0.00     0.001 A 
HETATM   12  C   UNL     1      37.258  47.811  65.948  1.00  0.00     0.014 A 
HETATM   13  C   UNL     1      40.845  47.955  64.755  1.00  0.00     0.054 C 
HETATM   14  C   UNL     1      41.220  46.487  65.096  1.00  0.00    -0.002 C 
HETATM   15  C   UNL     1      41.658  46.373  66.578  1.00  0.00     0.015 C 
HETATM   16  C   UNL     1      42.710  45.276  66.595  1.00  0.00     0.001 C 
HETATM   17  C   UNL     1      43.484  45.481  65.303  1.00  0.00     0.001 C 
HETATM   18  C   UNL     1      42.526  46.163  64.320  1.00  0.00     0.015 C 
HETATM   19  N   UNL     1      37.618  45.274  64.704  1.00  0.00    -0.217 NA
ENDROOT
BRANCH   1  20
HETATM   20  N   UNL     1      36.586  43.310  64.078  1.00  0.00    -0.171 NA
HETATM   21  H   UNL     1      36.366  43.213  63.081  1.00  0.00     0.156 HD
BRANCH  20  22
HETATM   22  N   UNL     1      35.445  43.651  64.836  1.00  0.00    -0.284 N 
HETATM   23  C   UNL     1      34.871  42.621  65.560  1.00  0.00     0.231 C 
HETATM   24  O   UNL     1      35.409  41.523  65.684  1.00  0.00    -0.272 OA
HETATM   25  H   UNL     1      34.878  44.391  64.421  1.00  0.00     0.184 HD
BRANCH  23  26
HETATM   26  C   UNL     1      33.526  42.987  66.148  1.00  0.00     0.100 C 
HETATM   27  C   UNL     1      33.292  42.323  67.494  1.00  0.00     0.014 C 
ENDBRANCH  23  26
ENDBRANCH  20  22
ENDBRANCH   1  20
BRANCH   2  28
HETATM   28  C   UNL     1      39.094  41.968  64.123  1.00  0.00     0.045 A 
HETATM   29  C   UNL     1      39.259  41.429  62.835  1.00  0.00     0.030 A 
HETATM   30  C   UNL     1      39.383  40.051  62.643  1.00  0.00     0.002 A 
HETATM   31  C   UNL     1      39.333  39.188  63.732  1.00  0.00     0.000 A 
HETATM   32  C   UNL     1      39.151  39.702  65.014  1.00  0.00     0.002 A 
HETATM   33  C   UNL     1      39.028  41.081  65.207  1.00  0.00     0.030 A 
ENDBRANCH   2  28
TORSDOF 4
ENDMDL
MODEL 4
REMARK VINA RESULT:      -8.7      1.697      2.105
REMARK  4 active torsions:
REMARK  status: ('A' for Active; 'I' for Inactive)
REMARK    1  A    between atoms: C_2  and  C_3 
REMARK       I    between atoms: C_3  and  N_4 
REMARK    2  A    between atoms: N_4  and  N_5 
REMARK    3  A    between atoms: N_5  and  C_6 
REMARK    4  A    between atoms: N_7  and  C_8 
ROOT
HETATM    1  C   UNL     1      26.252  41.130  50.718  1.00  0.00     0.208 A 
HETATM    2  N   UNL     1      25.459  41.960  49.928  1.00  0.00    -0.251 N 
HETATM    3  C   UNL     1      25.314  43.310  50.249  1.00  0.00     0.264 A 
HETATM    4  O   UNL     1      24.598  44.088  49.620  1.00  0.00    -0.267 OA
HETATM    5  C   UNL     1      26.136  43.830  51.385  1.00  0.00     0.049 A 
HETATM    6  C   UNL     1      26.933  42.929  51.994  1.00  0.00     0.083 A 
HETATM    7  C   UNL     1      27.865  43.391  53.058  1.00  0.00    -0.000 A 
HETATM    8  C   UNL     1      27.655  44.627  53.689  1.00  0.00    -0.044 A 
HETATM    9  C   UNL     1      28.516  45.062  54.707  1.00  0.00     0.008 A 
HETATM   10  C   UNL     1      29.606  44.280  55.085  1.00  0.00     0.001 A 
HETATM   11  C   UNL     1      29.833  43.059  54.458  1.00  0.00     0.001 A 
HETATM   12  C   UNL     1      28.967  42.617  53.454  1.00  0.00     0.014 A 
HETATM   13  C   UNL     1      26.458  45.444  53.295  1.00  0.00     0.054 C 
HETATM   14  C   UNL     1      26.126  45.320  51.783  1.00  0.00    -0.002 C 
HETATM   15  C   UNL     1      27.156  46.112  50.938  1.00  0.00     0.015 C 
HETATM   16  C   UNL     1      26.374  46.623  49.739  1.00  0.00     0.001 C 
HETATM   17  C   UNL     1      25.012  46.983  50.308  1.00  0.00     0.001 C 
HETATM   18  C   UNL     1      24.806  46.104  51.546  1.00  0.00     0.015 C 
HETATM   19  N   UNL     1      26.965  41.595  51.706  1.00  0.00    -0.217 NA
ENDROOT
BRANCH   1  20
HETATM   20  N   UNL     1      26.264  39.758  50.500  1.00  0.00    -0.171 NA
HETATM   21  H   UNL     1      25.578  39.207  51.027  1.00  0.00     0.156 HD
BRANCH  20  22
HETATM   22  N   UNL     1      27.541  39.156  50.507  1.00  0.00    -0.284 N 
HETATM   23  C   UNL     1      27.758  38.190  49.541  1.00  0.00     0.231 C 
HETATM   24  O   UNL     1      26.967  37.987  48.622  1.00  0.00    -0.272 OA
HETATM   25  H   UNL     1      27.959  39.085  51.436  1.00  0.00     0.184 HD
BRANCH  23  26
HETATM   26  C   UNL     1      29.041  37.416  49.753  1.00  0.00     0.100 C 
HETATM   27  C   UNL     1      29.875  37.994  50.883  1.00  0.00     0.014 C 
ENDBRANCH  23  26
ENDBRANCH  20  22
ENDBRANCH   1  20
BRANCH   2  28
HETATM   28  C   UNL     1      24.803  41.457  48.748  1.00  0.00     0.045 A 
HETATM   29  C   UNL     1      23.403  41.343  48.699  1.00  0.00     0.030 A 
HETATM   30  C   UNL     1      22.759  40.874  47.551  1.00  0.00     0.002 A 
HETATM   31  C   UNL     1      23.505  40.501  46.437  1.00  0.00     0.000 A 
HETATM   32  C   UNL     1      24.894  40.591  46.473  1.00  0.00     0.002 A 
HETATM   33  C   UNL     1      25.538  41.061  47.622  1.00  0.00     0.030 A 
ENDBRANCH   2  28
TORSDOF 4
ENDMDL
MODEL 5
REMARK VINA RESULT:      -8.6      6.765     10.666
REMARK  4 active torsions:
REMARK  status: ('A' for Active; 'I' for Inactive)
REMARK    1  A    between atoms: C_2  and  C_3 
REMARK       I    between atoms: C_3  and  N_4 
REMARK    2  A    between atoms: N_4  and  N_5 
REMARK    3  A    between atoms: N_5  and  C_6 
REMARK    4  A    between atoms: N_7  and  C_8 
ROOT
HETATM    1  C   UNL     1      22.172  48.138  48.792  1.00  0.00     0.208 A 
HETATM    2  N   UNL     1      20.934  48.479  48.252  1.00  0.00    -0.251 N 
HETATM    3  C   UNL     1      20.314  47.639  47.328  1.00  0.00     0.264 A 
HETATM    4  O   UNL     1      19.242  47.898  46.782  1.00  0.00    -0.267 OA
HETATM    5  C   UNL     1      20.975  46.326  47.053  1.00  0.00     0.049 A 
HETATM    6  C   UNL     1      22.119  46.092  47.725  1.00  0.00     0.083 A 
HETATM    7  C   UNL     1      22.777  44.764  47.593  1.00  0.00    -0.000 A 
HETATM    8  C   UNL     1      22.456  43.925  46.516  1.00  0.00    -0.044 A 
HETATM    9  C   UNL     1      23.085  42.679  46.371  1.00  0.00     0.008 A 
HETATM   10  C   UNL     1      24.020  42.253  47.313  1.00  0.00     0.001 A 
HETATM   11  C   UNL     1      24.338  43.071  48.393  1.00  0.00     0.001 A 
HETATM   12  C   UNL     1      23.723  44.318  48.529  1.00  0.00     0.014 A 
HETATM   13  C   UNL     1      21.472  44.410  45.490  1.00  0.00     0.054 C 
HETATM   14  C   UNL     1      20.344  45.277  46.114  1.00  0.00    -0.002 C 
HETATM   15  C   UNL     1      19.347  44.383  46.895  1.00  0.00     0.015 C 
HETATM   16  C   UNL     1      17.997  45.062  46.732  1.00  0.00     0.001 C 
HETATM   17  C   UNL     1      18.013  45.588  45.306  1.00  0.00     0.001 C 
HETATM   18  C   UNL     1      19.483  45.812  44.936  1.00  0.00     0.015 C 
HETATM   19  N   UNL     1      22.740  46.990  48.545  1.00  0.00    -0.217 NA
ENDROOT
BRANCH   1  20
HETATM   20  N   UNL     1      22.868  49.047  49.580  1.00  0.00    -0.171 NA
HETATM   21  H   UNL     1      22.452  49.980  49.675  1.00  0.00     0.156 HD
BRANCH  20  22
HETATM   22  N   UNL     1      24.258  49.112  49.345  1.00  0.00    -0.284 N 
HETATM   23  C   UNL     1      24.662  49.978  48.344  1.00  0.00     0.231 C 
HETATM   24  O   UNL     1      23.892  50.773  47.809  1.00  0.00    -0.272 OA
HETATM   25  H   UNL     1      24.748  48.234  49.521  1.00  0.00     0.184 HD
BRANCH  23  26
HETATM   26  C   UNL     1      26.121  49.821  47.977  1.00  0.00     0.100 C 
HETATM   27  C   UNL     1      26.895  49.047  49.031  1.00  0.00     0.014 C 
ENDBRANCH  23  26
ENDBRANCH  20  22
ENDBRANCH   1  20
BRANCH   2  28
HETATM   28  C   UNL     1      20.252  49.682  48.657  1.00  0.00     0.045 A 
HETATM   29  C   UNL     1      19.350  49.667  49.735  1.00  0.00     0.030 A 
HETATM   30  C   UNL     1      18.700  50.833  50.146  1.00  0.00     0.002 A 
HETATM   31  C   UNL     1      18.932  52.032  49.479  1.00  0.00     0.000 A 
HETATM   32  C   UNL     1      19.809  52.063  48.398  1.00  0.00     0.002 A 
HETATM   33  C   UNL     1      20.460  50.896  47.988  1.00  0.00     0.030 A 
ENDBRANCH   2  28
TORSDOF 4
ENDMDL
MODEL 6
REMARK VINA RESULT:      -8.4      5.509      8.962
REMARK  4 active torsions:
REMARK  status: ('A' for Active; 'I' for Inactive)
REMARK    1  A    between atoms: C_2  and  C_3 
REMARK       I    between atoms: C_3  and  N_4 
REMARK    2  A    between atoms: N_4  and  N_5 
REMARK    3  A    between atoms: N_5  and  C_6 
REMARK    4  A    between atoms: N_7  and  C_8 
ROOT
HETATM    1  C   UNL     1      22.906  46.265  48.892  1.00  0.00     0.208 A 
HETATM    2  N   UNL     1      22.168  45.177  48.429  1.00  0.00    -0.251 N 
HETATM    3  C   UNL     1      20.815  45.322  48.126  1.00  0.00     0.264 A 
HETATM    4  O   UNL     1      20.097  44.395  47.753  1.00  0.00    -0.267 OA
HETATM    5  C   UNL     1      20.245  46.702  48.203  1.00  0.00     0.049 A 
HETATM    6  C   UNL     1      21.105  47.672  48.571  1.00  0.00     0.083 A 
HETATM    7  C   UNL     1      20.645  49.088  48.562  1.00  0.00    -0.000 A 
HETATM    8  C   UNL     1      19.273  49.381  48.560  1.00  0.00    -0.044 A 
HETATM    9  C   UNL     1      18.829  50.711  48.571  1.00  0.00     0.008 A 
HETATM   10  C   UNL     1      19.750  51.757  48.560  1.00  0.00     0.001 A 
HETATM   11  C   UNL     1      21.113  51.480  48.549  1.00  0.00     0.001 A 
HETATM   12  C   UNL     1      21.557  50.155  48.553  1.00  0.00     0.014 A 
HETATM   13  C   UNL     1      18.292  48.245  48.606  1.00  0.00     0.054 C 
HETATM   14  C   UNL     1      18.783  47.003  47.812  1.00  0.00    -0.002 C 
HETATM   15  C   UNL     1      18.673  47.259  46.288  1.00  0.00     0.015 C 
HETATM   16  C   UNL     1      18.356  45.902  45.681  1.00  0.00     0.001 C 
HETATM   17  C   UNL     1      17.421  45.253  46.689  1.00  0.00     0.001 C 
HETATM   18  C   UNL     1      17.743  45.875  48.052  1.00  0.00     0.015 C 
HETATM   19  N   UNL     1      22.399  47.465  48.955  1.00  0.00    -0.217 NA
ENDROOT
BRANCH   1  20
HETATM   20  N   UNL     1      24.204  46.086  49.352  1.00  0.00    -0.171 NA
HETATM   21  H   UNL     1      24.737  45.319  48.929  1.00  0.00     0.156 HD
BRANCH  20  22
HETATM   22  N   UNL     1      24.360  46.124  50.755  1.00  0.00    -0.284 N 
HETATM   23  C   UNL     1      25.261  47.056  51.238  1.00  0.00     0.231 C 
HETATM   24  O   UNL     1      25.767  47.918  50.522  1.00  0.00    -0.272 OA
HETATM   25  H   UNL     1      24.233  45.219  51.209  1.00  0.00     0.184 HD
BRANCH  23  26
HETATM   26  C   UNL     1      25.563  46.881  52.710  1.00  0.00     0.100 C 
HETATM   27  C   UNL     1      26.501  45.713  52.966  1.00  0.00     0.014 C 
ENDBRANCH  23  26
ENDBRANCH  20  22
ENDBRANCH   1  20
BRANCH   2  28
HETATM   28  C   UNL     1      22.789  43.893  48.220  1.00  0.00     0.045 A 
HETATM   29  C   UNL     1      22.908  42.973  49.275  1.00  0.00     0.030 A 
HETATM   30  C   UNL     1      23.492  41.720  49.074  1.00  0.00     0.002 A 
HETATM   31  C   UNL     1      23.977  41.370  47.817  1.00  0.00     0.000 A 
HETATM   32  C   UNL     1      23.884  42.276  46.764  1.00  0.00     0.002 A 
HETATM   33  C   UNL     1      23.299  43.530  46.965  1.00  0.00     0.030 A 
ENDBRANCH   2  28
TORSDOF 4
ENDMDL
MODEL 7
REMARK VINA RESULT:      -7.9      4.002      7.263
REMARK  4 active torsions:
REMARK  status: ('A' for Active; 'I' for Inactive)
REMARK    1  A    between atoms: C_2  and  C_3 
REMARK       I    between atoms: C_3  and  N_4 
REMARK    2  A    between atoms: N_4  and  N_5 
REMARK    3  A    between atoms: N_5  and  C_6 
REMARK    4  A    between atoms: N_7  and  C_8 
ROOT
HETATM    1  C   UNL     1      24.795  45.807  49.857  1.00  0.00     0.208 A 
HETATM    2  N   UNL     1      24.091  44.675  49.449  1.00  0.00    -0.251 N 
HETATM    3  C   UNL     1      22.788  44.793  48.967  1.00  0.00     0.264 A 
HETATM    4  O   UNL     1      22.097  43.833  48.629  1.00  0.00    -0.267 OA
HETATM    5  C   UNL     1      22.248  46.177  48.799  1.00  0.00     0.049 A 
HETATM    6  C   UNL     1      23.082  47.178  49.143  1.00  0.00     0.083 A 
HETATM    7  C   UNL     1      22.661  48.585  48.900  1.00  0.00    -0.000 A 
HETATM    8  C   UNL     1      21.307  48.889  48.694  1.00  0.00    -0.044 A 
HETATM    9  C   UNL     1      20.899  50.214  48.483  1.00  0.00     0.008 A 
HETATM   10  C   UNL     1      21.840  51.241  48.452  1.00  0.00     0.001 A 
HETATM   11  C   UNL     1      23.188  50.952  48.642  1.00  0.00     0.001 A 
HETATM   12  C   UNL     1      23.594  49.634  48.867  1.00  0.00     0.014 A 
HETATM   13  C   UNL     1      20.299  47.777  48.762  1.00  0.00     0.054 C 
HETATM   14  C   UNL     1      20.851  46.440  48.198  1.00  0.00    -0.002 C 
HETATM   15  C   UNL     1      20.931  46.499  46.652  1.00  0.00     0.015 C 
HETATM   16  C   UNL     1      20.655  45.079  46.187  1.00  0.00     0.001 C 
HETATM   17  C   UNL     1      19.590  44.573  47.147  1.00  0.00     0.001 C 
HETATM   18  C   UNL     1      19.762  45.361  48.449  1.00  0.00     0.015 C 
HETATM   19  N   UNL     1      24.315  47.010  49.706  1.00  0.00    -0.217 NA
ENDROOT
BRANCH   1  20
HETATM   20  N   UNL     1      26.024  45.677  50.491  1.00  0.00    -0.171 NA
HETATM   21  H   UNL     1      26.592  44.865  50.224  1.00  0.00     0.156 HD
BRANCH  20  22
HETATM   22  N   UNL     1      26.008  45.870  51.889  1.00  0.00    -0.284 N 
HETATM   23  C   UNL     1      26.788  45.000  52.628  1.00  0.00     0.231 C 
HETATM   24  O   UNL     1      27.584  44.222  52.107  1.00  0.00    -0.272 OA
HETATM   25  H   UNL     1      25.120  46.225  52.246  1.00  0.00     0.184 HD
BRANCH  23  26
HETATM   26  C   UNL     1      26.538  45.098  54.117  1.00  0.00     0.100 C 
HETATM   27  C   UNL     1      26.142  43.761  54.719  1.00  0.00     0.014 C 
ENDBRANCH  23  26
ENDBRANCH  20  22
ENDBRANCH   1  20
BRANCH   2  28
HETATM   28  C   UNL     1      24.701  43.370  49.480  1.00  0.00     0.045 A 
HETATM   29  C   UNL     1      25.222  42.793  48.309  1.00  0.00     0.030 A 
HETATM   30  C   UNL     1      25.830  41.536  48.336  1.00  0.00     0.002 A 
HETATM   31  C   UNL     1      25.919  40.830  49.532  1.00  0.00     0.000 A 
HETATM   32  C   UNL     1      25.393  41.378  50.699  1.00  0.00     0.002 A 
HETATM   33  C   UNL     1      24.784  42.636  50.672  1.00  0.00     0.030 A 
ENDBRANCH   2  28
TORSDOF 4
ENDMDL
MODEL 8
REMARK VINA RESULT:      -7.9      7.264     11.572
REMARK  4 active torsions:
REMARK  status: ('A' for Active; 'I' for Inactive)
REMARK    1  A    between atoms: C_2  and  C_3 
REMARK       I    between atoms: C_3  and  N_4 
REMARK    2  A    between atoms: N_4  and  N_5 
REMARK    3  A    between atoms: N_5  and  C_6 
REMARK    4  A    between atoms: N_7  and  C_8 
ROOT
HETATM    1  C   UNL     1      20.935  47.937  48.230  1.00  0.00     0.208 A 
HETATM    2  N   UNL     1      19.900  48.680  47.666  1.00  0.00    -0.251 N 
HETATM    3  C   UNL     1      19.300  48.262  46.478  1.00  0.00     0.264 A 
HETATM    4  O   UNL     1      18.411  48.892  45.905  1.00  0.00    -0.267 OA
HETATM    5  C   UNL     1      19.731  46.941  45.927  1.00  0.00     0.049 A 
HETATM    6  C   UNL     1      20.673  46.288  46.636  1.00  0.00     0.083 A 
HETATM    7  C   UNL     1      21.074  44.918  46.216  1.00  0.00    -0.000 A 
HETATM    8  C   UNL     1      20.790  44.469  44.917  1.00  0.00    -0.044 A 
HETATM    9  C   UNL     1      21.181  43.187  44.505  1.00  0.00     0.008 A 
HETATM   10  C   UNL     1      21.836  42.335  45.393  1.00  0.00     0.001 A 
HETATM   11  C   UNL     1      22.113  42.764  46.687  1.00  0.00     0.001 A 
HETATM   12  C   UNL     1      21.737  44.047  47.094  1.00  0.00     0.014 A 
HETATM   13  C   UNL     1      20.113  45.409  43.961  1.00  0.00     0.054 C 
HETATM   14  C   UNL     1      19.083  46.334  44.666  1.00  0.00    -0.002 C 
HETATM   15  C   UNL     1      17.811  45.533  45.044  1.00  0.00     0.015 C 
HETATM   16  C   UNL     1      16.668  46.527  44.922  1.00  0.00     0.001 C 
HETATM   17  C   UNL     1      17.035  47.370  43.711  1.00  0.00     0.001 C 
HETATM   18  C   UNL     1      18.562  47.328  43.592  1.00  0.00     0.015 C 
HETATM   19  N   UNL     1      21.304  46.786  47.741  1.00  0.00    -0.217 NA
ENDROOT
BRANCH   1  20
HETATM   20  N   UNL     1      21.645  48.435  49.315  1.00  0.00    -0.171 NA
HETATM   21  H   UNL     1      21.821  49.445  49.320  1.00  0.00     0.156 HD
BRANCH  20  22
HETATM   22  N   UNL     1      22.794  47.699  49.677  1.00  0.00    -0.284 N 
HETATM   23  C   UNL     1      23.999  48.371  49.574  1.00  0.00     0.231 C 
HETATM   24  O   UNL     1      24.064  49.579  49.356  1.00  0.00    -0.272 OA
HETATM   25  H   UNL     1      22.722  46.699  49.482  1.00  0.00     0.184 HD
BRANCH  23  26
HETATM   26  C   UNL     1      25.199  47.464  49.736  1.00  0.00     0.100 C 
HETATM   27  C   UNL     1      26.509  48.227  49.632  1.00  0.00     0.014 C 
ENDBRANCH  23  26
ENDBRANCH  20  22
ENDBRANCH   1  20
BRANCH   2  28
HETATM   28  C   UNL     1      19.404  49.870  48.309  1.00  0.00     0.045 A 
HETATM   29  C   UNL     1      18.392  49.792  49.281  1.00  0.00     0.030 A 
HETATM   30  C   UNL     1      17.920  50.940  49.921  1.00  0.00     0.002 A 
HETATM   31  C   UNL     1      18.444  52.187  49.594  1.00  0.00     0.000 A 
HETATM   32  C   UNL     1      19.435  52.286  48.620  1.00  0.00     0.002 A 
HETATM   33  C   UNL     1      19.907  51.137  47.980  1.00  0.00     0.030 A 
ENDBRANCH   2  28
TORSDOF 4
ENDMDL
MODEL 9
REMARK VINA RESULT:      -7.9      5.020      8.877
REMARK  4 active torsions:
REMARK  status: ('A' for Active; 'I' for Inactive)
REMARK    1  A    between atoms: C_2  and  C_3 
REMARK       I    between atoms: C_3  and  N_4 
REMARK    2  A    between atoms: N_4  and  N_5 
REMARK    3  A    between atoms: N_5  and  C_6 
REMARK    4  A    between atoms: N_7  and  C_8 
ROOT
HETATM    1  C   UNL     1      22.074  45.153  49.064  1.00  0.00     0.208 A 
HETATM    2  N   UNL     1      23.136  46.026  49.289  1.00  0.00    -0.251 N 
HETATM    3  C   UNL     1      23.022  47.375  48.953  1.00  0.00     0.264 A 
HETATM    4  O   UNL     1      23.934  48.191  49.087  1.00  0.00    -0.267 OA
HETATM    5  C   UNL     1      21.688  47.844  48.469  1.00  0.00     0.049 A 
HETATM    6  C   UNL     1      20.726  46.903  48.396  1.00  0.00     0.083 A 
HETATM    7  C   UNL     1      19.341  47.311  48.031  1.00  0.00    -0.000 A 
HETATM    8  C   UNL     1      19.115  48.544  47.401  1.00  0.00    -0.044 A 
HETATM    9  C   UNL     1      17.816  48.929  47.036  1.00  0.00     0.008 A 
HETATM   10  C   UNL     1      16.734  48.098  47.318  1.00  0.00     0.001 A 
HETATM   11  C   UNL     1      16.943  46.879  47.954  1.00  0.00     0.001 A 
HETATM   12  C   UNL     1      18.238  46.487  48.305  1.00  0.00     0.014 A 
HETATM   13  C   UNL     1      20.294  49.415  47.073  1.00  0.00     0.054 C 
HETATM   14  C   UNL     1      21.413  49.328  48.146  1.00  0.00    -0.002 C 
HETATM   15  C   UNL     1      20.992  50.091  49.427  1.00  0.00     0.015 C 
HETATM   16  C   UNL     1      22.286  50.651  49.996  1.00  0.00     0.001 C 
HETATM   17  C   UNL     1      23.088  51.056  48.770  1.00  0.00     0.001 C 
HETATM   18  C   UNL     1      22.609  50.166  47.618  1.00  0.00     0.015 C 
HETATM   19  N   UNL     1      20.914  45.573  48.640  1.00  0.00    -0.217 NA
ENDROOT
BRANCH   1  20
HETATM   20  N   UNL     1      22.242  43.785  49.239  1.00  0.00    -0.171 NA
HETATM   21  H   UNL     1      22.843  43.495  50.017  1.00  0.00     0.156 HD
BRANCH  20  22
HETATM   22  N   UNL     1      22.513  43.053  48.062  1.00  0.00    -0.284 N 
HETATM   23  C   UNL     1      23.491  42.080  48.169  1.00  0.00     0.231 C 
HETATM   24  O   UNL     1      23.972  41.744  49.249  1.00  0.00    -0.272 OA
HETATM   25  H   UNL     1      22.386  43.590  47.203  1.00  0.00     0.184 HD
BRANCH  23  26
HETATM   26  C   UNL     1      23.905  41.507  46.831  1.00  0.00     0.100 C 
HETATM   27  C   UNL     1      25.327  40.973  46.855  1.00  0.00     0.014 C 
ENDBRANCH  23  26
ENDBRANCH  20  22
ENDBRANCH   1  20
BRANCH   2  28
HETATM   28  C   UNL     1      24.357  45.568  49.902  1.00  0.00     0.045 A 
HETATM   29  C   UNL     1      25.396  45.032  49.121  1.00  0.00     0.030 A 
HETATM   30  C   UNL     1      26.589  44.604  49.708  1.00  0.00     0.002 A 
HETATM   31  C   UNL     1      26.760  44.694  51.086  1.00  0.00     0.000 A 
HETATM   32  C   UNL     1      25.735  45.206  51.878  1.00  0.00     0.002 A 
HETATM   33  C   UNL     1      24.541  45.635  51.290  1.00  0.00     0.030 A 
ENDBRANCH   2  28
TORSDOF 4
ENDMDL
MODEL 10
REMARK VINA RESULT:      -7.9     17.223     19.379
REMARK  4 active torsions:
REMARK  status: ('A' for Active; 'I' for Inactive)
REMARK    1  A    between atoms: C_2  and  C_3 
REMARK       I    between atoms: C_3  and  N_4 
REMARK    2  A    between atoms: N_4  and  N_5 
REMARK    3  A    between atoms: N_5  and  C_6 
REMARK    4  A    between atoms: N_7  and  C_8 
ROOT
HETATM    1  C   UNL     1      40.588  44.350  64.418  1.00  0.00     0.208 A 
HETATM    2  N   UNL     1      39.671  43.361  64.769  1.00  0.00    -0.251 N 
HETATM    3  C   UNL     1      38.554  43.678  65.541  1.00  0.00     0.264 A 
HETATM    4  O   UNL     1      37.729  42.848  65.921  1.00  0.00    -0.267 OA
HETATM    5  C   UNL     1      38.335  45.123  65.857  1.00  0.00     0.049 A 
HETATM    6  C   UNL     1      39.254  45.978  65.366  1.00  0.00     0.083 A 
HETATM    7  C   UNL     1      39.047  47.441  65.540  1.00  0.00    -0.000 A 
HETATM    8  C   UNL     1      38.153  47.914  66.512  1.00  0.00    -0.044 A 
HETATM    9  C   UNL     1      37.965  49.292  66.698  1.00  0.00     0.008 A 
HETATM   10  C   UNL     1      38.649  50.206  65.899  1.00  0.00     0.001 A 
HETATM   11  C   UNL     1      39.530  49.750  64.923  1.00  0.00     0.001 A 
HETATM   12  C   UNL     1      39.729  48.377  64.747  1.00  0.00     0.014 A 
HETATM   13  C   UNL     1      37.446  46.919  67.388  1.00  0.00     0.054 C 
HETATM   14  C   UNL     1      37.093  45.608  66.634  1.00  0.00    -0.002 C 
HETATM   15  C   UNL     1      35.909  45.848  65.663  1.00  0.00     0.015 C 
HETATM   16  C   UNL     1      35.146  44.534  65.639  1.00  0.00     0.001 C 
HETATM   17  C   UNL     1      35.220  44.034  67.072  1.00  0.00     0.001 C 
HETATM   18  C   UNL     1      36.492  44.633  67.682  1.00  0.00     0.015 C 
HETATM   19  N   UNL     1      40.387  45.608  64.699  1.00  0.00    -0.217 NA
ENDROOT
BRANCH   1  20
HETATM   20  N   UNL     1      41.782  44.010  63.795  1.00  0.00    -0.171 NA
HETATM   21  H   UNL     1      42.083  43.034  63.887  1.00  0.00     0.156 HD
BRANCH  20  22
HETATM   22  N   UNL     1      42.849  44.911  63.998  1.00  0.00    -0.284 N 
HETATM   23  C   UNL     1      43.766  44.551  64.969  1.00  0.00     0.231 C 
HETATM   24  O   UNL     1      43.763  43.443  65.502  1.00  0.00    -0.272 OA
HETATM   25  H   UNL     1      42.603  45.887  63.833  1.00  0.00     0.184 HD
BRANCH  23  26
HETATM   26  C   UNL     1      44.737  45.661  65.309  1.00  0.00     0.100 C 
HETATM   27  C   UNL     1      44.046  47.010  65.417  1.00  0.00     0.014 C 
ENDBRANCH  23  26
ENDBRANCH  20  22
ENDBRANCH   1  20
BRANCH   2  28
HETATM   28  C   UNL     1      39.834  42.003  64.315  1.00  0.00     0.045 A 
HETATM   29  C   UNL     1      40.607  41.088  65.051  1.00  0.00     0.030 A 
HETATM   30  C   UNL     1      40.753  39.765  64.626  1.00  0.00     0.002 A 
HETATM   31  C   UNL     1      40.137  39.337  63.454  1.00  0.00     0.000 A 
HETATM   32  C   UNL     1      39.382  40.234  62.703  1.00  0.00     0.002 A 
HETATM   33  C   UNL     1      39.235  41.557  63.128  1.00  0.00     0.030 A 
ENDBRANCH   2  28
TORSDOF 4
ENDMDL
