MODEL 1
REMARK VINA RESULT:      -8.5      0.000      0.000
REMARK  4 active torsions:
REMARK  status: ('A' for Active; 'I' for Inactive)
REMARK    1  A    between atoms: C_9  and  C_10 
REMARK    2  A    between atoms: C_22  and  C_23 
REMARK    3  A    between atoms: C_23  and  C_24 
REMARK    4  A    between atoms: C_24  and  O_25 
ROOT
HETATM    1  C   UNL     1      26.834  48.259  55.216  1.00  0.00     0.069 C 
HETATM    2  C   UNL     1      26.980  46.983  54.422  1.00  0.00     0.018 A 
HETATM    3  N   UNL     1      26.373  46.988  53.174  1.00  0.00    -0.343 N 
HETATM    4  C   UNL     1      26.506  45.960  52.306  1.00  0.00     0.146 A 
HETATM    5  N   UNL     1      27.189  44.839  52.719  1.00  0.00    -0.179 N 
HETATM    6  N   UNL     1      27.240  43.882  51.756  1.00  0.00    -0.167 NA
HETATM    7  C   UNL     1      26.592  44.426  50.716  1.00  0.00     0.066 A 
HETATM    8  C   UNL     1      26.448  43.656  49.455  1.00  0.00     0.073 C 
HETATM    9  C   UNL     1      26.116  45.739  51.004  1.00  0.00     0.047 A 
HETATM   10  C   UNL     1      27.790  44.697  53.979  1.00  0.00     0.278 A 
HETATM   11  O   UNL     1      28.379  43.672  54.301  1.00  0.00    -0.265 OA
HETATM   12  C   UNL     1      27.680  45.911  54.867  1.00  0.00     0.036 A 
HETATM   13  H   UNL     1      25.880  47.840  52.902  1.00  0.00     0.167 HD
ENDROOT
BRANCH   9  14
HETATM   14  C   UNL     1      25.335  46.669  50.199  1.00  0.00    -0.009 A 
HETATM   15  C   UNL     1      25.902  47.833  49.599  1.00  0.00    -0.015 A 
HETATM   16  C   UNL     1      25.040  48.713  48.895  1.00  0.00    -0.025 A 
HETATM   17  C   UNL     1      27.276  48.179  49.651  1.00  0.00     0.013 A 
HETATM   18  C   UNL     1      25.548  49.892  48.323  1.00  0.00     0.012 A 
HETATM   19  C   UNL     1      23.677  48.408  48.767  1.00  0.00     0.012 A 
HETATM   20  C   UNL     1      26.899  50.217  48.423  1.00  0.00     0.001 A 
HETATM   21  C   UNL     1      27.766  49.355  49.081  1.00  0.00     0.001 A 
HETATM   22  C   UNL     1      23.144  47.252  49.331  1.00  0.00     0.002 A 
HETATM   23  C   UNL     1      23.967  46.392  50.049  1.00  0.00     0.013 A 
ENDBRANCH   9  14
BRANCH  12  24
HETATM   24  C   UNL     1      28.360  45.775  56.208  1.00  0.00     0.072 C 
BRANCH  24  25
HETATM   25  C   UNL     1      29.876  45.965  56.133  1.00  0.00     0.169 C 
BRANCH  25  26
HETATM   26  O   UNL     1      30.544  44.709  56.193  1.00  0.00    -0.401 OA
HETATM   27  H   UNL     1      31.449  44.880  56.508  1.00  0.00     0.209 HD
ENDBRANCH  25  26
ENDBRANCH  24  25
ENDBRANCH  12  24
TORSDOF 4
ENDMDL
MODEL 2
REMARK VINA RESULT:      -8.4      4.407      7.618
REMARK  4 active torsions:
REMARK  status: ('A' for Active; 'I' for Inactive)
REMARK    1  A    between atoms: C_9  and  C_10 
REMARK    2  A    between atoms: C_22  and  C_23 
REMARK    3  A    between atoms: C_23  and  C_24 
REMARK    4  A    between atoms: C_24  and  O_25 
ROOT
HETATM    1  C   UNL     1      20.282  47.909  49.140  1.00  0.00     0.069 C 
HETATM    2  C   UNL     1      21.648  48.533  48.980  1.00  0.00     0.018 A 
HETATM    3  N   UNL     1      22.705  47.784  49.476  1.00  0.00    -0.343 N 
HETATM    4  C   UNL     1      23.994  48.161  49.312  1.00  0.00     0.146 A 
HETATM    5  N   UNL     1      24.248  49.375  48.716  1.00  0.00    -0.179 N 
HETATM    6  N   UNL     1      25.579  49.635  48.622  1.00  0.00    -0.167 NA
HETATM    7  C   UNL     1      26.163  48.552  49.154  1.00  0.00     0.066 A 
HETATM    8  C   UNL     1      27.645  48.475  49.220  1.00  0.00     0.073 C 
HETATM    9  C   UNL     1      25.212  47.588  49.597  1.00  0.00     0.047 A 
HETATM   10  C   UNL     1      23.258  50.244  48.233  1.00  0.00     0.278 A 
HETATM   11  O   UNL     1      23.539  51.321  47.718  1.00  0.00    -0.265 OA
HETATM   12  C   UNL     1      21.848  49.726  48.368  1.00  0.00     0.036 A 
HETATM   13  H   UNL     1      22.476  46.887  49.907  1.00  0.00     0.167 HD
ENDROOT
BRANCH   9  14
HETATM   14  C   UNL     1      25.393  46.305  50.264  1.00  0.00    -0.009 A 
HETATM   15  C   UNL     1      25.642  46.193  51.665  1.00  0.00    -0.015 A 
HETATM   16  C   UNL     1      25.877  44.902  52.204  1.00  0.00    -0.025 A 
HETATM   17  C   UNL     1      25.667  47.285  52.569  1.00  0.00     0.013 A 
HETATM   18  C   UNL     1      26.165  44.748  53.571  1.00  0.00     0.012 A 
HETATM   19  C   UNL     1      25.822  43.773  51.373  1.00  0.00     0.012 A 
HETATM   20  C   UNL     1      26.215  45.849  54.425  1.00  0.00     0.001 A 
HETATM   21  C   UNL     1      25.958  47.118  53.925  1.00  0.00     0.001 A 
HETATM   22  C   UNL     1      25.548  43.895  50.014  1.00  0.00     0.002 A 
HETATM   23  C   UNL     1      25.342  45.154  49.461  1.00  0.00     0.013 A 
ENDBRANCH   9  14
BRANCH  12  24
HETATM   24  C   UNL     1      20.784  50.642  47.813  1.00  0.00     0.072 C 
BRANCH  24  25
HETATM   25  C   UNL     1      20.216  51.602  48.860  1.00  0.00     0.169 C 
BRANCH  25  26
HETATM   26  O   UNL     1      19.323  52.533  48.257  1.00  0.00    -0.401 OA
HETATM   27  H   UNL     1      19.184  53.253  48.898  1.00  0.00     0.209 HD
ENDBRANCH  25  26
ENDBRANCH  24  25
ENDBRANCH  12  24
TORSDOF 4
ENDMDL
MODEL 3
REMARK VINA RESULT:      -7.9      4.672      7.897
REMARK  4 active torsions:
REMARK  status: ('A' for Active; 'I' for Inactive)
REMARK    1  A    between atoms: C_9  and  C_10 
REMARK    2  A    between atoms: C_22  and  C_23 
REMARK    3  A    between atoms: C_23  and  C_24 
REMARK    4  A    between atoms: C_24  and  O_25 
ROOT
HETATM    1  C   UNL     1      19.878  48.310  49.435  1.00  0.00     0.069 C 
HETATM    2  C   UNL     1      21.271  48.817  49.148  1.00  0.00     0.018 A 
HETATM    3  N   UNL     1      22.300  48.086  49.726  1.00  0.00    -0.343 N 
HETATM    4  C   UNL     1      23.601  48.354  49.474  1.00  0.00     0.146 A 
HETATM    5  N   UNL     1      23.905  49.447  48.695  1.00  0.00    -0.179 N 
HETATM    6  N   UNL     1      25.244  49.606  48.530  1.00  0.00    -0.167 NA
HETATM    7  C   UNL     1      25.784  48.581  49.205  1.00  0.00     0.066 A 
HETATM    8  C   UNL     1      27.259  48.423  49.245  1.00  0.00     0.073 C 
HETATM    9  C   UNL     1      24.793  47.755  49.813  1.00  0.00     0.047 A 
HETATM   10  C   UNL     1      22.951  50.294  48.111  1.00  0.00     0.278 A 
HETATM   11  O   UNL     1      23.276  51.261  47.432  1.00  0.00    -0.265 OA
HETATM   12  C   UNL     1      21.519  49.890  48.357  1.00  0.00     0.036 A 
HETATM   13  H   UNL     1      22.034  47.280  50.293  1.00  0.00     0.167 HD
ENDROOT
BRANCH   9  14
HETATM   14  C   UNL     1      24.923  46.578  50.662  1.00  0.00    -0.009 A 
HETATM   15  C   UNL     1      24.597  45.264  50.213  1.00  0.00    -0.015 A 
HETATM   16  C   UNL     1      24.688  44.195  51.142  1.00  0.00    -0.025 A 
HETATM   17  C   UNL     1      24.189  44.940  48.894  1.00  0.00     0.013 A 
HETATM   18  C   UNL     1      24.339  42.890  50.754  1.00  0.00     0.012 A 
HETATM   19  C   UNL     1      25.130  44.438  52.451  1.00  0.00     0.012 A 
HETATM   20  C   UNL     1      23.909  42.615  49.457  1.00  0.00     0.001 A 
HETATM   21  C   UNL     1      23.842  43.639  48.524  1.00  0.00     0.001 A 
HETATM   22  C   UNL     1      25.473  45.721  52.866  1.00  0.00     0.002 A 
HETATM   23  C   UNL     1      25.364  46.786  51.979  1.00  0.00     0.013 A 
ENDBRANCH   9  14
BRANCH  12  24
HETATM   24  C   UNL     1      20.491  50.777  47.697  1.00  0.00     0.072 C 
BRANCH  24  25
HETATM   25  C   UNL     1      19.951  51.864  48.628  1.00  0.00     0.169 C 
BRANCH  25  26
HETATM   26  O   UNL     1      18.993  52.674  47.955  1.00  0.00    -0.401 OA
HETATM   27  H   UNL     1      18.788  52.235  47.112  1.00  0.00     0.209 HD
ENDBRANCH  25  26
ENDBRANCH  24  25
ENDBRANCH  12  24
TORSDOF 4
ENDMDL
MODEL 4
REMARK VINA RESULT:      -7.8      2.868      4.664
REMARK  4 active torsions:
REMARK  status: ('A' for Active; 'I' for Inactive)
REMARK    1  A    between atoms: C_9  and  C_10 
REMARK    2  A    between atoms: C_22  and  C_23 
REMARK    3  A    between atoms: C_23  and  C_24 
REMARK    4  A    between atoms: C_24  and  O_25 
ROOT
HETATM    1  C   UNL     1      26.197  47.255  53.126  1.00  0.00     0.069 C 
HETATM    2  C   UNL     1      25.370  46.484  52.125  1.00  0.00     0.018 A 
HETATM    3  N   UNL     1      24.701  47.256  51.187  1.00  0.00    -0.343 N 
HETATM    4  C   UNL     1      24.007  46.706  50.165  1.00  0.00     0.146 A 
HETATM    5  N   UNL     1      23.890  45.336  50.118  1.00  0.00    -0.179 N 
HETATM    6  N   UNL     1      23.162  44.917  49.049  1.00  0.00    -0.167 NA
HETATM    7  C   UNL     1      22.837  46.049  48.408  1.00  0.00     0.066 A 
HETATM    8  C   UNL     1      22.029  45.983  47.164  1.00  0.00     0.073 C 
HETATM    9  C   UNL     1      23.351  47.206  49.063  1.00  0.00     0.047 A 
HETATM   10  C   UNL     1      24.470  44.458  51.046  1.00  0.00     0.278 A 
HETATM   11  O   UNL     1      24.326  43.244  50.963  1.00  0.00    -0.265 OA
HETATM   12  C   UNL     1      25.301  45.130  52.109  1.00  0.00     0.036 A 
HETATM   13  H   UNL     1      24.816  48.269  51.253  1.00  0.00     0.167 HD
ENDROOT
BRANCH   9  14
HETATM   14  C   UNL     1      23.207  48.622  48.750  1.00  0.00    -0.009 A 
HETATM   15  C   UNL     1      21.962  49.312  48.851  1.00  0.00    -0.015 A 
HETATM   16  C   UNL     1      21.914  50.673  48.453  1.00  0.00    -0.025 A 
HETATM   17  C   UNL     1      20.758  48.736  49.329  1.00  0.00     0.013 A 
HETATM   18  C   UNL     1      20.701  51.380  48.498  1.00  0.00     0.012 A 
HETATM   19  C   UNL     1      23.080  51.318  48.013  1.00  0.00     0.012 A 
HETATM   20  C   UNL     1      19.528  50.771  48.942  1.00  0.00     0.001 A 
HETATM   21  C   UNL     1      19.558  49.450  49.366  1.00  0.00     0.001 A 
HETATM   22  C   UNL     1      24.294  50.640  47.948  1.00  0.00     0.002 A 
HETATM   23  C   UNL     1      24.356  49.298  48.308  1.00  0.00     0.013 A 
ENDBRANCH   9  14
BRANCH  12  24
HETATM   24  C   UNL     1      25.959  44.185  53.086  1.00  0.00     0.072 C 
BRANCH  24  25
HETATM   25  C   UNL     1      25.266  44.156  54.450  1.00  0.00     0.169 C 
BRANCH  25  26
HETATM   26  O   UNL     1      25.722  43.050  55.223  1.00  0.00    -0.401 OA
HETATM   27  H   UNL     1      26.633  42.859  54.941  1.00  0.00     0.209 HD
ENDBRANCH  25  26
ENDBRANCH  24  25
ENDBRANCH  12  24
TORSDOF 4
ENDMDL
MODEL 5
REMARK VINA RESULT:      -7.8      3.720      5.965
REMARK  4 active torsions:
REMARK  status: ('A' for Active; 'I' for Inactive)
REMARK    1  A    between atoms: C_9  and  C_10 
REMARK    2  A    between atoms: C_22  and  C_23 
REMARK    3  A    between atoms: C_23  and  C_24 
REMARK    4  A    between atoms: C_24  and  O_25 
ROOT
HETATM    1  C   UNL     1      25.719  46.968  51.971  1.00  0.00     0.069 C 
HETATM    2  C   UNL     1      24.877  46.352  50.880  1.00  0.00     0.018 A 
HETATM    3  N   UNL     1      23.967  47.208  50.276  1.00  0.00    -0.343 N 
HETATM    4  C   UNL     1      23.219  46.831  49.215  1.00  0.00     0.146 A 
HETATM    5  N   UNL     1      23.302  45.526  48.787  1.00  0.00    -0.179 N 
HETATM    6  N   UNL     1      22.495  45.280  47.722  1.00  0.00    -0.167 NA
HETATM    7  C   UNL     1      21.912  46.461  47.471  1.00  0.00     0.066 A 
HETATM    8  C   UNL     1      20.947  46.580  46.349  1.00  0.00     0.073 C 
HETATM    9  C   UNL     1      22.339  47.476  48.376  1.00  0.00     0.047 A 
HETATM   10  C   UNL     1      24.139  44.556  49.360  1.00  0.00     0.278 A 
HETATM   11  O   UNL     1      24.168  43.403  48.946  1.00  0.00    -0.265 OA
HETATM   12  C   UNL     1      25.010  45.062  50.482  1.00  0.00     0.036 A 
HETATM   13  H   UNL     1      23.939  48.170  50.619  1.00  0.00     0.167 HD
ENDROOT
BRANCH   9  14
HETATM   14  C   UNL     1      21.940  48.872  48.500  1.00  0.00    -0.009 A 
HETATM   15  C   UNL     1      20.695  49.271  49.072  1.00  0.00    -0.015 A 
HETATM   16  C   UNL     1      20.371  50.652  49.079  1.00  0.00    -0.025 A 
HETATM   17  C   UNL     1      19.749  48.382  49.644  1.00  0.00     0.013 A 
HETATM   18  C   UNL     1      19.139  51.086  49.596  1.00  0.00     0.012 A 
HETATM   19  C   UNL     1      21.281  51.590  48.570  1.00  0.00     0.012 A 
HETATM   20  C   UNL     1      18.218  50.180  50.120  1.00  0.00     0.001 A 
HETATM   21  C   UNL     1      18.527  48.828  50.151  1.00  0.00     0.001 A 
HETATM   22  C   UNL     1      22.506  51.189  48.043  1.00  0.00     0.002 A 
HETATM   23  C   UNL     1      22.830  49.838  48.002  1.00  0.00     0.013 A 
ENDBRANCH   9  14
BRANCH  12  24
HETATM   24  C   UNL     1      25.940  44.030  51.074  1.00  0.00     0.072 C 
BRANCH  24  25
HETATM   25  C   UNL     1      27.288  43.957  50.355  1.00  0.00     0.169 C 
BRANCH  25  26
HETATM   26  O   UNL     1      27.154  43.305  49.097  1.00  0.00    -0.401 OA
HETATM   27  H   UNL     1      26.792  43.958  48.472  1.00  0.00     0.209 HD
ENDBRANCH  25  26
ENDBRANCH  24  25
ENDBRANCH  12  24
TORSDOF 4
ENDMDL
MODEL 6
REMARK VINA RESULT:      -7.6     12.101     14.057
REMARK  4 active torsions:
REMARK  status: ('A' for Active; 'I' for Inactive)
REMARK    1  A    between atoms: C_9  and  C_10 
REMARK    2  A    between atoms: C_22  and  C_23 
REMARK    3  A    between atoms: C_23  and  C_24 
REMARK    4  A    between atoms: C_24  and  O_25 
ROOT
HETATM    1  C   UNL     1      29.010  53.335  39.805  1.00  0.00     0.069 C 
HETATM    2  C   UNL     1      29.542  51.923  39.769  1.00  0.00     0.018 A 
HETATM    3  N   UNL     1      30.679  51.697  40.532  1.00  0.00    -0.343 N 
HETATM    4  C   UNL     1      31.210  50.463  40.684  1.00  0.00     0.146 A 
HETATM    5  N   UNL     1      30.653  49.421  39.978  1.00  0.00    -0.179 N 
HETATM    6  N   UNL     1      31.286  48.242  40.214  1.00  0.00    -0.167 NA
HETATM    7  C   UNL     1      32.244  48.554  41.099  1.00  0.00     0.066 A 
HETATM    8  C   UNL     1      33.153  47.493  41.603  1.00  0.00     0.073 C 
HETATM    9  C   UNL     1      32.236  49.939  41.437  1.00  0.00     0.047 A 
HETATM   10  C   UNL     1      29.544  49.542  39.128  1.00  0.00     0.278 A 
HETATM   11  O   UNL     1      29.093  48.582  38.513  1.00  0.00    -0.265 OA
HETATM   12  C   UNL     1      28.946  50.925  39.070  1.00  0.00     0.036 A 
HETATM   13  H   UNL     1      31.059  52.495  41.045  1.00  0.00     0.167 HD
ENDROOT
BRANCH   9  14
HETATM   14  C   UNL     1      33.110  50.713  42.309  1.00  0.00    -0.009 A 
HETATM   15  C   UNL     1      34.486  50.943  42.013  1.00  0.00    -0.015 A 
HETATM   16  C   UNL     1      35.269  51.647  42.964  1.00  0.00    -0.025 A 
HETATM   17  C   UNL     1      35.138  50.519  40.827  1.00  0.00     0.013 A 
HETATM   18  C   UNL     1      36.638  51.862  42.733  1.00  0.00     0.012 A 
HETATM   19  C   UNL     1      34.677  52.135  44.139  1.00  0.00     0.012 A 
HETATM   20  C   UNL     1      37.253  51.402  41.570  1.00  0.00     0.001 A 
HETATM   21  C   UNL     1      36.501  50.737  40.612  1.00  0.00     0.001 A 
HETATM   22  C   UNL     1      33.325  51.929  44.399  1.00  0.00     0.002 A 
HETATM   23  C   UNL     1      32.547  51.216  43.493  1.00  0.00     0.013 A 
ENDBRANCH   9  14
BRANCH  12  24
HETATM   24  C   UNL     1      27.729  51.050  38.186  1.00  0.00     0.072 C 
BRANCH  24  25
HETATM   25  C   UNL     1      26.473  50.435  38.806  1.00  0.00     0.169 C 
BRANCH  25  26
HETATM   26  O   UNL     1      26.390  50.749  40.193  1.00  0.00    -0.401 OA
HETATM   27  H   UNL     1      26.145  51.688  40.259  1.00  0.00     0.209 HD
ENDBRANCH  25  26
ENDBRANCH  24  25
ENDBRANCH  12  24
TORSDOF 4
ENDMDL
MODEL 7
REMARK VINA RESULT:      -7.6     11.311     13.706
REMARK  4 active torsions:
REMARK  status: ('A' for Active; 'I' for Inactive)
REMARK    1  A    between atoms: C_9  and  C_10 
REMARK    2  A    between atoms: C_22  and  C_23 
REMARK    3  A    between atoms: C_23  and  C_24 
REMARK    4  A    between atoms: C_24  and  O_25 
ROOT
HETATM    1  C   UNL     1      29.550  46.525  39.739  1.00  0.00     0.069 C 
HETATM    2  C   UNL     1      29.057  47.951  39.805  1.00  0.00     0.018 A 
HETATM    3  N   UNL     1      30.025  48.901  40.100  1.00  0.00    -0.343 N 
HETATM    4  C   UNL     1      29.758  50.226  40.090  1.00  0.00     0.146 A 
HETATM    5  N   UNL     1      28.461  50.630  39.872  1.00  0.00    -0.179 N 
HETATM    6  N   UNL     1      28.331  51.983  39.897  1.00  0.00    -0.167 NA
HETATM    7  C   UNL     1      29.577  52.429  40.117  1.00  0.00     0.066 A 
HETATM    8  C   UNL     1      29.828  53.890  40.204  1.00  0.00     0.073 C 
HETATM    9  C   UNL     1      30.517  51.365  40.238  1.00  0.00     0.047 A 
HETATM   10  C   UNL     1      27.390  49.758  39.625  1.00  0.00     0.278 A 
HETATM   11  O   UNL     1      26.250  50.171  39.446  1.00  0.00    -0.265 OA
HETATM   12  C   UNL     1      27.770  48.301  39.563  1.00  0.00     0.036 A 
HETATM   13  H   UNL     1      30.976  48.561  40.252  1.00  0.00     0.167 HD
ENDROOT
BRANCH   9  14
HETATM   14  C   UNL     1      31.947  51.383  40.519  1.00  0.00    -0.009 A 
HETATM   15  C   UNL     1      32.472  51.539  41.837  1.00  0.00    -0.015 A 
HETATM   16  C   UNL     1      33.880  51.617  41.994  1.00  0.00    -0.025 A 
HETATM   17  C   UNL     1      31.685  51.617  43.014  1.00  0.00     0.013 A 
HETATM   18  C   UNL     1      34.439  51.810  43.268  1.00  0.00     0.012 A 
HETATM   19  C   UNL     1      34.719  51.501  40.876  1.00  0.00     0.012 A 
HETATM   20  C   UNL     1      33.633  51.916  44.400  1.00  0.00     0.001 A 
HETATM   21  C   UNL     1      32.255  51.812  44.274  1.00  0.00     0.001 A 
HETATM   22  C   UNL     1      34.193  51.319  39.599  1.00  0.00     0.002 A 
HETATM   23  C   UNL     1      32.815  51.268  39.422  1.00  0.00     0.013 A 
ENDBRANCH   9  14
BRANCH  12  24
HETATM   24  C   UNL     1      26.626  47.363  39.259  1.00  0.00     0.072 C 
BRANCH  24  25
HETATM   25  C   UNL     1      25.958  46.805  40.517  1.00  0.00     0.169 C 
BRANCH  25  26
HETATM   26  O   UNL     1      25.405  47.857  41.303  1.00  0.00    -0.401 OA
HETATM   27  H   UNL     1      26.048  48.058  42.005  1.00  0.00     0.209 HD
ENDBRANCH  25  26
ENDBRANCH  24  25
ENDBRANCH  12  24
TORSDOF 4
ENDMDL
MODEL 8
REMARK VINA RESULT:      -7.5      4.343      7.648
REMARK  4 active torsions:
REMARK  status: ('A' for Active; 'I' for Inactive)
REMARK    1  A    between atoms: C_9  and  C_10 
REMARK    2  A    between atoms: C_22  and  C_23 
REMARK    3  A    between atoms: C_23  and  C_24 
REMARK    4  A    between atoms: C_24  and  O_25 
ROOT
HETATM    1  C   UNL     1      29.466  38.473  51.209  1.00  0.00     0.069 C 
HETATM    2  C   UNL     1      28.712  39.478  50.371  1.00  0.00     0.018 A 
HETATM    3  N   UNL     1      28.214  40.573  51.063  1.00  0.00    -0.343 N 
HETATM    4  C   UNL     1      27.610  41.607  50.434  1.00  0.00     0.146 A 
HETATM    5  N   UNL     1      27.404  41.515  49.076  1.00  0.00    -0.179 N 
HETATM    6  N   UNL     1      26.782  42.614  48.574  1.00  0.00    -0.167 NA
HETATM    7  C   UNL     1      26.614  43.412  49.638  1.00  0.00     0.066 A 
HETATM    8  C   UNL     1      25.956  44.733  49.469  1.00  0.00     0.073 C 
HETATM    9  C   UNL     1      27.125  42.831  50.835  1.00  0.00     0.047 A 
HETATM   10  C   UNL     1      27.809  40.430  48.284  1.00  0.00     0.278 A 
HETATM   11  O   UNL     1      27.592  40.395  47.078  1.00  0.00    -0.265 OA
HETATM   12  C   UNL     1      28.552  39.352  49.031  1.00  0.00     0.036 A 
HETATM   13  H   UNL     1      28.390  40.606  52.068  1.00  0.00     0.167 HD
ENDROOT
BRANCH   9  14
HETATM   14  C   UNL     1      27.117  43.314  52.209  1.00  0.00    -0.009 A 
HETATM   15  C   UNL     1      28.284  43.321  53.031  1.00  0.00    -0.015 A 
HETATM   16  C   UNL     1      28.155  43.743  54.379  1.00  0.00    -0.025 A 
HETATM   17  C   UNL     1      29.578  42.937  52.596  1.00  0.00     0.013 A 
HETATM   18  C   UNL     1      29.269  43.729  55.235  1.00  0.00     0.012 A 
HETATM   19  C   UNL     1      26.912  44.180  54.862  1.00  0.00     0.012 A 
HETATM   20  C   UNL     1      30.520  43.313  54.782  1.00  0.00     0.001 A 
HETATM   21  C   UNL     1      30.676  42.924  53.458  1.00  0.00     0.001 A 
HETATM   22  C   UNL     1      25.788  44.197  54.040  1.00  0.00     0.002 A 
HETATM   23  C   UNL     1      25.889  43.760  52.724  1.00  0.00     0.013 A 
ENDBRANCH   9  14
BRANCH  12  24
HETATM   24  C   UNL     1      29.023  38.201  48.174  1.00  0.00     0.072 C 
BRANCH  24  25
HETATM   25  C   UNL     1      27.907  37.211  47.835  1.00  0.00     0.169 C 
BRANCH  25  26
HETATM   26  O   UNL     1      27.487  36.508  49.001  1.00  0.00    -0.401 OA
HETATM   27  H   UNL     1      27.726  35.574  48.873  1.00  0.00     0.209 HD
ENDBRANCH  25  26
ENDBRANCH  24  25
ENDBRANCH  12  24
TORSDOF 4
ENDMDL
MODEL 9
REMARK VINA RESULT:      -7.4      3.475      7.596
REMARK  4 active torsions:
REMARK  status: ('A' for Active; 'I' for Inactive)
REMARK    1  A    between atoms: C_9  and  C_10 
REMARK    2  A    between atoms: C_22  and  C_23 
REMARK    3  A    between atoms: C_23  and  C_24 
REMARK    4  A    between atoms: C_24  and  O_25 
ROOT
HETATM    1  C   UNL     1      26.368  41.531  50.644  1.00  0.00     0.069 C 
HETATM    2  C   UNL     1      26.162  42.919  51.201  1.00  0.00     0.018 A 
HETATM    3  N   UNL     1      27.011  43.274  52.240  1.00  0.00    -0.343 N 
HETATM    4  C   UNL     1      27.019  44.519  52.769  1.00  0.00     0.146 A 
HETATM    5  N   UNL     1      26.086  45.425  52.320  1.00  0.00    -0.179 N 
HETATM    6  N   UNL     1      26.198  46.630  52.939  1.00  0.00    -0.167 NA
HETATM    7  C   UNL     1      27.233  46.474  53.777  1.00  0.00     0.066 A 
HETATM    8  C   UNL     1      27.660  47.608  54.636  1.00  0.00     0.073 C 
HETATM    9  C   UNL     1      27.794  45.165  53.705  1.00  0.00     0.047 A 
HETATM   10  C   UNL     1      25.139  45.159  51.320  1.00  0.00     0.278 A 
HETATM   11  O   UNL     1      24.323  46.001  50.963  1.00  0.00    -0.265 OA
HETATM   12  C   UNL     1      25.240  43.783  50.711  1.00  0.00     0.036 A 
HETATM   13  H   UNL     1      27.692  42.575  52.542  1.00  0.00     0.167 HD
ENDROOT
BRANCH   9  14
HETATM   14  C   UNL     1      28.882  44.551  54.454  1.00  0.00    -0.009 A 
HETATM   15  C   UNL     1      29.227  44.949  55.780  1.00  0.00    -0.015 A 
HETATM   16  C   UNL     1      30.351  44.339  56.394  1.00  0.00    -0.025 A 
HETATM   17  C   UNL     1      28.521  45.915  56.541  1.00  0.00     0.013 A 
HETATM   18  C   UNL     1      30.750  44.728  57.683  1.00  0.00     0.012 A 
HETATM   19  C   UNL     1      31.068  43.342  55.714  1.00  0.00     0.012 A 
HETATM   20  C   UNL     1      30.052  45.705  58.389  1.00  0.00     0.001 A 
HETATM   21  C   UNL     1      28.931  46.294  57.821  1.00  0.00     0.001 A 
HETATM   22  C   UNL     1      30.701  42.943  54.432  1.00  0.00     0.002 A 
HETATM   23  C   UNL     1      29.620  43.549  53.803  1.00  0.00     0.013 A 
ENDBRANCH   9  14
BRANCH  12  24
HETATM   24  C   UNL     1      24.247  43.507  49.607  1.00  0.00     0.072 C 
BRANCH  24  25
HETATM   25  C   UNL     1      22.993  42.782  50.098  1.00  0.00     0.169 C 
BRANCH  25  26
HETATM   26  O   UNL     1      22.479  41.922  49.086  1.00  0.00    -0.401 OA
HETATM   27  H   UNL     1      21.625  41.582  49.405  1.00  0.00     0.209 HD
ENDBRANCH  25  26
ENDBRANCH  24  25
ENDBRANCH  12  24
TORSDOF 4
ENDMDL
MODEL 10
REMARK VINA RESULT:      -7.4     11.792     14.129
REMARK  4 active torsions:
REMARK  status: ('A' for Active; 'I' for Inactive)
REMARK    1  A    between atoms: C_9  and  C_10 
REMARK    2  A    between atoms: C_22  and  C_23 
REMARK    3  A    between atoms: C_23  and  C_24 
REMARK    4  A    between atoms: C_24  and  O_25 
ROOT
HETATM    1  C   UNL     1      29.486  47.341  40.311  1.00  0.00     0.069 C 
HETATM    2  C   UNL     1      29.295  48.815  40.047  1.00  0.00     0.018 A 
HETATM    3  N   UNL     1      30.132  49.659  40.764  1.00  0.00    -0.343 N 
HETATM    4  C   UNL     1      30.153  50.996  40.558  1.00  0.00     0.146 A 
HETATM    5  N   UNL     1      29.245  51.535  39.677  1.00  0.00    -0.179 N 
HETATM    6  N   UNL     1      29.368  52.885  39.571  1.00  0.00    -0.167 NA
HETATM    7  C   UNL     1      30.385  53.187  40.390  1.00  0.00     0.066 A 
HETATM    8  C   UNL     1      30.817  54.601  40.533  1.00  0.00     0.073 C 
HETATM    9  C   UNL     1      30.923  52.034  41.032  1.00  0.00     0.047 A 
HETATM   10  C   UNL     1      28.311  50.788  38.944  1.00  0.00     0.278 A 
HETATM   11  O   UNL     1      27.516  51.320  38.177  1.00  0.00    -0.265 OA
HETATM   12  C   UNL     1      28.397  49.297  39.153  1.00  0.00     0.036 A 
HETATM   13  H   UNL     1      30.795  49.220  41.405  1.00  0.00     0.167 HD
ENDROOT
BRANCH   9  14
HETATM   14  C   UNL     1      31.987  51.900  42.018  1.00  0.00    -0.009 A 
HETATM   15  C   UNL     1      33.336  51.599  41.661  1.00  0.00    -0.015 A 
HETATM   16  C   UNL     1      34.282  51.417  42.702  1.00  0.00    -0.025 A 
HETATM   17  C   UNL     1      33.808  51.472  40.330  1.00  0.00     0.013 A 
HETATM   18  C   UNL     1      35.612  51.081  42.399  1.00  0.00     0.012 A 
HETATM   19  C   UNL     1      33.891  51.573  44.041  1.00  0.00     0.012 A 
HETATM   20  C   UNL     1      36.033  50.931  41.079  1.00  0.00     0.001 A 
HETATM   21  C   UNL     1      35.132  51.135  40.043  1.00  0.00     0.001 A 
HETATM   22  C   UNL     1      32.579  51.896  44.373  1.00  0.00     0.002 A 
HETATM   23  C   UNL     1      31.631  52.051  43.368  1.00  0.00     0.013 A 
ENDBRANCH   9  14
BRANCH  12  24
HETATM   24  C   UNL     1      27.419  48.487  38.337  1.00  0.00     0.072 C 
BRANCH  24  25
HETATM   25  C   UNL     1      26.137  48.150  39.100  1.00  0.00     0.169 C 
BRANCH  25  26
HETATM   26  O   UNL     1      25.564  49.325  39.666  1.00  0.00    -0.401 OA
HETATM   27  H   UNL     1      26.267  49.996  39.707  1.00  0.00     0.209 HD
ENDBRANCH  25  26
ENDBRANCH  24  25
ENDBRANCH  12  24
TORSDOF 4
ENDMDL
