MODEL 1
REMARK VINA RESULT:     -10.6      0.000      0.000
REMARK  6 active torsions:
REMARK  status: ('A' for Active; 'I' for Inactive)
REMARK    1  A    between atoms: O_2  and  C_3 
REMARK    2  A    between atoms: C_6  and  N_7 
REMARK       I    between atoms: N_7  and  C_8 
REMARK       I    between atoms: C_8  and  N_9 
REMARK    3  A    between atoms: N_9  and  C_10 
REMARK    4  A    between atoms: C_10  and  C_11 
REMARK       I    between atoms: C_11  and  N_12 
REMARK    5  A    between atoms: N_12  and  N_13 
REMARK       I    between atoms: N_13  and  C_14 
REMARK       I    between atoms: C_14  and  N_15 
REMARK    6  A    between atoms: N_15  and  C_16 
ROOT
HETATM    1  C   UNL     1      25.822  46.879  50.016  1.00  0.00     0.253 C 
HETATM    2  N   UNL     1      25.298  46.776  51.291  1.00  0.00    -0.265 N 
HETATM    3  O   UNL     1      26.103  45.897  49.330  1.00  0.00    -0.270 OA
HETATM    4  H   UNL     1      24.930  47.615  51.744  1.00  0.00     0.190 HD
ENDROOT
BRANCH   2   5
HETATM    5  N   UNL     1      24.849  45.507  51.713  1.00  0.00    -0.249 N 
HETATM    6  C   UNL     1      25.656  44.709  52.508  1.00  0.00     0.339 C 
HETATM    7  N   UNL     1      27.000  44.819  52.229  1.00  0.00    -0.307 N 
HETATM    8  O   UNL     1      25.135  43.974  53.341  1.00  0.00    -0.245 OA
HETATM    9  H   UNL     1      27.192  45.187  51.313  1.00  0.00     0.170 HD
HETATM   10  H   UNL     1      23.881  45.504  52.038  1.00  0.00     0.192 HD
BRANCH   7  11
HETATM   11  C   UNL     1      28.079  44.220  52.932  1.00  0.00     0.047 A 
HETATM   12  C   UNL     1      28.526  44.783  54.170  1.00  0.00     0.001 A 
HETATM   13  C   UNL     1      29.613  44.161  54.843  1.00  0.00    -0.024 A 
HETATM   14  C   UNL     1      27.974  45.938  54.785  1.00  0.00     0.014 A 
HETATM   15  C   UNL     1      30.104  44.690  56.048  1.00  0.00     0.012 A 
HETATM   16  C   UNL     1      30.210  43.013  54.308  1.00  0.00     0.012 A 
HETATM   17  C   UNL     1      29.542  45.831  56.615  1.00  0.00     0.001 A 
HETATM   18  C   UNL     1      28.475  46.453  55.984  1.00  0.00     0.001 A 
HETATM   19  C   UNL     1      29.754  42.464  53.116  1.00  0.00     0.003 A 
HETATM   20  C   UNL     1      28.696  43.063  52.436  1.00  0.00     0.030 A 
ENDBRANCH   7  11
ENDBRANCH   2   5
BRANCH   1  21
HETATM   21  C   UNL     1      25.848  48.305  49.457  1.00  0.00     0.228 C 
BRANCH  21  22
HETATM   22  N   UNL     1      24.640  48.766  48.795  1.00  0.00    -0.334 N 
HETATM   23  C   UNL     1      24.588  49.866  48.001  1.00  0.00     0.321 C 
HETATM   24  N   UNL     1      23.351  50.288  47.619  1.00  0.00    -0.309 N 
HETATM   25  O   UNL     1      25.605  50.410  47.569  1.00  0.00    -0.247 OA
HETATM   26  H   UNL     1      23.379  50.908  46.819  1.00  0.00     0.170 HD
HETATM   27  H   UNL     1      23.865  48.120  48.708  1.00  0.00     0.164 HD
BRANCH  24  28
HETATM   28  C   UNL     1      22.117  50.224  48.300  1.00  0.00     0.036 A 
HETATM   29  C   UNL     1      21.063  49.387  47.924  1.00  0.00     0.032 A 
HETATM   30  C   UNL     1      19.907  49.293  48.711  1.00  0.00     0.039 A 
HETATM   31  C   UNL     1      19.797  50.027  49.889  1.00  0.00     0.068 A 
HETATM   32  C   UNL     1      20.835  50.884  50.254  1.00  0.00     0.039 A 
HETATM   33  C   UNL     1      21.993  50.972  49.474  1.00  0.00     0.032 A 
BRANCH  31  34
HETATM   34  O   UNL     1      18.738  49.995  50.752  1.00  0.00    -0.356 OA
HETATM   35  C   UNL     1      18.523  48.765  51.437  1.00  0.00     0.210 C 
ENDBRANCH  31  34
ENDBRANCH  24  28
ENDBRANCH  21  22
ENDBRANCH   1  21
TORSDOF 6
ENDMDL
MODEL 2
REMARK VINA RESULT:     -10.3      1.900      2.920
REMARK  6 active torsions:
REMARK  status: ('A' for Active; 'I' for Inactive)
REMARK    1  A    between atoms: O_2  and  C_3 
REMARK    2  A    between atoms: C_6  and  N_7 
REMARK       I    between atoms: N_7  and  C_8 
REMARK       I    between atoms: C_8  and  N_9 
REMARK    3  A    between atoms: N_9  and  C_10 
REMARK    4  A    between atoms: C_10  and  C_11 
REMARK       I    between atoms: C_11  and  N_12 
REMARK    5  A    between atoms: N_12  and  N_13 
REMARK       I    between atoms: N_13  and  C_14 
REMARK       I    between atoms: C_14  and  N_15 
REMARK    6  A    between atoms: N_15  and  C_16 
ROOT
HETATM    1  C   UNL     1      24.196  46.550  49.918  1.00  0.00     0.253 C 
HETATM    2  N   UNL     1      24.491  46.462  51.266  1.00  0.00    -0.265 N 
HETATM    3  O   UNL     1      24.115  45.562  49.188  1.00  0.00    -0.270 OA
HETATM    4  H   UNL     1      24.379  47.293  51.851  1.00  0.00     0.190 HD
ENDROOT
BRANCH   2   5
HETATM    5  N   UNL     1      24.456  45.184  51.861  1.00  0.00    -0.249 N 
HETATM    6  C   UNL     1      25.221  44.916  52.985  1.00  0.00     0.339 C 
HETATM    7  N   UNL     1      26.435  45.563  53.002  1.00  0.00    -0.307 N 
HETATM    8  O   UNL     1      24.792  44.132  53.826  1.00  0.00    -0.245 OA
HETATM    9  H   UNL     1      26.743  45.868  52.095  1.00  0.00     0.170 HD
HETATM   10  H   UNL     1      23.513  44.800  51.948  1.00  0.00     0.192 HD
BRANCH   7  11
HETATM   11  C   UNL     1      27.389  45.580  54.055  1.00  0.00     0.047 A 
HETATM   12  C   UNL     1      28.448  44.615  54.075  1.00  0.00     0.001 A 
HETATM   13  C   UNL     1      29.380  44.657  55.148  1.00  0.00    -0.024 A 
HETATM   14  C   UNL     1      28.638  43.595  53.106  1.00  0.00     0.014 A 
HETATM   15  C   UNL     1      30.421  43.717  55.226  1.00  0.00     0.012 A 
HETATM   16  C   UNL     1      29.268  45.636  56.142  1.00  0.00     0.012 A 
HETATM   17  C   UNL     1      30.569  42.725  54.261  1.00  0.00     0.001 A 
HETATM   18  C   UNL     1      29.678  42.665  53.199  1.00  0.00     0.001 A 
HETATM   19  C   UNL     1      28.249  46.580  56.099  1.00  0.00     0.003 A 
HETATM   20  C   UNL     1      27.320  46.551  55.063  1.00  0.00     0.030 A 
ENDBRANCH   7  11
ENDBRANCH   2   5
BRANCH   1  21
HETATM   21  C   UNL     1      23.794  47.951  49.449  1.00  0.00     0.228 C 
BRANCH  21  22
HETATM   22  N   UNL     1      22.374  48.192  49.262  1.00  0.00    -0.334 N 
HETATM   23  C   UNL     1      21.706  47.911  48.113  1.00  0.00     0.321 C 
HETATM   24  N   UNL     1      20.431  48.379  48.016  1.00  0.00    -0.309 N 
HETATM   25  O   UNL     1      22.187  47.196  47.234  1.00  0.00    -0.247 OA
HETATM   26  H   UNL     1      19.895  47.909  47.296  1.00  0.00     0.170 HD
HETATM   27  H   UNL     1      21.800  48.336  50.084  1.00  0.00     0.164 HD
BRANCH  24  28
HETATM   28  C   UNL     1      19.848  49.550  48.545  1.00  0.00     0.036 A 
HETATM   29  C   UNL     1      20.352  50.835  48.330  1.00  0.00     0.032 A 
HETATM   30  C   UNL     1      19.660  51.963  48.795  1.00  0.00     0.039 A 
HETATM   31  C   UNL     1      18.451  51.817  49.469  1.00  0.00     0.068 A 
HETATM   32  C   UNL     1      17.958  50.535  49.710  1.00  0.00     0.039 A 
HETATM   33  C   UNL     1      18.643  49.409  49.239  1.00  0.00     0.032 A 
BRANCH  31  34
HETATM   34  O   UNL     1      17.673  52.838  49.939  1.00  0.00    -0.356 OA
HETATM   35  C   UNL     1      16.281  52.562  50.061  1.00  0.00     0.210 C 
ENDBRANCH  31  34
ENDBRANCH  24  28
ENDBRANCH  21  22
ENDBRANCH   1  21
TORSDOF 6
ENDMDL
MODEL 3
REMARK VINA RESULT:     -10.1      3.111      5.039
REMARK  6 active torsions:
REMARK  status: ('A' for Active; 'I' for Inactive)
REMARK    1  A    between atoms: O_2  and  C_3 
REMARK    2  A    between atoms: C_6  and  N_7 
REMARK       I    between atoms: N_7  and  C_8 
REMARK       I    between atoms: C_8  and  N_9 
REMARK    3  A    between atoms: N_9  and  C_10 
REMARK    4  A    between atoms: C_10  and  C_11 
REMARK       I    between atoms: C_11  and  N_12 
REMARK    5  A    between atoms: N_12  and  N_13 
REMARK       I    between atoms: N_13  and  C_14 
REMARK       I    between atoms: C_14  and  N_15 
REMARK    6  A    between atoms: N_15  and  C_16 
ROOT
HETATM    1  C   UNL     1      26.618  41.225  50.026  1.00  0.00     0.253 C 
HETATM    2  N   UNL     1      27.763  41.614  50.695  1.00  0.00    -0.265 N 
HETATM    3  O   UNL     1      26.135  40.097  50.133  1.00  0.00    -0.270 OA
HETATM    4  H   UNL     1      28.019  42.604  50.700  1.00  0.00     0.190 HD
ENDROOT
BRANCH   2   5
HETATM    5  N   UNL     1      28.246  40.767  51.714  1.00  0.00    -0.249 N 
HETATM    6  C   UNL     1      28.588  41.288  52.951  1.00  0.00     0.339 C 
HETATM    7  N   UNL     1      29.138  42.549  52.895  1.00  0.00    -0.307 N 
HETATM    8  O   UNL     1      28.414  40.605  53.956  1.00  0.00    -0.245 OA
HETATM    9  H   UNL     1      29.512  42.785  51.992  1.00  0.00     0.170 HD
HETATM   10  H   UNL     1      27.718  39.897  51.806  1.00  0.00     0.192 HD
BRANCH   7  11
HETATM   11  C   UNL     1      29.489  43.387  53.987  1.00  0.00     0.047 A 
HETATM   12  C   UNL     1      28.678  44.523  54.306  1.00  0.00     0.001 A 
HETATM   13  C   UNL     1      29.064  45.343  55.401  1.00  0.00    -0.024 A 
HETATM   14  C   UNL     1      27.510  44.913  53.599  1.00  0.00     0.014 A 
HETATM   15  C   UNL     1      28.315  46.483  55.738  1.00  0.00     0.012 A 
HETATM   16  C   UNL     1      30.200  45.025  56.155  1.00  0.00     0.012 A 
HETATM   17  C   UNL     1      27.180  46.838  55.015  1.00  0.00     0.001 A 
HETATM   18  C   UNL     1      26.776  46.052  53.946  1.00  0.00     0.001 A 
HETATM   19  C   UNL     1      30.966  43.908  55.849  1.00  0.00     0.003 A 
HETATM   20  C   UNL     1      30.612  43.096  54.775  1.00  0.00     0.030 A 
ENDBRANCH   7  11
ENDBRANCH   2   5
BRANCH   1  21
HETATM   21  C   UNL     1      25.896  42.359  49.293  1.00  0.00     0.228 C 
BRANCH  21  22
HETATM   22  N   UNL     1      25.749  43.610  50.017  1.00  0.00    -0.334 N 
HETATM   23  C   UNL     1      24.711  43.881  50.851  1.00  0.00     0.321 C 
HETATM   24  N   UNL     1      24.602  45.163  51.295  1.00  0.00    -0.309 N 
HETATM   25  O   UNL     1      23.955  43.001  51.262  1.00  0.00    -0.247 OA
HETATM   26  H   UNL     1      24.013  45.245  52.115  1.00  0.00     0.170 HD
HETATM   27  H   UNL     1      26.561  44.208  50.111  1.00  0.00     0.164 HD
BRANCH  24  28
HETATM   28  C   UNL     1      24.937  46.378  50.660  1.00  0.00     0.036 A 
HETATM   29  C   UNL     1      26.226  46.916  50.639  1.00  0.00     0.032 A 
HETATM   30  C   UNL     1      26.510  48.070  49.896  1.00  0.00     0.039 A 
HETATM   31  C   UNL     1      25.508  48.692  49.155  1.00  0.00     0.068 A 
HETATM   32  C   UNL     1      24.214  48.175  49.195  1.00  0.00     0.039 A 
HETATM   33  C   UNL     1      23.931  47.019  49.930  1.00  0.00     0.032 A 
BRANCH  31  34
HETATM   34  O   UNL     1      25.669  49.799  48.370  1.00  0.00    -0.356 OA
HETATM   35  C   UNL     1      24.484  50.339  47.794  1.00  0.00     0.210 C 
ENDBRANCH  31  34
ENDBRANCH  24  28
ENDBRANCH  21  22
ENDBRANCH   1  21
TORSDOF 6
ENDMDL
MODEL 4
REMARK VINA RESULT:     -10.0      1.516      1.776
REMARK  6 active torsions:
REMARK  status: ('A' for Active; 'I' for Inactive)
REMARK    1  A    between atoms: O_2  and  C_3 
REMARK    2  A    between atoms: C_6  and  N_7 
REMARK       I    between atoms: N_7  and  C_8 
REMARK       I    between atoms: C_8  and  N_9 
REMARK    3  A    between atoms: N_9  and  C_10 
REMARK    4  A    between atoms: C_10  and  C_11 
REMARK       I    between atoms: C_11  and  N_12 
REMARK    5  A    between atoms: N_12  and  N_13 
REMARK       I    between atoms: N_13  and  C_14 
REMARK       I    between atoms: C_14  and  N_15 
REMARK    6  A    between atoms: N_15  and  C_16 
ROOT
HETATM    1  C   UNL     1      24.738  45.210  50.757  1.00  0.00     0.253 C 
HETATM    2  N   UNL     1      25.891  44.765  50.139  1.00  0.00    -0.265 N 
HETATM    3  O   UNL     1      23.904  44.445  51.241  1.00  0.00    -0.270 OA
HETATM    4  H   UNL     1      26.620  45.443  49.908  1.00  0.00     0.190 HD
ENDROOT
BRANCH   2   5
HETATM    5  N   UNL     1      26.231  43.404  50.289  1.00  0.00    -0.249 N 
HETATM    6  C   UNL     1      26.983  42.987  51.375  1.00  0.00     0.339 C 
HETATM    7  N   UNL     1      27.929  43.900  51.783  1.00  0.00    -0.307 N 
HETATM    8  O   UNL     1      26.782  41.874  51.850  1.00  0.00    -0.245 OA
HETATM    9  H   UNL     1      28.171  44.574  51.077  1.00  0.00     0.170 HD
HETATM   10  H   UNL     1      25.454  42.767  50.103  1.00  0.00     0.192 HD
BRANCH   7  11
HETATM   11  C   UNL     1      28.775  43.816  52.922  1.00  0.00     0.047 A 
HETATM   12  C   UNL     1      28.574  44.701  54.029  1.00  0.00     0.001 A 
HETATM   13  C   UNL     1      29.444  44.593  55.148  1.00  0.00    -0.024 A 
HETATM   14  C   UNL     1      27.571  45.704  54.097  1.00  0.00     0.014 A 
HETATM   15  C   UNL     1      29.303  45.455  56.249  1.00  0.00     0.012 A 
HETATM   16  C   UNL     1      30.455  43.625  55.165  1.00  0.00     0.012 A 
HETATM   17  C   UNL     1      28.312  46.433  56.275  1.00  0.00     0.001 A 
HETATM   18  C   UNL     1      27.445  46.556  55.199  1.00  0.00     0.001 A 
HETATM   19  C   UNL     1      30.627  42.758  54.093  1.00  0.00     0.003 A 
HETATM   20  C   UNL     1      29.792  42.853  52.983  1.00  0.00     0.030 A 
ENDBRANCH   7  11
ENDBRANCH   2   5
BRANCH   1  21
HETATM   21  C   UNL     1      24.672  46.727  50.956  1.00  0.00     0.228 C 
BRANCH  21  22
HETATM   22  N   UNL     1      23.813  47.465  50.045  1.00  0.00    -0.334 N 
HETATM   23  C   UNL     1      24.237  48.514  49.294  1.00  0.00     0.321 C 
HETATM   24  N   UNL     1      23.277  49.231  48.647  1.00  0.00    -0.309 N 
HETATM   25  O   UNL     1      25.431  48.760  49.127  1.00  0.00    -0.247 OA
HETATM   26  H   UNL     1      23.650  49.796  47.894  1.00  0.00     0.170 HD
HETATM   27  H   UNL     1      22.939  47.040  49.760  1.00  0.00     0.164 HD
BRANCH  24  28
HETATM   28  C   UNL     1      21.945  49.513  49.020  1.00  0.00     0.036 A 
HETATM   29  C   UNL     1      20.903  48.585  48.943  1.00  0.00     0.032 A 
HETATM   30  C   UNL     1      19.627  48.899  49.434  1.00  0.00     0.039 A 
HETATM   31  C   UNL     1      19.385  50.139  50.018  1.00  0.00     0.068 A 
HETATM   32  C   UNL     1      20.415  51.078  50.072  1.00  0.00     0.039 A 
HETATM   33  C   UNL     1      21.690  50.763  49.590  1.00  0.00     0.032 A 
BRANCH  31  34
HETATM   34  O   UNL     1      18.197  50.546  50.558  1.00  0.00    -0.356 OA
HETATM   35  C   UNL     1      17.454  51.495  49.799  1.00  0.00     0.210 C 
ENDBRANCH  31  34
ENDBRANCH  24  28
ENDBRANCH  21  22
ENDBRANCH   1  21
TORSDOF 6
ENDMDL
MODEL 5
REMARK VINA RESULT:      -9.8      1.118      2.210
REMARK  6 active torsions:
REMARK  status: ('A' for Active; 'I' for Inactive)
REMARK    1  A    between atoms: O_2  and  C_3 
REMARK    2  A    between atoms: C_6  and  N_7 
REMARK       I    between atoms: N_7  and  C_8 
REMARK       I    between atoms: C_8  and  N_9 
REMARK    3  A    between atoms: N_9  and  C_10 
REMARK    4  A    between atoms: C_10  and  C_11 
REMARK       I    between atoms: C_11  and  N_12 
REMARK    5  A    between atoms: N_12  and  N_13 
REMARK       I    between atoms: N_13  and  C_14 
REMARK       I    between atoms: C_14  and  N_15 
REMARK    6  A    between atoms: N_15  and  C_16 
ROOT
HETATM    1  C   UNL     1      24.715  46.635  49.896  1.00  0.00     0.253 C 
HETATM    2  N   UNL     1      25.676  46.068  50.711  1.00  0.00    -0.265 N 
HETATM    3  O   UNL     1      23.598  46.142  49.739  1.00  0.00    -0.270 OA
HETATM    4  H   UNL     1      26.516  46.605  50.933  1.00  0.00     0.190 HD
ENDROOT
BRANCH   2   5
HETATM    5  N   UNL     1      25.271  45.026  51.572  1.00  0.00    -0.249 N 
HETATM    6  C   UNL     1      25.703  45.000  52.888  1.00  0.00     0.339 C 
HETATM    7  N   UNL     1      26.983  45.476  53.066  1.00  0.00    -0.307 N 
HETATM    8  O   UNL     1      24.960  44.546  53.752  1.00  0.00    -0.245 OA
HETATM    9  H   UNL     1      27.535  45.470  52.227  1.00  0.00     0.170 HD
HETATM   10  H   UNL     1      24.278  44.798  51.498  1.00  0.00     0.192 HD
BRANCH   7  11
HETATM   11  C   UNL     1      27.665  45.678  54.296  1.00  0.00     0.047 A 
HETATM   12  C   UNL     1      28.780  44.848  54.639  1.00  0.00     0.001 A 
HETATM   13  C   UNL     1      29.434  45.075  55.881  1.00  0.00    -0.024 A 
HETATM   14  C   UNL     1      29.286  43.792  53.837  1.00  0.00     0.014 A 
HETATM   15  C   UNL     1      30.517  44.271  56.275  1.00  0.00     0.012 A 
HETATM   16  C   UNL     1      29.002  46.101  56.730  1.00  0.00     0.012 A 
HETATM   17  C   UNL     1      30.979  43.238  55.464  1.00  0.00     0.001 A 
HETATM   18  C   UNL     1      30.365  43.000  54.244  1.00  0.00     0.001 A 
HETATM   19  C   UNL     1      27.932  46.913  56.375  1.00  0.00     0.003 A 
HETATM   20  C   UNL     1      27.272  46.703  55.168  1.00  0.00     0.030 A 
ENDBRANCH   7  11
ENDBRANCH   2   5
BRANCH   1  21
HETATM   21  C   UNL     1      25.083  48.020  49.354  1.00  0.00     0.228 C 
BRANCH  21  22
HETATM   22  N   UNL     1      24.031  48.748  48.664  1.00  0.00    -0.334 N 
HETATM   23  C   UNL     1      24.245  49.879  47.944  1.00  0.00     0.321 C 
HETATM   24  N   UNL     1      23.140  50.559  47.529  1.00  0.00    -0.309 N 
HETATM   25  O   UNL     1      25.373  50.234  47.602  1.00  0.00    -0.247 OA
HETATM   26  H   UNL     1      23.338  51.205  46.775  1.00  0.00     0.170 HD
HETATM   27  H   UNL     1      23.152  48.274  48.495  1.00  0.00     0.164 HD
BRANCH  24  28
HETATM   28  C   UNL     1      21.877  50.703  48.142  1.00  0.00     0.036 A 
HETATM   29  C   UNL     1      20.664  50.472  47.488  1.00  0.00     0.032 A 
HETATM   30  C   UNL     1      19.451  50.527  48.188  1.00  0.00     0.039 A 
HETATM   31  C   UNL     1      19.439  50.802  49.553  1.00  0.00     0.068 A 
HETATM   32  C   UNL     1      20.645  51.061  50.204  1.00  0.00     0.039 A 
HETATM   33  C   UNL     1      21.857  50.998  49.508  1.00  0.00     0.032 A 
BRANCH  31  34
HETATM   34  O   UNL     1      18.327  50.851  50.346  1.00  0.00    -0.356 OA
HETATM   35  C   UNL     1      17.217  51.576  49.826  1.00  0.00     0.210 C 
ENDBRANCH  31  34
ENDBRANCH  24  28
ENDBRANCH  21  22
ENDBRANCH   1  21
TORSDOF 6
ENDMDL
MODEL 6
REMARK VINA RESULT:      -9.7      2.269      3.032
REMARK  6 active torsions:
REMARK  status: ('A' for Active; 'I' for Inactive)
REMARK    1  A    between atoms: O_2  and  C_3 
REMARK    2  A    between atoms: C_6  and  N_7 
REMARK       I    between atoms: N_7  and  C_8 
REMARK       I    between atoms: C_8  and  N_9 
REMARK    3  A    between atoms: N_9  and  C_10 
REMARK    4  A    between atoms: C_10  and  C_11 
REMARK       I    between atoms: C_11  and  N_12 
REMARK    5  A    between atoms: N_12  and  N_13 
REMARK       I    between atoms: N_13  and  C_14 
REMARK       I    between atoms: C_14  and  N_15 
REMARK    6  A    between atoms: N_15  and  C_16 
ROOT
HETATM    1  C   UNL     1      25.455  46.892  51.977  1.00  0.00     0.253 C 
HETATM    2  N   UNL     1      25.341  46.836  53.353  1.00  0.00    -0.265 N 
HETATM    3  O   UNL     1      26.171  47.709  51.400  1.00  0.00    -0.270 OA
HETATM    4  H   UNL     1      24.868  46.036  53.778  1.00  0.00     0.190 HD
ENDROOT
BRANCH   2   5
HETATM    5  N   UNL     1      26.264  47.582  54.117  1.00  0.00    -0.249 N 
HETATM    6  C   UNL     1      27.517  47.064  54.399  1.00  0.00     0.339 C 
HETATM    7  N   UNL     1      27.528  45.700  54.591  1.00  0.00    -0.307 N 
HETATM    8  O   UNL     1      28.474  47.827  54.486  1.00  0.00    -0.245 OA
HETATM    9  H   UNL     1      26.627  45.318  54.821  1.00  0.00     0.170 HD
HETATM   10  H   UNL     1      26.316  48.565  53.846  1.00  0.00     0.192 HD
BRANCH   7  11
HETATM   11  C   UNL     1      28.661  44.866  54.788  1.00  0.00     0.047 A 
HETATM   12  C   UNL     1      29.421  44.965  55.997  1.00  0.00     0.001 A 
HETATM   13  C   UNL     1      30.552  44.119  56.156  1.00  0.00    -0.024 A 
HETATM   14  C   UNL     1      29.142  45.862  57.062  1.00  0.00     0.014 A 
HETATM   15  C   UNL     1      31.344  44.196  57.314  1.00  0.00     0.012 A 
HETATM   16  C   UNL     1      30.893  43.201  55.156  1.00  0.00     0.012 A 
HETATM   17  C   UNL     1      31.044  45.096  58.333  1.00  0.00     0.001 A 
HETATM   18  C   UNL     1      29.941  45.927  58.208  1.00  0.00     0.001 A 
HETATM   19  C   UNL     1      30.135  43.099  53.996  1.00  0.00     0.003 A 
HETATM   20  C   UNL     1      29.028  43.925  53.816  1.00  0.00     0.030 A 
ENDBRANCH   7  11
ENDBRANCH   2   5
BRANCH   1  21
HETATM   21  C   UNL     1      24.767  45.739  51.239  1.00  0.00     0.228 C 
BRANCH  21  22
HETATM   22  N   UNL     1      23.707  46.102  50.313  1.00  0.00    -0.334 N 
HETATM   23  C   UNL     1      23.664  45.691  49.019  1.00  0.00     0.321 C 
HETATM   24  N   UNL     1      22.726  46.275  48.223  1.00  0.00    -0.309 N 
HETATM   25  O   UNL     1      24.371  44.776  48.599  1.00  0.00    -0.247 OA
HETATM   26  H   UNL     1      22.543  45.745  47.380  1.00  0.00     0.170 HD
HETATM   27  H   UNL     1      22.840  46.459  50.694  1.00  0.00     0.164 HD
BRANCH  24  28
HETATM   28  C   UNL     1      22.195  47.582  48.250  1.00  0.00     0.036 A 
HETATM   29  C   UNL     1      22.962  48.737  48.074  1.00  0.00     0.032 A 
HETATM   30  C   UNL     1      22.352  49.998  48.002  1.00  0.00     0.039 A 
HETATM   31  C   UNL     1      20.968  50.115  48.095  1.00  0.00     0.068 A 
HETATM   32  C   UNL     1      20.201  48.968  48.298  1.00  0.00     0.039 A 
HETATM   33  C   UNL     1      20.807  47.709  48.361  1.00  0.00     0.032 A 
BRANCH  31  34
HETATM   34  O   UNL     1      20.260  51.281  48.008  1.00  0.00    -0.356 OA
HETATM   35  C   UNL     1      19.643  51.732  49.209  1.00  0.00     0.210 C 
ENDBRANCH  31  34
ENDBRANCH  24  28
ENDBRANCH  21  22
ENDBRANCH   1  21
TORSDOF 6
ENDMDL
MODEL 7
REMARK VINA RESULT:      -9.7      2.282     10.895
REMARK  6 active torsions:
REMARK  status: ('A' for Active; 'I' for Inactive)
REMARK    1  A    between atoms: O_2  and  C_3 
REMARK    2  A    between atoms: C_6  and  N_7 
REMARK       I    between atoms: N_7  and  C_8 
REMARK       I    between atoms: C_8  and  N_9 
REMARK    3  A    between atoms: N_9  and  C_10 
REMARK    4  A    between atoms: C_10  and  C_11 
REMARK       I    between atoms: C_11  and  N_12 
REMARK    5  A    between atoms: N_12  and  N_13 
REMARK       I    between atoms: N_13  and  C_14 
REMARK       I    between atoms: C_14  and  N_15 
REMARK    6  A    between atoms: N_15  and  C_16 
ROOT
HETATM    1  C   UNL     1      24.946  46.678  50.521  1.00  0.00     0.253 C 
HETATM    2  N   UNL     1      23.828  47.444  50.252  1.00  0.00    -0.265 N 
HETATM    3  O   UNL     1      25.550  46.051  49.650  1.00  0.00    -0.270 OA
HETATM    4  H   UNL     1      23.471  48.070  50.977  1.00  0.00     0.190 HD
ENDROOT
BRANCH   2   5
HETATM    5  N   UNL     1      23.523  47.705  48.899  1.00  0.00    -0.249 N 
HETATM    6  C   UNL     1      22.487  48.563  48.570  1.00  0.00     0.339 C 
HETATM    7  N   UNL     1      21.418  48.508  49.435  1.00  0.00    -0.307 N 
HETATM    8  O   UNL     1      22.581  49.253  47.559  1.00  0.00    -0.245 OA
HETATM    9  H   UNL     1      21.380  47.661  49.975  1.00  0.00     0.170 HD
HETATM   10  H   UNL     1      24.348  47.872  48.320  1.00  0.00     0.192 HD
BRANCH   7  11
HETATM   11  C   UNL     1      20.261  49.332  49.431  1.00  0.00     0.047 A 
HETATM   12  C   UNL     1      18.997  48.788  49.034  1.00  0.00     0.001 A 
HETATM   13  C   UNL     1      17.862  49.644  49.035  1.00  0.00    -0.024 A 
HETATM   14  C   UNL     1      18.783  47.448  48.618  1.00  0.00     0.014 A 
HETATM   15  C   UNL     1      16.605  49.165  48.630  1.00  0.00     0.012 A 
HETATM   16  C   UNL     1      17.986  50.979  49.438  1.00  0.00     0.012 A 
HETATM   17  C   UNL     1      16.436  47.845  48.220  1.00  0.00     0.001 A 
HETATM   18  C   UNL     1      17.525  46.986  48.216  1.00  0.00     0.001 A 
HETATM   19  C   UNL     1      19.213  51.490  49.841  1.00  0.00     0.003 A 
HETATM   20  C   UNL     1      20.339  50.671  49.839  1.00  0.00     0.030 A 
ENDBRANCH   7  11
ENDBRANCH   2   5
BRANCH   1  21
HETATM   21  C   UNL     1      25.481  46.819  51.949  1.00  0.00     0.228 C 
BRANCH  21  22
HETATM   22  N   UNL     1      26.310  45.733  52.443  1.00  0.00    -0.334 N 
HETATM   23  C   UNL     1      25.814  44.599  53.000  1.00  0.00     0.321 C 
HETATM   24  N   UNL     1      26.711  43.767  53.599  1.00  0.00    -0.309 N 
HETATM   25  O   UNL     1      24.629  44.283  52.897  1.00  0.00    -0.247 OA
HETATM   26  H   UNL     1      26.349  42.831  53.732  1.00  0.00     0.170 HD
HETATM   27  H   UNL     1      27.277  45.693  52.141  1.00  0.00     0.164 HD
BRANCH  24  28
HETATM   28  C   UNL     1      27.909  44.063  54.284  1.00  0.00     0.036 A 
HETATM   29  C   UNL     1      28.118  45.237  55.014  1.00  0.00     0.032 A 
HETATM   30  C   UNL     1      29.291  45.416  55.761  1.00  0.00     0.039 A 
HETATM   31  C   UNL     1      30.262  44.418  55.796  1.00  0.00     0.068 A 
HETATM   32  C   UNL     1      30.069  43.257  55.047  1.00  0.00     0.039 A 
HETATM   33  C   UNL     1      28.895  43.073  54.308  1.00  0.00     0.032 A 
BRANCH  31  34
HETATM   34  O   UNL     1      31.426  44.464  56.510  1.00  0.00    -0.356 OA
HETATM   35  C   UNL     1      31.890  43.224  57.036  1.00  0.00     0.210 C 
ENDBRANCH  31  34
ENDBRANCH  24  28
ENDBRANCH  21  22
ENDBRANCH   1  21
TORSDOF 6
ENDMDL
MODEL 8
REMARK VINA RESULT:      -9.3      3.212      5.053
REMARK  6 active torsions:
REMARK  status: ('A' for Active; 'I' for Inactive)
REMARK    1  A    between atoms: O_2  and  C_3 
REMARK    2  A    between atoms: C_6  and  N_7 
REMARK       I    between atoms: N_7  and  C_8 
REMARK       I    between atoms: C_8  and  N_9 
REMARK    3  A    between atoms: N_9  and  C_10 
REMARK    4  A    between atoms: C_10  and  C_11 
REMARK       I    between atoms: C_11  and  N_12 
REMARK    5  A    between atoms: N_12  and  N_13 
REMARK       I    between atoms: N_13  and  C_14 
REMARK       I    between atoms: C_14  and  N_15 
REMARK    6  A    between atoms: N_15  and  C_16 
ROOT
HETATM    1  C   UNL     1      27.188  41.134  50.036  1.00  0.00     0.253 C 
HETATM    2  N   UNL     1      28.422  41.532  50.516  1.00  0.00    -0.265 N 
HETATM    3  O   UNL     1      26.561  40.188  50.513  1.00  0.00    -0.270 OA
HETATM    4  H   UNL     1      28.814  42.419  50.194  1.00  0.00     0.190 HD
ENDROOT
BRANCH   2   5
HETATM    5  N   UNL     1      28.853  40.987  51.743  1.00  0.00    -0.249 N 
HETATM    6  C   UNL     1      28.694  41.701  52.919  1.00  0.00     0.339 C 
HETATM    7  N   UNL     1      28.841  43.062  52.771  1.00  0.00    -0.307 N 
HETATM    8  O   UNL     1      28.476  41.094  53.963  1.00  0.00    -0.245 OA
HETATM    9  H   UNL     1      29.348  43.325  51.944  1.00  0.00     0.170 HD
HETATM   10  H   UNL     1      28.602  40.004  51.864  1.00  0.00     0.192 HD
BRANCH   7  11
HETATM   11  C   UNL     1      28.633  44.065  53.756  1.00  0.00     0.047 A 
HETATM   12  C   UNL     1      29.511  44.152  54.884  1.00  0.00     0.001 A 
HETATM   13  C   UNL     1      29.268  45.163  55.853  1.00  0.00    -0.024 A 
HETATM   14  C   UNL     1      30.613  43.289  55.126  1.00  0.00     0.014 A 
HETATM   15  C   UNL     1      30.087  45.274  56.990  1.00  0.00     0.012 A 
HETATM   16  C   UNL     1      28.206  46.060  55.686  1.00  0.00     0.012 A 
HETATM   17  C   UNL     1      31.153  44.403  57.197  1.00  0.00     0.001 A 
HETATM   18  C   UNL     1      31.417  43.412  56.264  1.00  0.00     0.001 A 
HETATM   19  C   UNL     1      27.374  45.978  54.577  1.00  0.00     0.003 A 
HETATM   20  C   UNL     1      27.589  44.989  53.620  1.00  0.00     0.030 A 
ENDBRANCH   7  11
ENDBRANCH   2   5
BRANCH   1  21
HETATM   21  C   UNL     1      26.583  42.075  48.991  1.00  0.00     0.228 C 
BRANCH  21  22
HETATM   22  N   UNL     1      25.491  42.925  49.437  1.00  0.00    -0.334 N 
HETATM   23  C   UNL     1      24.207  42.785  49.016  1.00  0.00     0.321 C 
HETATM   24  N   UNL     1      23.339  43.776  49.360  1.00  0.00    -0.309 N 
HETATM   25  O   UNL     1      23.816  41.775  48.431  1.00  0.00    -0.247 OA
HETATM   26  H   UNL     1      22.370  43.493  49.282  1.00  0.00     0.170 HD
HETATM   27  H   UNL     1      25.625  43.477  50.275  1.00  0.00     0.164 HD
BRANCH  24  28
HETATM   28  C   UNL     1      23.560  45.160  49.532  1.00  0.00     0.036 A 
HETATM   29  C   UNL     1      24.464  45.695  50.453  1.00  0.00     0.032 A 
HETATM   30  C   UNL     1      24.714  47.074  50.493  1.00  0.00     0.039 A 
HETATM   31  C   UNL     1      24.069  47.931  49.605  1.00  0.00     0.068 A 
HETATM   32  C   UNL     1      23.145  47.405  48.703  1.00  0.00     0.039 A 
HETATM   33  C   UNL     1      22.902  46.028  48.656  1.00  0.00     0.032 A 
BRANCH  31  34
HETATM   34  O   UNL     1      24.254  49.283  49.528  1.00  0.00    -0.356 OA
HETATM   35  C   UNL     1      24.728  49.782  48.282  1.00  0.00     0.210 C 
ENDBRANCH  31  34
ENDBRANCH  24  28
ENDBRANCH  21  22
ENDBRANCH   1  21
TORSDOF 6
ENDMDL
MODEL 9
REMARK VINA RESULT:      -9.2      5.077      6.243
REMARK  6 active torsions:
REMARK  status: ('A' for Active; 'I' for Inactive)
REMARK    1  A    between atoms: O_2  and  C_3 
REMARK    2  A    between atoms: C_6  and  N_7 
REMARK       I    between atoms: N_7  and  C_8 
REMARK       I    between atoms: C_8  and  N_9 
REMARK    3  A    between atoms: N_9  and  C_10 
REMARK    4  A    between atoms: C_10  and  C_11 
REMARK       I    between atoms: C_11  and  N_12 
REMARK    5  A    between atoms: N_12  and  N_13 
REMARK       I    between atoms: N_13  and  C_14 
REMARK       I    between atoms: C_14  and  N_15 
REMARK    6  A    between atoms: N_15  and  C_16 
ROOT
HETATM    1  C   UNL     1      27.919  40.193  49.817  1.00  0.00     0.253 C 
HETATM    2  N   UNL     1      28.867  40.556  50.755  1.00  0.00    -0.265 N 
HETATM    3  O   UNL     1      27.014  39.395  50.060  1.00  0.00    -0.270 OA
HETATM    4  H   UNL     1      29.488  41.341  50.551  1.00  0.00     0.190 HD
ENDROOT
BRANCH   2   5
HETATM    5  N   UNL     1      28.638  40.182  52.096  1.00  0.00    -0.249 N 
HETATM    6  C   UNL     1      28.244  41.129  53.027  1.00  0.00     0.339 C 
HETATM    7  N   UNL     1      28.797  42.374  52.827  1.00  0.00    -0.307 N 
HETATM    8  O   UNL     1      27.492  40.795  53.938  1.00  0.00    -0.245 OA
HETATM    9  H   UNL     1      29.629  42.360  52.264  1.00  0.00     0.170 HD
HETATM   10  H   UNL     1      28.106  39.316  52.193  1.00  0.00     0.192 HD
BRANCH   7  11
HETATM   11  C   UNL     1      28.509  43.570  53.539  1.00  0.00     0.047 A 
HETATM   12  C   UNL     1      29.323  43.951  54.654  1.00  0.00     0.001 A 
HETATM   13  C   UNL     1      29.002  45.151  55.346  1.00  0.00    -0.024 A 
HETATM   14  C   UNL     1      30.432  43.212  55.142  1.00  0.00     0.014 A 
HETATM   15  C   UNL     1      29.754  45.555  56.461  1.00  0.00     0.012 A 
HETATM   16  C   UNL     1      27.926  45.942  54.925  1.00  0.00     0.012 A 
HETATM   17  C   UNL     1      30.830  44.798  56.916  1.00  0.00     0.001 A 
HETATM   18  C   UNL     1      31.171  43.628  56.255  1.00  0.00     0.001 A 
HETATM   19  C   UNL     1      27.158  45.572  53.828  1.00  0.00     0.003 A 
HETATM   20  C   UNL     1      27.449  44.396  53.142  1.00  0.00     0.030 A 
ENDBRANCH   7  11
ENDBRANCH   2   5
BRANCH   1  21
HETATM   21  C   UNL     1      27.974  41.001  48.518  1.00  0.00     0.228 C 
BRANCH  21  22
HETATM   22  N   UNL     1      26.880  41.929  48.283  1.00  0.00    -0.334 N 
HETATM   23  C   UNL     1      26.508  42.893  49.164  1.00  0.00     0.321 C 
HETATM   24  N   UNL     1      25.343  43.547  48.899  1.00  0.00    -0.309 N 
HETATM   25  O   UNL     1      27.222  43.228  50.108  1.00  0.00    -0.247 OA
HETATM   26  H   UNL     1      25.263  44.423  49.401  1.00  0.00     0.170 HD
HETATM   27  H   UNL     1      26.540  42.038  47.336  1.00  0.00     0.164 HD
BRANCH  24  28
HETATM   28  C   UNL     1      24.162  43.087  48.280  1.00  0.00     0.036 A 
HETATM   29  C   UNL     1      23.458  43.810  47.313  1.00  0.00     0.032 A 
HETATM   30  C   UNL     1      22.353  43.245  46.660  1.00  0.00     0.039 A 
HETATM   31  C   UNL     1      21.948  41.947  46.959  1.00  0.00     0.068 A 
HETATM   32  C   UNL     1      22.630  41.232  47.943  1.00  0.00     0.039 A 
HETATM   33  C   UNL     1      23.738  41.791  48.589  1.00  0.00     0.032 A 
BRANCH  31  34
HETATM   34  O   UNL     1      20.911  41.280  46.369  1.00  0.00    -0.356 OA
HETATM   35  C   UNL     1      20.016  42.072  45.594  1.00  0.00     0.210 C 
ENDBRANCH  31  34
ENDBRANCH  24  28
ENDBRANCH  21  22
ENDBRANCH   1  21
TORSDOF 6
ENDMDL
MODEL 10
REMARK VINA RESULT:      -9.2      2.862      3.867
REMARK  6 active torsions:
REMARK  status: ('A' for Active; 'I' for Inactive)
REMARK    1  A    between atoms: O_2  and  C_3 
REMARK    2  A    between atoms: C_6  and  N_7 
REMARK       I    between atoms: N_7  and  C_8 
REMARK       I    between atoms: C_8  and  N_9 
REMARK    3  A    between atoms: N_9  and  C_10 
REMARK    4  A    between atoms: C_10  and  C_11 
REMARK       I    between atoms: C_11  and  N_12 
REMARK    5  A    between atoms: N_12  and  N_13 
REMARK       I    between atoms: N_13  and  C_14 
REMARK       I    between atoms: C_14  and  N_15 
REMARK    6  A    between atoms: N_15  and  C_16 
ROOT
HETATM    1  C   UNL     1      22.915  45.332  49.084  1.00  0.00     0.253 C 
HETATM    2  N   UNL     1      23.968  44.443  49.185  1.00  0.00    -0.265 N 
HETATM    3  O   UNL     1      23.076  46.551  49.026  1.00  0.00    -0.270 OA
HETATM    4  H   UNL     1      23.785  43.445  49.060  1.00  0.00     0.190 HD
ENDROOT
BRANCH   2   5
HETATM    5  N   UNL     1      25.269  44.942  48.969  1.00  0.00    -0.249 N 
HETATM    6  C   UNL     1      26.281  44.671  49.876  1.00  0.00     0.339 C 
HETATM    7  N   UNL     1      25.858  44.618  51.185  1.00  0.00    -0.307 N 
HETATM    8  O   UNL     1      27.430  44.538  49.468  1.00  0.00    -0.245 OA
HETATM    9  H   UNL     1      24.983  45.086  51.345  1.00  0.00     0.170 HD
HETATM   10  H   UNL     1      25.591  44.837  48.005  1.00  0.00     0.192 HD
BRANCH   7  11
HETATM   11  C   UNL     1      26.625  44.259  52.326  1.00  0.00     0.047 A 
HETATM   12  C   UNL     1      26.936  45.244  53.317  1.00  0.00     0.001 A 
HETATM   13  C   UNL     1      27.712  44.850  54.442  1.00  0.00    -0.024 A 
HETATM   14  C   UNL     1      26.540  46.606  53.263  1.00  0.00     0.014 A 
HETATM   15  C   UNL     1      28.064  45.785  55.429  1.00  0.00     0.012 A 
HETATM   16  C   UNL     1      28.137  43.522  54.575  1.00  0.00     0.012 A 
HETATM   17  C   UNL     1      27.665  47.115  55.336  1.00  0.00     0.001 A 
HETATM   18  C   UNL     1      26.901  47.525  54.254  1.00  0.00     0.001 A 
HETATM   19  C   UNL     1      27.811  42.571  53.617  1.00  0.00     0.003 A 
HETATM   20  C   UNL     1      27.060  42.938  52.503  1.00  0.00     0.030 A 
ENDBRANCH   7  11
ENDBRANCH   2   5
BRANCH   1  21
HETATM   21  C   UNL     1      21.550  44.675  48.862  1.00  0.00     0.228 C 
BRANCH  21  22
HETATM   22  N   UNL     1      20.382  45.483  49.168  1.00  0.00    -0.334 N 
HETATM   23  C   UNL     1      19.191  45.360  48.527  1.00  0.00     0.321 C 
HETATM   24  N   UNL     1      18.258  46.319  48.780  1.00  0.00    -0.309 N 
HETATM   25  O   UNL     1      18.925  44.387  47.821  1.00  0.00    -0.247 OA
HETATM   26  H   UNL     1      17.322  46.032  48.520  1.00  0.00     0.170 HD
HETATM   27  H   UNL     1      20.361  45.981  50.050  1.00  0.00     0.164 HD
BRANCH  24  28
HETATM   28  C   UNL     1      18.418  47.689  49.074  1.00  0.00     0.036 A 
HETATM   29  C   UNL     1      18.439  48.210  50.371  1.00  0.00     0.032 A 
HETATM   30  C   UNL     1      18.713  49.567  50.593  1.00  0.00     0.039 A 
HETATM   31  C   UNL     1      18.980  50.415  49.522  1.00  0.00     0.068 A 
HETATM   32  C   UNL     1      18.933  49.906  48.225  1.00  0.00     0.039 A 
HETATM   33  C   UNL     1      18.668  48.551  48.002  1.00  0.00     0.032 A 
BRANCH  31  34
HETATM   34  O   UNL     1      19.290  51.743  49.616  1.00  0.00    -0.356 OA
HETATM   35  C   UNL     1      19.196  52.496  48.411  1.00  0.00     0.210 C 
ENDBRANCH  31  34
ENDBRANCH  24  28
ENDBRANCH  21  22
ENDBRANCH   1  21
TORSDOF 6
ENDMDL
