MODEL 1
REMARK VINA RESULT:     -10.0      0.000      0.000
REMARK  7 active torsions:
REMARK  status: ('A' for Active; 'I' for Inactive)
REMARK    1  A    between atoms: C_4  and  C_5 
REMARK    2  A    between atoms: C_9  and  C_10 
REMARK       I    between atoms: C_10  and  N_11 
REMARK    3  A    between atoms: N_11  and  N_12 
REMARK       I    between atoms: N_12  and  C_13 
REMARK    4  A    between atoms: C_13  and  C_14 
REMARK    5  A    between atoms: C_14  and  C_15 
REMARK    6  A    between atoms: C_15  and  N_16 
REMARK    7  A    between atoms: C_15  and  C_20 
REMARK       I    between atoms: N_16  and  C_17 
REMARK       I    between atoms: C_17  and  N_18 
ROOT
HETATM    1  N   UNL     1      24.408  46.990  51.025  1.00  0.00    -0.267 N 
HETATM    2  C   UNL     1      24.070  46.470  49.796  1.00  0.00     0.238 C 
HETATM    3  O   UNL     1      24.596  45.455  49.336  1.00  0.00    -0.272 OA
HETATM    4  H   UNL     1      23.800  47.662  51.510  1.00  0.00     0.190 HD
ENDROOT
BRANCH   1   5
HETATM    5  N   UNL     1      25.319  46.259  51.797  1.00  0.00    -0.262 N 
HETATM    6  C   UNL     1      25.815  46.790  52.968  1.00  0.00     0.288 C 
HETATM    7  O   UNL     1      25.390  47.832  53.459  1.00  0.00    -0.264 OA
HETATM    8  H   UNL     1      25.725  45.446  51.342  1.00  0.00     0.190 HD
BRANCH   6   9
HETATM    9  C   UNL     1      26.878  46.031  53.571  1.00  0.00     0.121 A 
HETATM   10  N   UNL     1      27.286  44.831  53.061  1.00  0.00    -0.272 N 
HETATM   11  N   UNL     1      28.269  44.243  53.758  1.00  0.00    -0.174 NA
HETATM   12  H   UNL     1      26.916  44.362  52.240  1.00  0.00     0.189 HD
HETATM   13  C   UNL     1      28.533  45.093  54.765  1.00  0.00     0.089 A 
HETATM   14  C   UNL     1      27.679  46.230  54.677  1.00  0.00     0.071 A 
BRANCH  13  15
HETATM   15  C   UNL     1      29.559  44.805  55.774  1.00  0.00    -0.006 A 
HETATM   16  C   UNL     1      29.674  45.582  56.937  1.00  0.00     0.014 A 
HETATM   17  C   UNL     1      30.647  45.290  57.898  1.00  0.00     0.001 A 
HETATM   18  C   UNL     1      31.517  44.220  57.710  1.00  0.00     0.000 A 
HETATM   19  C   UNL     1      31.419  43.441  56.559  1.00  0.00     0.001 A 
HETATM   20  C   UNL     1      30.448  43.734  55.597  1.00  0.00     0.014 A 
ENDBRANCH  13  15
ENDBRANCH   6   9
ENDBRANCH   1   5
BRANCH   2  21
HETATM   21  C   UNL     1      23.008  47.233  49.051  1.00  0.00     0.134 C 
BRANCH  21  22
HETATM   22  C   UNL     1      23.206  48.741  49.231  1.00  0.00     0.128 C 
BRANCH  22  23
HETATM   23  N   UNL     1      24.233  49.393  48.420  1.00  0.00    -0.334 N 
HETATM   24  C   UNL     1      25.569  49.404  48.655  1.00  0.00     0.314 C 
HETATM   25  N   UNL     1      26.276  49.963  47.645  1.00  0.00    -0.352 N 
HETATM   26  O   UNL     1      26.119  49.014  49.674  1.00  0.00    -0.248 OA
HETATM   27  H   UNL     1      25.968  49.805  46.697  1.00  0.00     0.160 HD
HETATM   28  H   UNL     1      27.280  49.915  47.776  1.00  0.00     0.160 HD
HETATM   29  H   UNL     1      23.930  49.760  47.531  1.00  0.00     0.165 HD
ENDBRANCH  22  23
BRANCH  22  30
HETATM   30  C   UNL     1      21.880  49.474  49.073  1.00  0.00    -0.035 A 
HETATM   31  C   UNL     1      20.677  48.751  49.052  1.00  0.00     0.011 A 
HETATM   32  C   UNL     1      19.455  49.407  48.884  1.00  0.00     0.024 A 
HETATM   33  C   UNL     1      19.426  50.790  48.735  1.00  0.00     0.034 A 
HETATM   34 CL   UNL     1      17.920  51.596  48.526  1.00  0.00    -0.084 Cl
HETATM   35  C   UNL     1      20.609  51.525  48.750  1.00  0.00     0.024 A 
HETATM   36  C   UNL     1      21.832  50.869  48.915  1.00  0.00     0.011 A 
ENDBRANCH  22  30
ENDBRANCH  21  22
ENDBRANCH   2  21
TORSDOF 7
ENDMDL
MODEL 2
REMARK VINA RESULT:      -9.9      3.731     10.863
REMARK  7 active torsions:
REMARK  status: ('A' for Active; 'I' for Inactive)
REMARK    1  A    between atoms: C_4  and  C_5 
REMARK    2  A    between atoms: C_9  and  C_10 
REMARK       I    between atoms: C_10  and  N_11 
REMARK    3  A    between atoms: N_11  and  N_12 
REMARK       I    between atoms: N_12  and  C_13 
REMARK    4  A    between atoms: C_13  and  C_14 
REMARK    5  A    between atoms: C_14  and  C_15 
REMARK    6  A    between atoms: C_15  and  N_16 
REMARK    7  A    between atoms: C_15  and  C_20 
REMARK       I    between atoms: N_16  and  C_17 
REMARK       I    between atoms: C_17  and  N_18 
ROOT
HETATM    1  N   UNL     1      26.048  46.825  51.441  1.00  0.00    -0.267 N 
HETATM    2  C   UNL     1      26.151  47.152  52.774  1.00  0.00     0.238 C 
HETATM    3  O   UNL     1      25.269  47.763  53.379  1.00  0.00    -0.272 OA
HETATM    4  H   UNL     1      26.646  46.105  51.016  1.00  0.00     0.190 HD
ENDROOT
BRANCH   1   5
HETATM    5  N   UNL     1      24.840  47.130  50.802  1.00  0.00    -0.262 N 
HETATM    6  C   UNL     1      24.786  48.151  49.879  1.00  0.00     0.288 C 
HETATM    7  O   UNL     1      25.787  48.733  49.469  1.00  0.00    -0.264 OA
HETATM    8  H   UNL     1      24.011  46.706  51.208  1.00  0.00     0.190 HD
BRANCH   6   9
HETATM    9  C   UNL     1      23.461  48.492  49.433  1.00  0.00     0.121 A 
HETATM   10  N   UNL     1      22.515  47.537  49.190  1.00  0.00    -0.272 N 
HETATM   11  N   UNL     1      21.343  48.022  48.756  1.00  0.00    -0.174 NA
HETATM   12  H   UNL     1      22.624  46.533  49.294  1.00  0.00     0.189 HD
HETATM   13  C   UNL     1      21.513  49.354  48.723  1.00  0.00     0.089 A 
HETATM   14  C   UNL     1      22.832  49.687  49.146  1.00  0.00     0.071 A 
BRANCH  13  15
HETATM   15  C   UNL     1      20.445  50.262  48.286  1.00  0.00    -0.006 A 
HETATM   16  C   UNL     1      19.562  49.904  47.256  1.00  0.00     0.014 A 
HETATM   17  C   UNL     1      18.540  50.771  46.857  1.00  0.00     0.001 A 
HETATM   18  C   UNL     1      18.387  52.005  47.482  1.00  0.00     0.000 A 
HETATM   19  C   UNL     1      19.257  52.378  48.504  1.00  0.00     0.001 A 
HETATM   20  C   UNL     1      20.280  51.512  48.901  1.00  0.00     0.014 A 
ENDBRANCH  13  15
ENDBRANCH   6   9
ENDBRANCH   1   5
BRANCH   2  21
HETATM   21  C   UNL     1      27.423  46.707  53.443  1.00  0.00     0.134 C 
BRANCH  21  22
HETATM   22  C   UNL     1      27.258  45.301  54.028  1.00  0.00     0.128 C 
BRANCH  22  23
HETATM   23  N   UNL     1      26.847  44.231  53.118  1.00  0.00    -0.334 N 
HETATM   24  C   UNL     1      25.581  43.807  52.883  1.00  0.00     0.314 C 
HETATM   25  N   UNL     1      25.509  42.902  51.877  1.00  0.00    -0.352 N 
HETATM   26  O   UNL     1      24.588  44.132  53.515  1.00  0.00    -0.248 OA
HETATM   27  H   UNL     1      26.121  43.015  51.083  1.00  0.00     0.160 HD
HETATM   28  H   UNL     1      24.561  42.628  51.645  1.00  0.00     0.160 HD
HETATM   29  H   UNL     1      27.566  43.862  52.514  1.00  0.00     0.165 HD
ENDBRANCH  22  23
BRANCH  22  30
HETATM   30  C   UNL     1      28.515  44.885  54.779  1.00  0.00    -0.035 A 
HETATM   31  C   UNL     1      29.132  43.657  54.489  1.00  0.00     0.011 A 
HETATM   32  C   UNL     1      30.273  43.251  55.185  1.00  0.00     0.024 A 
HETATM   33  C   UNL     1      30.806  44.068  56.178  1.00  0.00     0.034 A 
HETATM   34 CL   UNL     1      32.210  43.565  57.036  1.00  0.00    -0.084 Cl
HETATM   35  C   UNL     1      30.208  45.289  56.482  1.00  0.00     0.024 A 
HETATM   36  C   UNL     1      29.065  45.694  55.788  1.00  0.00     0.011 A 
ENDBRANCH  22  30
ENDBRANCH  21  22
ENDBRANCH   2  21
TORSDOF 7
ENDMDL
MODEL 3
REMARK VINA RESULT:      -9.7      3.980     10.631
REMARK  7 active torsions:
REMARK  status: ('A' for Active; 'I' for Inactive)
REMARK    1  A    between atoms: C_4  and  C_5 
REMARK    2  A    between atoms: C_9  and  C_10 
REMARK       I    between atoms: C_10  and  N_11 
REMARK    3  A    between atoms: N_11  and  N_12 
REMARK       I    between atoms: N_12  and  C_13 
REMARK    4  A    between atoms: C_13  and  C_14 
REMARK    5  A    between atoms: C_14  and  C_15 
REMARK    6  A    between atoms: C_15  and  N_16 
REMARK    7  A    between atoms: C_15  and  C_20 
REMARK       I    between atoms: N_16  and  C_17 
REMARK       I    between atoms: C_17  and  N_18 
ROOT
HETATM    1  N   UNL     1      26.060  46.025  49.891  1.00  0.00    -0.267 N 
HETATM    2  C   UNL     1      26.080  44.943  50.742  1.00  0.00     0.238 C 
HETATM    3  O   UNL     1      25.069  44.517  51.301  1.00  0.00    -0.272 OA
HETATM    4  H   UNL     1      26.832  46.209  49.238  1.00  0.00     0.190 HD
ENDROOT
BRANCH   1   5
HETATM    5  N   UNL     1      24.809  46.580  49.598  1.00  0.00    -0.262 N 
HETATM    6  C   UNL     1      24.659  47.948  49.531  1.00  0.00     0.288 C 
HETATM    7  O   UNL     1      25.609  48.725  49.575  1.00  0.00    -0.264 OA
HETATM    8  H   UNL     1      24.022  45.939  49.649  1.00  0.00     0.190 HD
BRANCH   6   9
HETATM    9  C   UNL     1      23.299  48.401  49.410  1.00  0.00     0.121 A 
HETATM   10  N   UNL     1      22.275  47.539  49.137  1.00  0.00    -0.272 N 
HETATM   11  N   UNL     1      21.074  48.127  49.031  1.00  0.00    -0.174 NA
HETATM   12  H   UNL     1      22.344  46.535  49.001  1.00  0.00     0.189 HD
HETATM   13  C   UNL     1      21.309  49.431  49.256  1.00  0.00     0.089 A 
HETATM   14  C   UNL     1      22.697  49.640  49.501  1.00  0.00     0.071 A 
BRANCH  13  15
HETATM   15  C   UNL     1      20.234  50.430  49.221  1.00  0.00    -0.006 A 
HETATM   16  C   UNL     1      19.111  50.320  50.055  1.00  0.00     0.014 A 
HETATM   17  C   UNL     1      18.100  51.285  50.022  1.00  0.00     0.001 A 
HETATM   18  C   UNL     1      18.198  52.371  49.157  1.00  0.00     0.000 A 
HETATM   19  C   UNL     1      19.303  52.493  48.319  1.00  0.00     0.001 A 
HETATM   20  C   UNL     1      20.313  51.528  48.350  1.00  0.00     0.014 A 
ENDBRANCH  13  15
ENDBRANCH   6   9
ENDBRANCH   1   5
BRANCH   2  21
HETATM   21  C   UNL     1      27.433  44.314  50.941  1.00  0.00     0.134 C 
BRANCH  21  22
HETATM   22  C   UNL     1      27.365  43.227  52.018  1.00  0.00     0.128 C 
BRANCH  22  23
HETATM   23  N   UNL     1      27.571  41.841  51.599  1.00  0.00    -0.334 N 
HETATM   24  C   UNL     1      26.700  41.063  50.908  1.00  0.00     0.314 C 
HETATM   25  N   UNL     1      27.236  39.876  50.537  1.00  0.00    -0.352 N 
HETATM   26  O   UNL     1      25.534  41.335  50.669  1.00  0.00    -0.248 OA
HETATM   27  H   UNL     1      28.207  39.851  50.263  1.00  0.00     0.160 HD
HETATM   28  H   UNL     1      26.619  39.314  49.962  1.00  0.00     0.160 HD
HETATM   29  H   UNL     1      28.501  41.472  51.724  1.00  0.00     0.165 HD
ENDBRANCH  22  23
BRANCH  22  30
HETATM   30  C   UNL     1      28.302  43.561  53.172  1.00  0.00    -0.035 A 
HETATM   31  C   UNL     1      29.437  42.767  53.406  1.00  0.00     0.011 A 
HETATM   32  C   UNL     1      30.293  43.047  54.473  1.00  0.00     0.024 A 
HETATM   33  C   UNL     1      30.023  44.121  55.315  1.00  0.00     0.034 A 
HETATM   34 CL   UNL     1      31.077  44.463  56.632  1.00  0.00    -0.084 Cl
HETATM   35  C   UNL     1      28.901  44.918  55.101  1.00  0.00     0.024 A 
HETATM   36  C   UNL     1      28.042  44.638  54.036  1.00  0.00     0.011 A 
ENDBRANCH  22  30
ENDBRANCH  21  22
ENDBRANCH   2  21
TORSDOF 7
ENDMDL
MODEL 4
REMARK VINA RESULT:      -9.7      3.870     10.709
REMARK  7 active torsions:
REMARK  status: ('A' for Active; 'I' for Inactive)
REMARK    1  A    between atoms: C_4  and  C_5 
REMARK    2  A    between atoms: C_9  and  C_10 
REMARK       I    between atoms: C_10  and  N_11 
REMARK    3  A    between atoms: N_11  and  N_12 
REMARK       I    between atoms: N_12  and  C_13 
REMARK    4  A    between atoms: C_13  and  C_14 
REMARK    5  A    between atoms: C_14  and  C_15 
REMARK    6  A    between atoms: C_15  and  N_16 
REMARK    7  A    between atoms: C_15  and  C_20 
REMARK       I    between atoms: N_16  and  C_17 
REMARK       I    between atoms: C_17  and  N_18 
ROOT
HETATM    1  N   UNL     1      26.025  45.684  51.331  1.00  0.00    -0.267 N 
HETATM    2  C   UNL     1      25.784  44.966  52.481  1.00  0.00     0.238 C 
HETATM    3  O   UNL     1      24.652  44.805  52.940  1.00  0.00    -0.272 OA
HETATM    4  H   UNL     1      26.911  45.595  50.818  1.00  0.00     0.190 HD
ENDROOT
BRANCH   1   5
HETATM    5  N   UNL     1      24.909  46.156  50.631  1.00  0.00    -0.262 N 
HETATM    6  C   UNL     1      24.893  47.446  50.147  1.00  0.00     0.288 C 
HETATM    7  O   UNL     1      25.877  48.180  50.172  1.00  0.00    -0.264 OA
HETATM    8  H   UNL     1      24.077  45.577  50.691  1.00  0.00     0.190 HD
BRANCH   6   9
HETATM    9  C   UNL     1      23.627  47.874  49.613  1.00  0.00     0.121 A 
HETATM   10  N   UNL     1      22.709  46.983  49.135  1.00  0.00    -0.272 N 
HETATM   11  N   UNL     1      21.594  47.548  48.649  1.00  0.00    -0.174 NA
HETATM   12  H   UNL     1      22.800  45.971  49.107  1.00  0.00     0.189 HD
HETATM   13  C   UNL     1      21.775  48.868  48.824  1.00  0.00     0.089 A 
HETATM   14  C   UNL     1      23.041  49.110  49.430  1.00  0.00     0.071 A 
BRANCH  13  15
HETATM   15  C   UNL     1      20.766  49.850  48.407  1.00  0.00    -0.006 A 
HETATM   16  C   UNL     1      20.701  51.122  48.997  1.00  0.00     0.014 A 
HETATM   17  C   UNL     1      19.745  52.054  48.583  1.00  0.00     0.001 A 
HETATM   18  C   UNL     1      18.843  51.729  47.574  1.00  0.00     0.000 A 
HETATM   19  C   UNL     1      18.891  50.470  46.980  1.00  0.00     0.001 A 
HETATM   20  C   UNL     1      19.845  49.537  47.396  1.00  0.00     0.014 A 
ENDBRANCH  13  15
ENDBRANCH   6   9
ENDBRANCH   1   5
BRANCH   2  21
HETATM   21  C   UNL     1      27.007  44.387  53.139  1.00  0.00     0.134 C 
BRANCH  21  22
HETATM   22  C   UNL     1      27.745  45.464  53.940  1.00  0.00     0.128 C 
BRANCH  22  23
HETATM   23  N   UNL     1      26.945  46.352  54.782  1.00  0.00    -0.334 N 
HETATM   24  C   UNL     1      27.113  47.688  54.944  1.00  0.00     0.314 C 
HETATM   25  N   UNL     1      26.122  48.259  55.669  1.00  0.00    -0.352 N 
HETATM   26  O   UNL     1      28.064  48.343  54.546  1.00  0.00    -0.248 OA
HETATM   27  H   UNL     1      25.180  47.915  55.552  1.00  0.00     0.160 HD
HETATM   28  H   UNL     1      26.198  49.267  55.740  1.00  0.00     0.160 HD
HETATM   29  H   UNL     1      26.108  45.953  55.180  1.00  0.00     0.165 HD
ENDBRANCH  22  23
BRANCH  22  30
HETATM   30  C   UNL     1      28.865  44.842  54.764  1.00  0.00    -0.035 A 
HETATM   31  C   UNL     1      29.353  45.509  55.900  1.00  0.00     0.011 A 
HETATM   32  C   UNL     1      30.394  44.962  56.653  1.00  0.00     0.024 A 
HETATM   33  C   UNL     1      30.957  43.746  56.278  1.00  0.00     0.034 A 
HETATM   34 CL   UNL     1      32.242  43.075  57.205  1.00  0.00    -0.084 Cl
HETATM   35  C   UNL     1      30.489  43.071  55.154  1.00  0.00     0.024 A 
HETATM   36  C   UNL     1      29.449  43.618  54.397  1.00  0.00     0.011 A 
ENDBRANCH  22  30
ENDBRANCH  21  22
ENDBRANCH   2  21
TORSDOF 7
ENDMDL
MODEL 5
REMARK VINA RESULT:      -9.3      3.736     10.865
REMARK  7 active torsions:
REMARK  status: ('A' for Active; 'I' for Inactive)
REMARK    1  A    between atoms: C_4  and  C_5 
REMARK    2  A    between atoms: C_9  and  C_10 
REMARK       I    between atoms: C_10  and  N_11 
REMARK    3  A    between atoms: N_11  and  N_12 
REMARK       I    between atoms: N_12  and  C_13 
REMARK    4  A    between atoms: C_13  and  C_14 
REMARK    5  A    between atoms: C_14  and  C_15 
REMARK    6  A    between atoms: C_15  and  N_16 
REMARK    7  A    between atoms: C_15  and  C_20 
REMARK       I    between atoms: N_16  and  C_17 
REMARK       I    between atoms: C_17  and  N_18 
ROOT
HETATM    1  N   UNL     1      24.696  46.877  50.078  1.00  0.00    -0.267 N 
HETATM    2  C   UNL     1      25.390  46.899  51.267  1.00  0.00     0.238 C 
HETATM    3  O   UNL     1      25.089  47.646  52.199  1.00  0.00    -0.272 OA
HETATM    4  H   UNL     1      24.779  46.091  49.421  1.00  0.00     0.190 HD
ENDROOT
BRANCH   1   5
HETATM    5  N   UNL     1      23.552  47.680  49.994  1.00  0.00    -0.262 N 
HETATM    6  C   UNL     1      23.570  48.833  49.240  1.00  0.00     0.288 C 
HETATM    7  O   UNL     1      24.508  49.134  48.506  1.00  0.00    -0.264 OA
HETATM    8  H   UNL     1      22.820  47.470  50.667  1.00  0.00     0.190 HD
BRANCH   6   9
HETATM    9  C   UNL     1      22.406  49.665  49.382  1.00  0.00     0.121 A 
HETATM   10  N   UNL     1      22.194  50.423  50.499  1.00  0.00    -0.272 N 
HETATM   11  N   UNL     1      21.049  51.120  50.482  1.00  0.00    -0.174 NA
HETATM   12  H   UNL     1      22.800  50.491  51.311  1.00  0.00     0.189 HD
HETATM   13  C   UNL     1      20.483  50.823  49.300  1.00  0.00     0.089 A 
HETATM   14  C   UNL     1      21.310  49.914  48.580  1.00  0.00     0.071 A 
BRANCH  13  15
HETATM   15  C   UNL     1      19.190  51.388  48.895  1.00  0.00    -0.006 A 
HETATM   16  C   UNL     1      18.336  51.994  49.830  1.00  0.00     0.014 A 
HETATM   17  C   UNL     1      17.113  52.540  49.430  1.00  0.00     0.001 A 
HETATM   18  C   UNL     1      16.727  52.489  48.094  1.00  0.00     0.000 A 
HETATM   19  C   UNL     1      17.560  51.888  47.154  1.00  0.00     0.001 A 
HETATM   20  C   UNL     1      18.782  51.340  47.553  1.00  0.00     0.014 A 
ENDBRANCH  13  15
ENDBRANCH   6   9
ENDBRANCH   1   5
BRANCH   2  21
HETATM   21  C   UNL     1      26.547  45.940  51.346  1.00  0.00     0.134 C 
BRANCH  21  22
HETATM   22  C   UNL     1      26.250  44.826  52.354  1.00  0.00     0.128 C 
BRANCH  22  23
HETATM   23  N   UNL     1      25.856  43.520  51.826  1.00  0.00    -0.334 N 
HETATM   24  C   UNL     1      24.696  43.216  51.193  1.00  0.00     0.314 C 
HETATM   25  N   UNL     1      24.686  41.960  50.687  1.00  0.00    -0.352 N 
HETATM   26  O   UNL     1      23.716  43.941  51.108  1.00  0.00    -0.248 OA
HETATM   27  H   UNL     1      25.541  41.590  50.301  1.00  0.00     0.160 HD
HETATM   28  H   UNL     1      23.852  41.743  50.152  1.00  0.00     0.160 HD
HETATM   29  H   UNL     1      26.571  42.809  51.819  1.00  0.00     0.165 HD
ENDBRANCH  22  23
BRANCH  22  30
HETATM   30  C   UNL     1      27.413  44.660  53.323  1.00  0.00    -0.035 A 
HETATM   31  C   UNL     1      27.598  45.587  54.362  1.00  0.00     0.011 A 
HETATM   32  C   UNL     1      28.673  45.462  55.245  1.00  0.00     0.024 A 
HETATM   33  C   UNL     1      29.572  44.410  55.097  1.00  0.00     0.034 A 
HETATM   34 CL   UNL     1      30.898  44.259  56.184  1.00  0.00    -0.084 Cl
HETATM   35  C   UNL     1      29.408  43.483  54.072  1.00  0.00     0.024 A 
HETATM   36  C   UNL     1      28.335  43.609  53.186  1.00  0.00     0.011 A 
ENDBRANCH  22  30
ENDBRANCH  21  22
ENDBRANCH   2  21
TORSDOF 7
ENDMDL
MODEL 6
REMARK VINA RESULT:      -9.3      3.162      4.709
REMARK  7 active torsions:
REMARK  status: ('A' for Active; 'I' for Inactive)
REMARK    1  A    between atoms: C_4  and  C_5 
REMARK    2  A    between atoms: C_9  and  C_10 
REMARK       I    between atoms: C_10  and  N_11 
REMARK    3  A    between atoms: N_11  and  N_12 
REMARK       I    between atoms: N_12  and  C_13 
REMARK    4  A    between atoms: C_13  and  C_14 
REMARK    5  A    between atoms: C_14  and  C_15 
REMARK    6  A    between atoms: C_15  and  N_16 
REMARK    7  A    between atoms: C_15  and  C_20 
REMARK       I    between atoms: N_16  and  C_17 
REMARK       I    between atoms: C_17  and  N_18 
ROOT
HETATM    1  N   UNL     1      22.301  47.163  49.046  1.00  0.00    -0.267 N 
HETATM    2  C   UNL     1      22.070  48.516  49.157  1.00  0.00     0.238 C 
HETATM    3  O   UNL     1      22.876  49.288  49.678  1.00  0.00    -0.272 OA
HETATM    4  H   UNL     1      21.765  46.578  48.393  1.00  0.00     0.190 HD
ENDROOT
BRANCH   1   5
HETATM    5  N   UNL     1      23.551  46.695  49.466  1.00  0.00    -0.262 N 
HETATM    6  C   UNL     1      23.877  45.364  49.316  1.00  0.00     0.288 C 
HETATM    7  O   UNL     1      23.174  44.573  48.694  1.00  0.00    -0.264 OA
HETATM    8  H   UNL     1      24.084  47.332  50.052  1.00  0.00     0.190 HD
BRANCH   6   9
HETATM    9  C   UNL     1      25.105  44.968  49.952  1.00  0.00     0.121 A 
HETATM   10  N   UNL     1      26.161  44.480  49.237  1.00  0.00    -0.272 N 
HETATM   11  N   UNL     1      27.219  44.133  49.984  1.00  0.00    -0.174 NA
HETATM   12  H   UNL     1      26.207  44.352  48.230  1.00  0.00     0.189 HD
HETATM   13  C   UNL     1      26.854  44.415  51.246  1.00  0.00     0.089 A 
HETATM   14  C   UNL     1      25.532  44.945  51.264  1.00  0.00     0.071 A 
BRANCH  13  15
HETATM   15  C   UNL     1      27.747  44.166  52.385  1.00  0.00    -0.006 A 
HETATM   16  C   UNL     1      28.835  43.286  52.278  1.00  0.00     0.014 A 
HETATM   17  C   UNL     1      29.687  43.068  53.365  1.00  0.00     0.001 A 
HETATM   18  C   UNL     1      29.463  43.725  54.572  1.00  0.00     0.000 A 
HETATM   19  C   UNL     1      28.386  44.598  54.696  1.00  0.00     0.001 A 
HETATM   20  C   UNL     1      27.533  44.816  53.610  1.00  0.00     0.014 A 
ENDBRANCH  13  15
ENDBRANCH   6   9
ENDBRANCH   1   5
BRANCH   2  21
HETATM   21  C   UNL     1      20.757  48.987  48.592  1.00  0.00     0.134 C 
BRANCH  21  22
HETATM   22  C   UNL     1      19.634  48.015  48.967  1.00  0.00     0.128 C 
BRANCH  22  23
HETATM   23  N   UNL     1      19.365  47.804  50.389  1.00  0.00    -0.334 N 
HETATM   24  C   UNL     1      18.798  48.686  51.249  1.00  0.00     0.314 C 
HETATM   25  N   UNL     1      18.543  48.146  52.464  1.00  0.00    -0.352 N 
HETATM   26  O   UNL     1      18.571  49.864  51.019  1.00  0.00    -0.248 OA
HETATM   27  H   UNL     1      18.239  47.185  52.510  1.00  0.00     0.160 HD
HETATM   28  H   UNL     1      18.057  48.774  53.095  1.00  0.00     0.160 HD
HETATM   29  H   UNL     1      19.497  46.864  50.732  1.00  0.00     0.165 HD
ENDBRANCH  22  23
BRANCH  22  30
HETATM   30  C   UNL     1      18.344  48.389  48.248  1.00  0.00    -0.035 A 
HETATM   31  C   UNL     1      17.239  47.523  48.295  1.00  0.00     0.011 A 
HETATM   32  C   UNL     1      16.057  47.841  47.621  1.00  0.00     0.024 A 
HETATM   33  C   UNL     1      15.970  49.026  46.896  1.00  0.00     0.034 A 
HETATM   34 CL   UNL     1      14.514  49.415  46.066  1.00  0.00    -0.084 Cl
HETATM   35  C   UNL     1      17.055  49.896  46.836  1.00  0.00     0.024 A 
HETATM   36  C   UNL     1      18.239  49.578  47.507  1.00  0.00     0.011 A 
ENDBRANCH  22  30
ENDBRANCH  21  22
ENDBRANCH   2  21
TORSDOF 7
ENDMDL
MODEL 7
REMARK VINA RESULT:      -9.2      2.050      3.227
REMARK  7 active torsions:
REMARK  status: ('A' for Active; 'I' for Inactive)
REMARK    1  A    between atoms: C_4  and  C_5 
REMARK    2  A    between atoms: C_9  and  C_10 
REMARK       I    between atoms: C_10  and  N_11 
REMARK    3  A    between atoms: N_11  and  N_12 
REMARK       I    between atoms: N_12  and  C_13 
REMARK    4  A    between atoms: C_13  and  C_14 
REMARK    5  A    between atoms: C_14  and  C_15 
REMARK    6  A    between atoms: C_15  and  N_16 
REMARK    7  A    between atoms: C_15  and  C_20 
REMARK       I    between atoms: N_16  and  C_17 
REMARK       I    between atoms: C_17  and  N_18 
ROOT
HETATM    1  N   UNL     1      24.012  46.882  48.981  1.00  0.00    -0.267 N 
HETATM    2  C   UNL     1      23.522  48.146  49.219  1.00  0.00     0.238 C 
HETATM    3  O   UNL     1      23.735  48.756  50.268  1.00  0.00    -0.272 OA
HETATM    4  H   UNL     1      24.057  46.493  48.031  1.00  0.00     0.190 HD
ENDROOT
BRANCH   1   5
HETATM    5  N   UNL     1      24.860  46.336  49.951  1.00  0.00    -0.262 N 
HETATM    6  C   UNL     1      24.501  45.180  50.611  1.00  0.00     0.288 C 
HETATM    7  O   UNL     1      23.524  44.507  50.293  1.00  0.00    -0.264 OA
HETATM    8  H   UNL     1      25.614  46.940  50.265  1.00  0.00     0.190 HD
BRANCH   6   9
HETATM    9  C   UNL     1      25.358  44.822  51.710  1.00  0.00     0.121 A 
HETATM   10  N   UNL     1      25.026  43.829  52.588  1.00  0.00    -0.272 N 
HETATM   11  N   UNL     1      25.920  43.641  53.569  1.00  0.00    -0.174 NA
HETATM   12  H   UNL     1      24.189  43.254  52.568  1.00  0.00     0.189 HD
HETATM   13  C   UNL     1      26.892  44.536  53.325  1.00  0.00     0.089 A 
HETATM   14  C   UNL     1      26.574  45.294  52.162  1.00  0.00     0.071 A 
BRANCH  13  15
HETATM   15  C   UNL     1      28.070  44.657  54.193  1.00  0.00    -0.006 A 
HETATM   16  C   UNL     1      28.287  45.806  54.968  1.00  0.00     0.014 A 
HETATM   17  C   UNL     1      29.406  45.905  55.801  1.00  0.00     0.001 A 
HETATM   18  C   UNL     1      30.321  44.859  55.870  1.00  0.00     0.000 A 
HETATM   19  C   UNL     1      30.124  43.714  55.103  1.00  0.00     0.001 A 
HETATM   20  C   UNL     1      29.006  43.615  54.269  1.00  0.00     0.014 A 
ENDBRANCH  13  15
ENDBRANCH   6   9
ENDBRANCH   1   5
BRANCH   2  21
HETATM   21  C   UNL     1      22.704  48.734  48.100  1.00  0.00     0.134 C 
BRANCH  21  22
HETATM   22  C   UNL     1      21.245  48.281  48.208  1.00  0.00     0.128 C 
BRANCH  22  23
HETATM   23  N   UNL     1      20.956  47.112  49.039  1.00  0.00    -0.334 N 
HETATM   24  C   UNL     1      20.550  45.891  48.610  1.00  0.00     0.314 C 
HETATM   25  N   UNL     1      20.510  44.972  49.603  1.00  0.00    -0.352 N 
HETATM   26  O   UNL     1      20.196  45.613  47.475  1.00  0.00    -0.248 OA
HETATM   27  H   UNL     1      21.221  45.006  50.319  1.00  0.00     0.160 HD
HETATM   28  H   UNL     1      20.275  44.039  49.285  1.00  0.00     0.160 HD
HETATM   29  H   UNL     1      21.207  47.186  50.013  1.00  0.00     0.165 HD
ENDBRANCH  22  23
BRANCH  22  30
HETATM   30  C   UNL     1      20.357  49.445  48.628  1.00  0.00    -0.035 A 
HETATM   31  C   UNL     1      19.255  49.218  49.470  1.00  0.00     0.011 A 
HETATM   32  C   UNL     1      18.417  50.271  49.845  1.00  0.00     0.024 A 
HETATM   33  C   UNL     1      18.673  51.558  49.382  1.00  0.00     0.034 A 
HETATM   34 CL   UNL     1      17.638  52.853  49.843  1.00  0.00    -0.084 Cl
HETATM   35  C   UNL     1      19.758  51.803  48.545  1.00  0.00     0.024 A 
HETATM   36  C   UNL     1      20.595  50.750  48.166  1.00  0.00     0.011 A 
ENDBRANCH  22  30
ENDBRANCH  21  22
ENDBRANCH   2  21
TORSDOF 7
ENDMDL
MODEL 8
REMARK VINA RESULT:      -9.1      2.526      3.867
REMARK  7 active torsions:
REMARK  status: ('A' for Active; 'I' for Inactive)
REMARK    1  A    between atoms: C_4  and  C_5 
REMARK    2  A    between atoms: C_9  and  C_10 
REMARK       I    between atoms: C_10  and  N_11 
REMARK    3  A    between atoms: N_11  and  N_12 
REMARK       I    between atoms: N_12  and  C_13 
REMARK    4  A    between atoms: C_13  and  C_14 
REMARK    5  A    between atoms: C_14  and  C_15 
REMARK    6  A    between atoms: C_15  and  N_16 
REMARK    7  A    between atoms: C_15  and  C_20 
REMARK       I    between atoms: N_16  and  C_17 
REMARK       I    between atoms: C_17  and  N_18 
ROOT
HETATM    1  N   UNL     1      23.029  47.432  49.457  1.00  0.00    -0.267 N 
HETATM    2  C   UNL     1      22.739  48.764  49.270  1.00  0.00     0.238 C 
HETATM    3  O   UNL     1      23.176  49.651  50.005  1.00  0.00    -0.272 OA
HETATM    4  H   UNL     1      22.887  46.741  48.710  1.00  0.00     0.190 HD
ENDROOT
BRANCH   1   5
HETATM    5  N   UNL     1      23.936  47.116  50.475  1.00  0.00    -0.262 N 
HETATM    6  C   UNL     1      24.836  46.087  50.304  1.00  0.00     0.288 C 
HETATM    7  O   UNL     1      24.990  45.507  49.232  1.00  0.00    -0.264 OA
HETATM    8  H   UNL     1      23.744  47.539  51.379  1.00  0.00     0.190 HD
BRANCH   6   9
HETATM    9  C   UNL     1      25.584  45.737  51.482  1.00  0.00     0.121 A 
HETATM   10  N   UNL     1      25.100  45.971  52.738  1.00  0.00    -0.272 N 
HETATM   11  N   UNL     1      25.932  45.610  53.725  1.00  0.00    -0.174 NA
HETATM   12  H   UNL     1      24.206  46.390  52.978  1.00  0.00     0.189 HD
HETATM   13  C   UNL     1      27.007  45.101  53.099  1.00  0.00     0.089 A 
HETATM   14  C   UNL     1      26.822  45.162  51.688  1.00  0.00     0.071 A 
BRANCH  13  15
HETATM   15  C   UNL     1      28.168  44.593  53.840  1.00  0.00    -0.006 A 
HETATM   16  C   UNL     1      28.687  45.286  54.944  1.00  0.00     0.014 A 
HETATM   17  C   UNL     1      29.785  44.785  55.650  1.00  0.00     0.001 A 
HETATM   18  C   UNL     1      30.377  43.587  55.264  1.00  0.00     0.000 A 
HETATM   19  C   UNL     1      29.877  42.888  54.168  1.00  0.00     0.001 A 
HETATM   20  C   UNL     1      28.781  43.389  53.461  1.00  0.00     0.014 A 
ENDBRANCH  13  15
ENDBRANCH   6   9
ENDBRANCH   1   5
BRANCH   2  21
HETATM   21  C   UNL     1      21.846  49.063  48.095  1.00  0.00     0.134 C 
BRANCH  21  22
HETATM   22  C   UNL     1      20.374  48.898  48.485  1.00  0.00     0.128 C 
BRANCH  22  23
HETATM   23  N   UNL     1      20.037  48.965  49.907  1.00  0.00    -0.334 N 
HETATM   24  C   UNL     1      18.912  48.492  50.499  1.00  0.00     0.314 C 
HETATM   25  N   UNL     1      18.956  48.568  51.850  1.00  0.00    -0.352 N 
HETATM   26  O   UNL     1      17.917  48.084  49.920  1.00  0.00    -0.248 OA
HETATM   27  H   UNL     1      19.837  48.397  52.313  1.00  0.00     0.160 HD
HETATM   28  H   UNL     1      18.151  48.156  52.307  1.00  0.00     0.160 HD
HETATM   29  H   UNL     1      20.772  49.278  50.524  1.00  0.00     0.165 HD
ENDBRANCH  22  23
BRANCH  22  30
HETATM   30  C   UNL     1      19.503  49.872  47.702  1.00  0.00    -0.035 A 
HETATM   31  C   UNL     1      19.304  51.177  48.183  1.00  0.00     0.011 A 
HETATM   32  C   UNL     1      18.489  52.074  47.488  1.00  0.00     0.024 A 
HETATM   33  C   UNL     1      17.867  51.675  46.309  1.00  0.00     0.034 A 
HETATM   34 CL   UNL     1      16.862  52.780  45.456  1.00  0.00    -0.084 Cl
HETATM   35  C   UNL     1      18.051  50.385  45.818  1.00  0.00     0.024 A 
HETATM   36  C   UNL     1      18.863  49.485  46.514  1.00  0.00     0.011 A 
ENDBRANCH  22  30
ENDBRANCH  21  22
ENDBRANCH   2  21
TORSDOF 7
ENDMDL
MODEL 9
REMARK VINA RESULT:      -9.1      3.044      4.260
REMARK  7 active torsions:
REMARK  status: ('A' for Active; 'I' for Inactive)
REMARK    1  A    between atoms: C_4  and  C_5 
REMARK    2  A    between atoms: C_9  and  C_10 
REMARK       I    between atoms: C_10  and  N_11 
REMARK    3  A    between atoms: N_11  and  N_12 
REMARK       I    between atoms: N_12  and  C_13 
REMARK    4  A    between atoms: C_13  and  C_14 
REMARK    5  A    between atoms: C_14  and  C_15 
REMARK    6  A    between atoms: C_15  and  N_16 
REMARK    7  A    between atoms: C_15  and  C_20 
REMARK       I    between atoms: N_16  and  C_17 
REMARK       I    between atoms: C_17  and  N_18 
ROOT
HETATM    1  N   UNL     1      22.451  47.180  49.010  1.00  0.00    -0.267 N 
HETATM    2  C   UNL     1      21.231  46.661  48.638  1.00  0.00     0.238 C 
HETATM    3  O   UNL     1      20.930  45.479  48.808  1.00  0.00    -0.272 OA
HETATM    4  H   UNL     1      22.597  48.192  49.109  1.00  0.00     0.190 HD
ENDROOT
BRANCH   1   5
HETATM    5  N   UNL     1      23.324  46.324  49.691  1.00  0.00    -0.262 N 
HETATM    6  C   UNL     1      24.373  46.843  50.418  1.00  0.00     0.288 C 
HETATM    7  O   UNL     1      24.509  48.046  50.625  1.00  0.00    -0.264 OA
HETATM    8  H   UNL     1      23.255  45.340  49.444  1.00  0.00     0.190 HD
BRANCH   6   9
HETATM    9  C   UNL     1      25.305  45.866  50.915  1.00  0.00     0.121 A 
HETATM   10  N   UNL     1      25.262  44.560  50.514  1.00  0.00    -0.272 N 
HETATM   11  N   UNL     1      26.184  43.777  51.092  1.00  0.00    -0.174 NA
HETATM   12  H   UNL     1      24.611  44.148  49.853  1.00  0.00     0.189 HD
HETATM   13  C   UNL     1      26.876  44.598  51.899  1.00  0.00     0.089 A 
HETATM   14  C   UNL     1      26.353  45.921  51.811  1.00  0.00     0.071 A 
BRANCH  13  15
HETATM   15  C   UNL     1      27.987  44.116  52.730  1.00  0.00    -0.006 A 
HETATM   16  C   UNL     1      28.120  44.514  54.069  1.00  0.00     0.014 A 
HETATM   17  C   UNL     1      29.175  44.037  54.853  1.00  0.00     0.001 A 
HETATM   18  C   UNL     1      30.107  43.158  54.312  1.00  0.00     0.000 A 
HETATM   19  C   UNL     1      29.992  42.756  52.984  1.00  0.00     0.001 A 
HETATM   20  C   UNL     1      28.939  43.234  52.198  1.00  0.00     0.014 A 
ENDBRANCH  13  15
ENDBRANCH   6   9
ENDBRANCH   1   5
BRANCH   2  21
HETATM   21  C   UNL     1      20.285  47.648  48.007  1.00  0.00     0.134 C 
BRANCH  21  22
HETATM   22  C   UNL     1      18.885  47.510  48.612  1.00  0.00     0.128 C 
BRANCH  22  23
HETATM   23  N   UNL     1      18.775  47.476  50.070  1.00  0.00    -0.334 N 
HETATM   24  C   UNL     1      18.878  48.530  50.917  1.00  0.00     0.314 C 
HETATM   25  N   UNL     1      18.581  48.205  52.198  1.00  0.00    -0.352 N 
HETATM   26  O   UNL     1      19.246  49.655  50.618  1.00  0.00    -0.248 OA
HETATM   27  H   UNL     1      17.843  47.537  52.367  1.00  0.00     0.160 HD
HETATM   28  H   UNL     1      18.586  48.998  52.830  1.00  0.00     0.160 HD
HETATM   29  H   UNL     1      18.466  46.604  50.472  1.00  0.00     0.165 HD
ENDBRANCH  22  23
BRANCH  22  30
HETATM   30  C   UNL     1      17.954  48.575  48.049  1.00  0.00    -0.035 A 
HETATM   31  C   UNL     1      16.564  48.446  48.206  1.00  0.00     0.011 A 
HETATM   32  C   UNL     1      15.696  49.404  47.676  1.00  0.00     0.024 A 
HETATM   33  C   UNL     1      16.209  50.497  46.984  1.00  0.00     0.034 A 
HETATM   34 CL   UNL     1      15.139  51.674  46.329  1.00  0.00    -0.084 Cl
HETATM   35  C   UNL     1      17.584  50.641  46.815  1.00  0.00     0.024 A 
HETATM   36  C   UNL     1      18.453  49.682  47.343  1.00  0.00     0.011 A 
ENDBRANCH  22  30
ENDBRANCH  21  22
ENDBRANCH   2  21
TORSDOF 7
ENDMDL
MODEL 10
REMARK VINA RESULT:      -8.9      2.057      2.694
REMARK  7 active torsions:
REMARK  status: ('A' for Active; 'I' for Inactive)
REMARK    1  A    between atoms: C_4  and  C_5 
REMARK    2  A    between atoms: C_9  and  C_10 
REMARK       I    between atoms: C_10  and  N_11 
REMARK    3  A    between atoms: N_11  and  N_12 
REMARK       I    between atoms: N_12  and  C_13 
REMARK    4  A    between atoms: C_13  and  C_14 
REMARK    5  A    between atoms: C_14  and  C_15 
REMARK    6  A    between atoms: C_15  and  N_16 
REMARK    7  A    between atoms: C_15  and  C_20 
REMARK       I    between atoms: N_16  and  C_17 
REMARK       I    between atoms: C_17  and  N_18 
ROOT
HETATM    1  N   UNL     1      24.164  45.033  49.367  1.00  0.00    -0.267 N 
HETATM    2  C   UNL     1      23.731  46.340  49.404  1.00  0.00     0.238 C 
HETATM    3  O   UNL     1      24.286  47.206  50.081  1.00  0.00    -0.272 OA
HETATM    4  H   UNL     1      23.872  44.391  48.620  1.00  0.00     0.190 HD
ENDROOT
BRANCH   1   5
HETATM    5  N   UNL     1      25.341  44.734  50.063  1.00  0.00    -0.262 N 
HETATM    6  C   UNL     1      25.292  43.971  51.209  1.00  0.00     0.288 C 
HETATM    7  O   UNL     1      24.269  43.406  51.589  1.00  0.00    -0.264 OA
HETATM    8  H   UNL     1      26.160  45.272  49.791  1.00  0.00     0.190 HD
BRANCH   6   9
HETATM    9  C   UNL     1      26.531  43.889  51.934  1.00  0.00     0.121 A 
HETATM   10  N   UNL     1      27.634  43.276  51.409  1.00  0.00    -0.272 N 
HETATM   11  N   UNL     1      28.698  43.264  52.225  1.00  0.00    -0.174 NA
HETATM   12  H   UNL     1      27.709  42.837  50.496  1.00  0.00     0.189 HD
HETATM   13  C   UNL     1      28.289  43.908  53.331  1.00  0.00     0.089 A 
HETATM   14  C   UNL     1      26.933  44.318  53.183  1.00  0.00     0.071 A 
BRANCH  13  15
HETATM   15  C   UNL     1      29.174  44.102  54.487  1.00  0.00    -0.006 A 
HETATM   16  C   UNL     1      30.146  43.149  54.827  1.00  0.00     0.014 A 
HETATM   17  C   UNL     1      30.992  43.351  55.922  1.00  0.00     0.001 A 
HETATM   18  C   UNL     1      30.879  44.507  56.689  1.00  0.00     0.000 A 
HETATM   19  C   UNL     1      29.917  45.462  56.367  1.00  0.00     0.001 A 
HETATM   20  C   UNL     1      29.070  45.259  55.274  1.00  0.00     0.014 A 
ENDBRANCH  13  15
ENDBRANCH   6   9
ENDBRANCH   1   5
BRANCH   2  21
HETATM   21  C   UNL     1      22.524  46.635  48.554  1.00  0.00     0.134 C 
BRANCH  21  22
HETATM   22  C   UNL     1      21.936  48.002  48.915  1.00  0.00     0.128 C 
BRANCH  22  23
HETATM   23  N   UNL     1      22.525  49.183  48.282  1.00  0.00    -0.334 N 
HETATM   24  C   UNL     1      22.929  50.320  48.900  1.00  0.00     0.314 C 
HETATM   25  N   UNL     1      23.570  51.172  48.066  1.00  0.00    -0.352 N 
HETATM   26  O   UNL     1      22.714  50.616  50.065  1.00  0.00    -0.248 OA
HETATM   27  H   UNL     1      24.172  50.786  47.353  1.00  0.00     0.160 HD
HETATM   28  H   UNL     1      23.938  51.995  48.529  1.00  0.00     0.160 HD
HETATM   29  H   UNL     1      22.771  49.088  47.308  1.00  0.00     0.165 HD
ENDBRANCH  22  23
BRANCH  22  30
HETATM   30  C   UNL     1      20.427  48.005  48.709  1.00  0.00    -0.035 A 
HETATM   31  C   UNL     1      19.880  47.477  47.528  1.00  0.00     0.011 A 
HETATM   32  C   UNL     1      18.500  47.492  47.315  1.00  0.00     0.024 A 
HETATM   33  C   UNL     1      17.655  48.036  48.279  1.00  0.00     0.034 A 
HETATM   34 CL   UNL     1      15.956  48.057  48.013  1.00  0.00    -0.084 Cl
HETATM   35  C   UNL     1      18.179  48.566  49.455  1.00  0.00     0.024 A 
HETATM   36  C   UNL     1      19.560  48.554  49.668  1.00  0.00     0.011 A 
ENDBRANCH  22  30
ENDBRANCH  21  22
ENDBRANCH   2  21
TORSDOF 7
ENDMDL
