MODEL 1
REMARK VINA RESULT:     -11.4      0.000      0.000
REMARK  6 active torsions:
REMARK  status: ('A' for Active; 'I' for Inactive)
REMARK       I    between atoms: N_1  and  C_2 
REMARK    1  A    between atoms: C_2  and  C_4 
REMARK    2  A    between atoms: C_7  and  N_8 
REMARK       I    between atoms: N_8  and  C_9 
REMARK       I    between atoms: C_9  and  N_11 
REMARK    3  A    between atoms: N_11  and  C_12 
REMARK    4  A    between atoms: C_12  and  C_13 
REMARK    5  A    between atoms: C_17  and  C_19 
REMARK       I    between atoms: C_19  and  N_21 
REMARK    6  A    between atoms: N_21  and  C_22 
ROOT
HETATM    1  C   UNL     1      25.205  46.940  50.433  1.00  0.00    -0.040 A 
HETATM    2  C   UNL     1      26.526  47.376  50.263  1.00  0.00     0.009 A 
HETATM    3  C   UNL     1      26.805  48.474  49.452  1.00  0.00     0.002 A 
HETATM    4  C   UNL     1      25.765  49.155  48.819  1.00  0.00     0.017 A 
HETATM    5  C   UNL     1      24.433  48.751  48.993  1.00  0.00     0.032 A 
HETATM    6  C   UNL     1      24.161  47.633  49.794  1.00  0.00     0.026 A 
ENDROOT
BRANCH   1   7
HETATM    7  C   UNL     1      24.901  45.761  51.323  1.00  0.00     0.162 C 
BRANCH   7   8
HETATM    8  N   UNL     1      26.112  45.070  51.704  1.00  0.00    -0.339 N 
HETATM    9  C   UNL     1      26.756  45.359  52.889  1.00  0.00     0.320 C 
HETATM   10  N   UNL     1      27.859  44.550  53.054  1.00  0.00    -0.309 N 
HETATM   11  O   UNL     1      26.342  46.204  53.672  1.00  0.00    -0.247 OA
HETATM   12  H   UNL     1      27.983  43.835  52.353  1.00  0.00     0.170 HD
HETATM   13  H   UNL     1      26.680  44.719  50.950  1.00  0.00     0.164 HD
BRANCH  10  14
HETATM   14  C   UNL     1      28.743  44.506  54.151  1.00  0.00     0.036 A 
HETATM   15  C   UNL     1      28.865  45.526  55.097  1.00  0.00     0.030 A 
HETATM   16  C   UNL     1      29.747  45.396  56.178  1.00  0.00     0.019 A 
HETATM   17  C   UNL     1      30.517  44.237  56.324  1.00  0.00     0.032 A 
HETATM   18  C   UNL     1      30.419  43.226  55.363  1.00  0.00     0.019 A 
HETATM   19  C   UNL     1      29.536  43.360  54.286  1.00  0.00     0.030 A 
BRANCH  17  20
HETATM   20  C   UNL     1      31.454  44.042  57.462  1.00  0.00     0.249 C 
HETATM   21  N   UNL     1      31.398  44.940  58.491  1.00  0.00    -0.366 N 
HETATM   22  H   UNL     1      31.967  44.729  59.300  1.00  0.00     0.159 HD
HETATM   23  H   UNL     1      30.633  45.588  58.611  1.00  0.00     0.159 HD
HETATM   24  O   UNL     1      32.223  43.089  57.503  1.00  0.00    -0.268 OA
ENDBRANCH  17  20
ENDBRANCH  10  14
ENDBRANCH   7   8
ENDBRANCH   1   7
BRANCH   5  25
HETATM   25  C   UNL     1      23.373  49.535  48.285  1.00  0.00     0.256 C 
HETATM   26  O   UNL     1      23.704  50.154  47.279  1.00  0.00    -0.267 OA
HETATM   27  N   UNL     1      22.108  49.508  48.847  1.00  0.00    -0.323 N 
HETATM   28  H   UNL     1      21.976  48.968  49.691  1.00  0.00     0.169 HD
BRANCH  27  29
HETATM   29  C   UNL     1      20.963  50.208  48.401  1.00  0.00     0.035 A 
HETATM   30  C   UNL     1      20.612  51.487  48.835  1.00  0.00     0.030 A 
HETATM   31  C   UNL     1      19.451  52.106  48.365  1.00  0.00     0.010 A 
HETATM   32  C   UNL     1      18.628  51.463  47.436  1.00  0.00    -0.048 A 
HETATM   33  C   UNL     1      17.352  52.116  46.970  1.00  0.00     0.069 C 
HETATM   34  C   UNL     1      18.962  50.173  46.993  1.00  0.00    -0.022 A 
HETATM   35  C   UNL     1      16.805  51.472  45.692  1.00  0.00     0.274 C 
HETATM   36  N   UNL     1      16.763  50.012  45.813  1.00  0.00     0.087 N 
HETATM   37  C   UNL     1      18.124  49.475  45.945  1.00  0.00     0.308 C 
HETATM   38  H   UNL     1      16.334  49.615  44.980  1.00  0.00     0.316 HD
HETATM   39  C   UNL     1      20.132  49.560  47.476  1.00  0.00     0.039 A 
ENDBRANCH  27  29
ENDBRANCH   5  25
TORSDOF 6
ENDMDL
MODEL 2
REMARK VINA RESULT:     -11.3      2.285     12.783
REMARK  6 active torsions:
REMARK  status: ('A' for Active; 'I' for Inactive)
REMARK       I    between atoms: N_1  and  C_2 
REMARK    1  A    between atoms: C_2  and  C_4 
REMARK    2  A    between atoms: C_7  and  N_8 
REMARK       I    between atoms: N_8  and  C_9 
REMARK       I    between atoms: C_9  and  N_11 
REMARK    3  A    between atoms: N_11  and  C_12 
REMARK    4  A    between atoms: C_12  and  C_13 
REMARK    5  A    between atoms: C_17  and  C_19 
REMARK       I    between atoms: C_19  and  N_21 
REMARK    6  A    between atoms: N_21  and  C_22 
ROOT
HETATM    1  C   UNL     1      24.440  46.386  49.920  1.00  0.00    -0.040 A 
HETATM    2  C   UNL     1      23.545  45.427  49.427  1.00  0.00     0.009 A 
HETATM    3  C   UNL     1      23.490  44.157  49.998  1.00  0.00     0.002 A 
HETATM    4  C   UNL     1      24.316  43.843  51.076  1.00  0.00     0.017 A 
HETATM    5  C   UNL     1      25.204  44.794  51.601  1.00  0.00     0.032 A 
HETATM    6  C   UNL     1      25.269  46.063  51.009  1.00  0.00     0.026 A 
ENDROOT
BRANCH   1   7
HETATM    7  C   UNL     1      24.490  47.765  49.312  1.00  0.00     0.162 C 
BRANCH   7   8
HETATM    8  N   UNL     1      23.528  48.645  49.936  1.00  0.00    -0.339 N 
HETATM    9  C   UNL     1      22.485  49.189  49.217  1.00  0.00     0.320 C 
HETATM   10  N   UNL     1      21.682  49.959  50.029  1.00  0.00    -0.309 N 
HETATM   11  O   UNL     1      22.318  48.958  48.026  1.00  0.00    -0.247 OA
HETATM   12  H   UNL     1      21.915  49.947  51.010  1.00  0.00     0.170 HD
HETATM   13  H   UNL     1      23.856  49.170  50.732  1.00  0.00     0.164 HD
BRANCH  10  14
HETATM   14  C   UNL     1      20.496  50.637  49.681  1.00  0.00     0.036 A 
HETATM   15  C   UNL     1      20.436  51.677  48.751  1.00  0.00     0.030 A 
HETATM   16  C   UNL     1      19.213  52.284  48.435  1.00  0.00     0.019 A 
HETATM   17  C   UNL     1      18.033  51.852  49.049  1.00  0.00     0.032 A 
HETATM   18  C   UNL     1      18.093  50.832  50.003  1.00  0.00     0.019 A 
HETATM   19  C   UNL     1      19.316  50.228  50.314  1.00  0.00     0.030 A 
BRANCH  17  20
HETATM   20  C   UNL     1      16.708  52.451  48.737  1.00  0.00     0.249 C 
HETATM   21  N   UNL     1      16.349  53.584  49.413  1.00  0.00    -0.366 N 
HETATM   22  H   UNL     1      15.495  54.033  49.110  1.00  0.00     0.159 HD
HETATM   23  H   UNL     1      17.006  54.135  49.945  1.00  0.00     0.159 HD
HETATM   24  O   UNL     1      15.976  51.977  47.877  1.00  0.00    -0.268 OA
ENDBRANCH  17  20
ENDBRANCH  10  14
ENDBRANCH   7   8
ENDBRANCH   1   7
BRANCH   5  25
HETATM   25  C   UNL     1      26.054  44.381  52.763  1.00  0.00     0.256 C 
HETATM   26  O   UNL     1      25.479  43.984  53.771  1.00  0.00    -0.267 OA
HETATM   27  N   UNL     1      27.423  44.508  52.599  1.00  0.00    -0.323 N 
HETATM   28  H   UNL     1      27.763  44.866  51.718  1.00  0.00     0.169 HD
BRANCH  27  29
HETATM   29  C   UNL     1      28.423  44.241  53.563  1.00  0.00     0.035 A 
HETATM   30  C   UNL     1      29.341  43.195  53.465  1.00  0.00     0.030 A 
HETATM   31  C   UNL     1      30.287  42.980  54.472  1.00  0.00     0.010 A 
HETATM   32  C   UNL     1      30.343  43.822  55.586  1.00  0.00    -0.048 A 
HETATM   33  C   UNL     1      31.334  43.555  56.690  1.00  0.00     0.069 C 
HETATM   34  C   UNL     1      29.424  44.876  55.704  1.00  0.00    -0.022 A 
HETATM   35  C   UNL     1      31.524  44.770  57.605  1.00  0.00     0.274 C 
HETATM   36  N   UNL     1      30.232  45.317  58.028  1.00  0.00     0.087 N 
HETATM   37  C   UNL     1      29.496  45.837  56.869  1.00  0.00     0.308 C 
HETATM   38  H   UNL     1      30.385  46.078  58.687  1.00  0.00     0.316 HD
HETATM   39  C   UNL     1      28.474  45.079  54.686  1.00  0.00     0.039 A 
ENDBRANCH  27  29
ENDBRANCH   5  25
TORSDOF 6
ENDMDL
MODEL 3
REMARK VINA RESULT:     -10.5      3.094     12.134
REMARK  6 active torsions:
REMARK  status: ('A' for Active; 'I' for Inactive)
REMARK       I    between atoms: N_1  and  C_2 
REMARK    1  A    between atoms: C_2  and  C_4 
REMARK    2  A    between atoms: C_7  and  N_8 
REMARK       I    between atoms: N_8  and  C_9 
REMARK       I    between atoms: C_9  and  N_11 
REMARK    3  A    between atoms: N_11  and  C_12 
REMARK    4  A    between atoms: C_12  and  C_13 
REMARK    5  A    between atoms: C_17  and  C_19 
REMARK       I    between atoms: C_19  and  N_21 
REMARK    6  A    between atoms: N_21  and  C_22 
ROOT
HETATM    1  C   UNL     1      23.852  43.749  48.293  1.00  0.00    -0.040 A 
HETATM    2  C   UNL     1      23.761  42.370  48.061  1.00  0.00     0.009 A 
HETATM    3  C   UNL     1      24.690  41.498  48.625  1.00  0.00     0.002 A 
HETATM    4  C   UNL     1      25.706  41.996  49.440  1.00  0.00     0.017 A 
HETATM    5  C   UNL     1      25.804  43.371  49.705  1.00  0.00     0.032 A 
HETATM    6  C   UNL     1      24.878  44.244  49.118  1.00  0.00     0.026 A 
ENDROOT
BRANCH   1   7
HETATM    7  C   UNL     1      22.838  44.691  47.694  1.00  0.00     0.162 C 
BRANCH   7   8
HETATM    8  N   UNL     1      22.604  45.824  48.561  1.00  0.00    -0.339 N 
HETATM    9  C   UNL     1      21.666  46.783  48.243  1.00  0.00     0.320 C 
HETATM   10  N   UNL     1      21.593  47.740  49.233  1.00  0.00    -0.309 N 
HETATM   11  O   UNL     1      20.988  46.728  47.225  1.00  0.00    -0.247 OA
HETATM   12  H   UNL     1      22.154  47.562  50.052  1.00  0.00     0.170 HD
HETATM   13  H   UNL     1      23.383  46.118  49.130  1.00  0.00     0.164 HD
BRANCH  10  14
HETATM   14  C   UNL     1      20.727  48.850  49.301  1.00  0.00     0.036 A 
HETATM   15  C   UNL     1      21.064  50.132  48.861  1.00  0.00     0.030 A 
HETATM   16  C   UNL     1      20.137  51.179  48.936  1.00  0.00     0.019 A 
HETATM   17  C   UNL     1      18.856  50.953  49.451  1.00  0.00     0.032 A 
HETATM   18  C   UNL     1      18.525  49.678  49.920  1.00  0.00     0.019 A 
HETATM   19  C   UNL     1      19.454  48.634  49.842  1.00  0.00     0.030 A 
BRANCH  17  20
HETATM   20  C   UNL     1      17.830  52.026  49.536  1.00  0.00     0.249 C 
HETATM   21  N   UNL     1      17.969  53.102  48.705  1.00  0.00    -0.366 N 
HETATM   22  H   UNL     1      17.206  53.766  48.703  1.00  0.00     0.159 HD
HETATM   23  H   UNL     1      18.597  53.107  47.914  1.00  0.00     0.159 HD
HETATM   24  O   UNL     1      16.870  51.936  50.290  1.00  0.00    -0.268 OA
ENDBRANCH  17  20
ENDBRANCH  10  14
ENDBRANCH   7   8
ENDBRANCH   1   7
BRANCH   5  25
HETATM   25  C   UNL     1      26.920  43.827  50.593  1.00  0.00     0.256 C 
HETATM   26  O   UNL     1      27.688  44.672  50.147  1.00  0.00    -0.267 OA
HETATM   27  N   UNL     1      26.996  43.231  51.841  1.00  0.00    -0.323 N 
HETATM   28  H   UNL     1      26.304  42.533  52.075  1.00  0.00     0.169 HD
BRANCH  27  29
HETATM   29  C   UNL     1      27.984  43.449  52.829  1.00  0.00     0.035 A 
HETATM   30  C   UNL     1      29.158  42.704  52.935  1.00  0.00     0.030 A 
HETATM   31  C   UNL     1      30.078  42.964  53.955  1.00  0.00     0.010 A 
HETATM   32  C   UNL     1      29.847  43.990  54.876  1.00  0.00    -0.048 A 
HETATM   33  C   UNL     1      30.821  44.234  56.001  1.00  0.00     0.069 C 
HETATM   34  C   UNL     1      28.669  44.747  54.788  1.00  0.00    -0.022 A 
HETATM   35  C   UNL     1      30.624  45.608  56.649  1.00  0.00     0.274 C 
HETATM   36  N   UNL     1      29.213  45.845  56.966  1.00  0.00     0.087 N 
HETATM   37  C   UNL     1      28.418  45.900  55.733  1.00  0.00     0.308 C 
HETATM   38  H   UNL     1      29.120  46.733  57.456  1.00  0.00     0.316 HD
HETATM   39  C   UNL     1      27.749  44.472  53.759  1.00  0.00     0.039 A 
ENDBRANCH  27  29
ENDBRANCH   5  25
TORSDOF 6
ENDMDL
MODEL 4
REMARK VINA RESULT:     -10.3      3.358     12.440
REMARK  6 active torsions:
REMARK  status: ('A' for Active; 'I' for Inactive)
REMARK       I    between atoms: N_1  and  C_2 
REMARK    1  A    between atoms: C_2  and  C_4 
REMARK    2  A    between atoms: C_7  and  N_8 
REMARK       I    between atoms: N_8  and  C_9 
REMARK       I    between atoms: C_9  and  N_11 
REMARK    3  A    between atoms: N_11  and  C_12 
REMARK    4  A    between atoms: C_12  and  C_13 
REMARK    5  A    between atoms: C_17  and  C_19 
REMARK       I    between atoms: C_19  and  N_21 
REMARK    6  A    between atoms: N_21  and  C_22 
ROOT
HETATM    1  C   UNL     1      22.496  48.759  48.184  1.00  0.00    -0.040 A 
HETATM    2  C   UNL     1      22.855  49.999  47.639  1.00  0.00     0.009 A 
HETATM    3  C   UNL     1      24.115  50.539  47.888  1.00  0.00     0.002 A 
HETATM    4  C   UNL     1      25.032  49.836  48.669  1.00  0.00     0.017 A 
HETATM    5  C   UNL     1      24.703  48.582  49.207  1.00  0.00     0.032 A 
HETATM    6  C   UNL     1      23.427  48.054  48.969  1.00  0.00     0.026 A 
ENDROOT
BRANCH   1   7
HETATM    7  C   UNL     1      21.138  48.167  47.903  1.00  0.00     0.162 C 
BRANCH   7   8
HETATM    8  N   UNL     1      20.173  49.199  47.598  1.00  0.00    -0.339 N 
HETATM    9  C   UNL     1      19.231  49.592  48.526  1.00  0.00     0.320 C 
HETATM   10  N   UNL     1      18.450  50.612  48.026  1.00  0.00    -0.309 N 
HETATM   11  O   UNL     1      19.162  49.095  49.643  1.00  0.00    -0.247 OA
HETATM   12  H   UNL     1      18.724  50.966  47.122  1.00  0.00     0.170 HD
HETATM   13  H   UNL     1      19.929  49.309  46.626  1.00  0.00     0.164 HD
BRANCH  10  14
HETATM   14  C   UNL     1      17.417  51.311  48.683  1.00  0.00     0.036 A 
HETATM   15  C   UNL     1      16.083  50.901  48.696  1.00  0.00     0.030 A 
HETATM   16  C   UNL     1      15.116  51.635  49.396  1.00  0.00     0.019 A 
HETATM   17  C   UNL     1      15.479  52.792  50.095  1.00  0.00     0.032 A 
HETATM   18  C   UNL     1      16.809  53.222  50.059  1.00  0.00     0.019 A 
HETATM   19  C   UNL     1      17.771  52.485  49.360  1.00  0.00     0.030 A 
BRANCH  17  20
HETATM   20  C   UNL     1      14.496  53.597  50.867  1.00  0.00     0.249 C 
HETATM   21  N   UNL     1      14.968  54.338  51.915  1.00  0.00    -0.366 N 
HETATM   22  H   UNL     1      14.304  54.959  52.358  1.00  0.00     0.159 HD
HETATM   23  H   UNL     1      15.950  54.525  52.056  1.00  0.00     0.159 HD
HETATM   24  O   UNL     1      13.313  53.634  50.557  1.00  0.00    -0.268 OA
ENDBRANCH  17  20
ENDBRANCH  10  14
ENDBRANCH   7   8
ENDBRANCH   1   7
BRANCH   5  25
HETATM   25  C   UNL     1      25.743  47.888  50.030  1.00  0.00     0.256 C 
HETATM   26  O   UNL     1      26.917  48.063  49.724  1.00  0.00    -0.267 OA
HETATM   27  N   UNL     1      25.278  47.086  51.059  1.00  0.00    -0.323 N 
HETATM   28  H   UNL     1      24.279  47.017  51.192  1.00  0.00     0.169 HD
BRANCH  27  29
HETATM   29  C   UNL     1      26.053  46.288  51.932  1.00  0.00     0.035 A 
HETATM   30  C   UNL     1      26.353  46.638  53.249  1.00  0.00     0.030 A 
HETATM   31  C   UNL     1      27.147  45.807  54.045  1.00  0.00     0.010 A 
HETATM   32  C   UNL     1      27.639  44.600  53.541  1.00  0.00    -0.048 A 
HETATM   33  C   UNL     1      28.534  43.731  54.389  1.00  0.00     0.069 C 
HETATM   34  C   UNL     1      27.353  44.234  52.217  1.00  0.00    -0.022 A 
HETATM   35  C   UNL     1      28.643  42.304  53.843  1.00  0.00     0.274 C 
HETATM   36  N   UNL     1      28.938  42.310  52.408  1.00  0.00     0.087 N 
HETATM   37  C   UNL     1      27.823  42.908  51.663  1.00  0.00     0.308 C 
HETATM   38  H   UNL     1      29.072  41.354  52.085  1.00  0.00     0.316 HD
HETATM   39  C   UNL     1      26.556  45.081  51.426  1.00  0.00     0.039 A 
ENDBRANCH  27  29
ENDBRANCH   5  25
TORSDOF 6
ENDMDL
MODEL 5
REMARK VINA RESULT:     -10.0      4.112      5.197
REMARK  6 active torsions:
REMARK  status: ('A' for Active; 'I' for Inactive)
REMARK       I    between atoms: N_1  and  C_2 
REMARK    1  A    between atoms: C_2  and  C_4 
REMARK    2  A    between atoms: C_7  and  N_8 
REMARK       I    between atoms: N_8  and  C_9 
REMARK       I    between atoms: C_9  and  N_11 
REMARK    3  A    between atoms: N_11  and  C_12 
REMARK    4  A    between atoms: C_12  and  C_13 
REMARK    5  A    between atoms: C_17  and  C_19 
REMARK       I    between atoms: C_19  and  N_21 
REMARK    6  A    between atoms: N_21  and  C_22 
ROOT
HETATM    1  C   UNL     1      26.045  47.775  49.738  1.00  0.00    -0.040 A 
HETATM    2  C   UNL     1      27.171  48.538  49.399  1.00  0.00     0.009 A 
HETATM    3  C   UNL     1      27.031  49.704  48.648  1.00  0.00     0.002 A 
HETATM    4  C   UNL     1      25.764  50.124  48.246  1.00  0.00     0.017 A 
HETATM    5  C   UNL     1      24.620  49.388  48.592  1.00  0.00     0.032 A 
HETATM    6  C   UNL     1      24.770  48.207  49.331  1.00  0.00     0.026 A 
ENDROOT
BRANCH   1   7
HETATM    7  C   UNL     1      26.195  46.522  50.563  1.00  0.00     0.162 C 
BRANCH   7   8
HETATM    8  N   UNL     1      25.891  45.344  49.783  1.00  0.00    -0.339 N 
HETATM    9  C   UNL     1      26.621  44.183  49.928  1.00  0.00     0.320 C 
HETATM   10  N   UNL     1      26.123  43.190  49.112  1.00  0.00    -0.309 N 
HETATM   11  O   UNL     1      27.553  44.088  50.715  1.00  0.00    -0.247 OA
HETATM   12  H   UNL     1      25.280  43.421  48.609  1.00  0.00     0.170 HD
HETATM   13  H   UNL     1      25.461  45.504  48.885  1.00  0.00     0.164 HD
BRANCH  10  14
HETATM   14  C   UNL     1      26.563  41.854  49.009  1.00  0.00     0.036 A 
HETATM   15  C   UNL     1      27.471  41.403  48.049  1.00  0.00     0.030 A 
HETATM   16  C   UNL     1      27.883  40.064  48.028  1.00  0.00     0.019 A 
HETATM   17  C   UNL     1      27.388  39.160  48.974  1.00  0.00     0.032 A 
HETATM   18  C   UNL     1      26.455  39.601  49.918  1.00  0.00     0.019 A 
HETATM   19  C   UNL     1      26.049  40.940  49.936  1.00  0.00     0.030 A 
BRANCH  17  20
HETATM   20  C   UNL     1      27.806  37.733  49.007  1.00  0.00     0.249 C 
HETATM   21  N   UNL     1      27.561  37.027  50.151  1.00  0.00    -0.366 N 
HETATM   22  H   UNL     1      27.754  36.035  50.114  1.00  0.00     0.159 HD
HETATM   23  H   UNL     1      26.942  37.357  50.877  1.00  0.00     0.159 HD
HETATM   24  O   UNL     1      28.312  37.191  48.032  1.00  0.00    -0.268 OA
ENDBRANCH  17  20
ENDBRANCH  10  14
ENDBRANCH   7   8
ENDBRANCH   1   7
BRANCH   5  25
HETATM   25  C   UNL     1      23.295  49.907  48.127  1.00  0.00     0.256 C 
HETATM   26  O   UNL     1      23.252  50.439  47.022  1.00  0.00    -0.267 OA
HETATM   27  N   UNL     1      22.233  49.757  49.003  1.00  0.00    -0.323 N 
HETATM   28  H   UNL     1      22.413  49.313  49.893  1.00  0.00     0.169 HD
BRANCH  27  29
HETATM   29  C   UNL     1      20.907  50.213  48.819  1.00  0.00     0.035 A 
HETATM   30  C   UNL     1      20.529  51.555  48.874  1.00  0.00     0.030 A 
HETATM   31  C   UNL     1      19.192  51.926  48.704  1.00  0.00     0.010 A 
HETATM   32  C   UNL     1      18.212  50.961  48.457  1.00  0.00    -0.048 A 
HETATM   33  C   UNL     1      16.765  51.364  48.323  1.00  0.00     0.069 C 
HETATM   34  C   UNL     1      18.573  49.606  48.405  1.00  0.00    -0.022 A 
HETATM   35  C   UNL     1      15.916  50.268  47.673  1.00  0.00     0.274 C 
HETATM   36  N   UNL     1      16.158  48.968  48.307  1.00  0.00     0.087 N 
HETATM   37  C   UNL     1      17.545  48.544  48.083  1.00  0.00     0.308 C 
HETATM   38  H   UNL     1      15.533  48.273  47.903  1.00  0.00     0.316 HD
HETATM   39  C   UNL     1      19.921  49.245  48.580  1.00  0.00     0.039 A 
ENDBRANCH  27  29
ENDBRANCH   5  25
TORSDOF 6
ENDMDL
MODEL 6
REMARK VINA RESULT:      -9.9      2.168      2.663
REMARK  6 active torsions:
REMARK  status: ('A' for Active; 'I' for Inactive)
REMARK       I    between atoms: N_1  and  C_2 
REMARK    1  A    between atoms: C_2  and  C_4 
REMARK    2  A    between atoms: C_7  and  N_8 
REMARK       I    between atoms: N_8  and  C_9 
REMARK       I    between atoms: C_9  and  N_11 
REMARK    3  A    between atoms: N_11  and  C_12 
REMARK    4  A    between atoms: C_12  and  C_13 
REMARK    5  A    between atoms: C_17  and  C_19 
REMARK       I    between atoms: C_19  and  N_21 
REMARK    6  A    between atoms: N_21  and  C_22 
ROOT
HETATM    1  C   UNL     1      24.642  44.502  49.351  1.00  0.00    -0.040 A 
HETATM    2  C   UNL     1      23.905  43.323  49.173  1.00  0.00     0.009 A 
HETATM    3  C   UNL     1      22.581  43.379  48.743  1.00  0.00     0.002 A 
HETATM    4  C   UNL     1      21.989  44.612  48.471  1.00  0.00     0.017 A 
HETATM    5  C   UNL     1      22.713  45.804  48.620  1.00  0.00     0.032 A 
HETATM    6  C   UNL     1      24.039  45.742  49.072  1.00  0.00     0.026 A 
ENDROOT
BRANCH   1   7
HETATM    7  C   UNL     1      26.079  44.441  49.802  1.00  0.00     0.162 C 
BRANCH   7   8
HETATM    8  N   UNL     1      26.182  44.592  51.236  1.00  0.00    -0.339 N 
HETATM    9  C   UNL     1      27.381  44.399  51.890  1.00  0.00     0.320 C 
HETATM   10  N   UNL     1      27.243  44.635  53.241  1.00  0.00    -0.309 N 
HETATM   11  O   UNL     1      28.410  44.095  51.299  1.00  0.00    -0.247 OA
HETATM   12  H   UNL     1      26.342  44.981  53.532  1.00  0.00     0.170 HD
HETATM   13  H   UNL     1      25.341  44.416  51.764  1.00  0.00     0.164 HD
BRANCH  10  14
HETATM   14  C   UNL     1      28.243  44.591  54.233  1.00  0.00     0.036 A 
HETATM   15  C   UNL     1      28.504  45.633  55.125  1.00  0.00     0.030 A 
HETATM   16  C   UNL     1      29.498  45.503  56.104  1.00  0.00     0.019 A 
HETATM   17  C   UNL     1      30.241  44.322  56.202  1.00  0.00     0.032 A 
HETATM   18  C   UNL     1      30.004  43.288  55.291  1.00  0.00     0.019 A 
HETATM   19  C   UNL     1      29.009  43.422  54.316  1.00  0.00     0.030 A 
BRANCH  17  20
HETATM   20  C   UNL     1      31.295  44.127  57.234  1.00  0.00     0.249 C 
HETATM   21  N   UNL     1      32.212  43.136  57.023  1.00  0.00    -0.366 N 
HETATM   22  H   UNL     1      32.980  43.091  57.680  1.00  0.00     0.159 HD
HETATM   23  H   UNL     1      32.333  42.682  56.129  1.00  0.00     0.159 HD
HETATM   24  O   UNL     1      31.369  44.851  58.218  1.00  0.00    -0.268 OA
ENDBRANCH  17  20
ENDBRANCH  10  14
ENDBRANCH   7   8
ENDBRANCH   1   7
BRANCH   5  25
HETATM   25  C   UNL     1      22.010  47.087  48.303  1.00  0.00     0.256 C 
HETATM   26  O   UNL     1      22.175  47.561  47.184  1.00  0.00    -0.267 OA
HETATM   27  N   UNL     1      21.246  47.637  49.319  1.00  0.00    -0.323 N 
HETATM   28  H   UNL     1      21.209  47.148  50.202  1.00  0.00     0.169 HD
BRANCH  27  29
HETATM   29  C   UNL     1      20.539  48.861  49.284  1.00  0.00     0.035 A 
HETATM   30  C   UNL     1      21.104  50.097  49.597  1.00  0.00     0.030 A 
HETATM   31  C   UNL     1      20.333  51.263  49.561  1.00  0.00     0.010 A 
HETATM   32  C   UNL     1      18.985  51.214  49.194  1.00  0.00    -0.048 A 
HETATM   33  C   UNL     1      18.148  52.468  49.204  1.00  0.00     0.069 C 
HETATM   34  C   UNL     1      18.398  49.978  48.881  1.00  0.00    -0.022 A 
HETATM   35  C   UNL     1      16.849  52.304  48.410  1.00  0.00     0.274 C 
HETATM   36  N   UNL     1      16.152  51.071  48.788  1.00  0.00     0.087 N 
HETATM   37  C   UNL     1      16.959  49.900  48.424  1.00  0.00     0.308 C 
HETATM   38  H   UNL     1      15.261  51.020  48.297  1.00  0.00     0.316 HD
HETATM   39  C   UNL     1      19.184  48.812  48.924  1.00  0.00     0.039 A 
ENDBRANCH  27  29
ENDBRANCH   5  25
TORSDOF 6
ENDMDL
MODEL 7
REMARK VINA RESULT:      -9.9      2.770     13.126
REMARK  6 active torsions:
REMARK  status: ('A' for Active; 'I' for Inactive)
REMARK       I    between atoms: N_1  and  C_2 
REMARK    1  A    between atoms: C_2  and  C_4 
REMARK    2  A    between atoms: C_7  and  N_8 
REMARK       I    between atoms: N_8  and  C_9 
REMARK       I    between atoms: C_9  and  N_11 
REMARK    3  A    between atoms: N_11  and  C_12 
REMARK    4  A    between atoms: C_12  and  C_13 
REMARK    5  A    between atoms: C_17  and  C_19 
REMARK       I    between atoms: C_19  and  N_21 
REMARK    6  A    between atoms: N_21  and  C_22 
ROOT
HETATM    1  C   UNL     1      24.034  45.145  49.887  1.00  0.00    -0.040 A 
HETATM    2  C   UNL     1      24.196  46.536  49.820  1.00  0.00     0.009 A 
HETATM    3  C   UNL     1      25.177  47.168  50.581  1.00  0.00     0.002 A 
HETATM    4  C   UNL     1      26.014  46.413  51.402  1.00  0.00     0.017 A 
HETATM    5  C   UNL     1      25.886  45.017  51.469  1.00  0.00     0.032 A 
HETATM    6  C   UNL     1      24.884  44.391  50.715  1.00  0.00     0.026 A 
ENDROOT
BRANCH   1   7
HETATM    7  C   UNL     1      22.983  44.460  49.052  1.00  0.00     0.162 C 
BRANCH   7   8
HETATM    8  N   UNL     1      21.654  44.869  49.448  1.00  0.00    -0.339 N 
HETATM    9  C   UNL     1      20.947  45.801  48.718  1.00  0.00     0.320 C 
HETATM   10  N   UNL     1      19.697  46.001  49.264  1.00  0.00    -0.309 N 
HETATM   11  O   UNL     1      21.399  46.326  47.709  1.00  0.00    -0.247 OA
HETATM   12  H   UNL     1      19.458  45.399  50.037  1.00  0.00     0.170 HD
HETATM   13  H   UNL     1      21.442  44.803  50.431  1.00  0.00     0.164 HD
BRANCH  10  14
HETATM   14  C   UNL     1      18.667  46.834  48.783  1.00  0.00     0.036 A 
HETATM   15  C   UNL     1      18.471  48.153  49.199  1.00  0.00     0.030 A 
HETATM   16  C   UNL     1      17.440  48.928  48.653  1.00  0.00     0.019 A 
HETATM   17  C   UNL     1      16.593  48.390  47.678  1.00  0.00     0.032 A 
HETATM   18  C   UNL     1      16.767  47.061  47.281  1.00  0.00     0.019 A 
HETATM   19  C   UNL     1      17.799  46.290  47.828  1.00  0.00     0.030 A 
BRANCH  17  20
HETATM   20  C   UNL     1      15.495  49.176  47.055  1.00  0.00     0.249 C 
HETATM   21  N   UNL     1      14.488  48.483  46.442  1.00  0.00    -0.366 N 
HETATM   22  H   UNL     1      13.701  49.031  46.120  1.00  0.00     0.159 HD
HETATM   23  H   UNL     1      14.349  47.492  46.571  1.00  0.00     0.159 HD
HETATM   24  O   UNL     1      15.465  50.399  47.120  1.00  0.00    -0.268 OA
ENDBRANCH  17  20
ENDBRANCH  10  14
ENDBRANCH   7   8
ENDBRANCH   1   7
BRANCH   5  25
HETATM   25  C   UNL     1      26.826  44.277  52.369  1.00  0.00     0.256 C 
HETATM   26  O   UNL     1      26.691  43.061  52.451  1.00  0.00    -0.267 OA
HETATM   27  N   UNL     1      27.757  45.044  53.050  1.00  0.00    -0.323 N 
HETATM   28  H   UNL     1      27.747  46.043  52.903  1.00  0.00     0.169 HD
BRANCH  27  29
HETATM   29  C   UNL     1      28.706  44.588  53.994  1.00  0.00     0.035 A 
HETATM   30  C   UNL     1      29.468  43.431  53.838  1.00  0.00     0.030 A 
HETATM   31  C   UNL     1      30.372  43.032  54.828  1.00  0.00     0.010 A 
HETATM   32  C   UNL     1      30.541  43.797  55.985  1.00  0.00    -0.048 A 
HETATM   33  C   UNL     1      31.481  43.335  57.070  1.00  0.00     0.069 C 
HETATM   34  C   UNL     1      29.778  44.961  56.163  1.00  0.00    -0.022 A 
HETATM   35  C   UNL     1      31.836  44.461  58.047  1.00  0.00     0.274 C 
HETATM   36  N   UNL     1      30.632  45.160  58.504  1.00  0.00     0.087 N 
HETATM   37  C   UNL     1      29.980  45.839  57.377  1.00  0.00     0.308 C 
HETATM   38  H   UNL     1      30.889  45.856  59.201  1.00  0.00     0.316 HD
HETATM   39  C   UNL     1      28.870  45.349  55.161  1.00  0.00     0.039 A 
ENDBRANCH  27  29
ENDBRANCH   5  25
TORSDOF 6
ENDMDL
MODEL 8
REMARK VINA RESULT:      -9.4      3.021      4.933
REMARK  6 active torsions:
REMARK  status: ('A' for Active; 'I' for Inactive)
REMARK       I    between atoms: N_1  and  C_2 
REMARK    1  A    between atoms: C_2  and  C_4 
REMARK    2  A    between atoms: C_7  and  N_8 
REMARK       I    between atoms: N_8  and  C_9 
REMARK       I    between atoms: C_9  and  N_11 
REMARK    3  A    between atoms: N_11  and  C_12 
REMARK    4  A    between atoms: C_12  and  C_13 
REMARK    5  A    between atoms: C_17  and  C_19 
REMARK       I    between atoms: C_19  and  N_21 
REMARK    6  A    between atoms: N_21  and  C_22 
ROOT
HETATM    1  C   UNL     1      21.800  48.421  48.861  1.00  0.00    -0.040 A 
HETATM    2  C   UNL     1      21.219  47.234  48.395  1.00  0.00     0.009 A 
HETATM    3  C   UNL     1      19.892  47.219  47.969  1.00  0.00     0.002 A 
HETATM    4  C   UNL     1      19.142  48.395  47.989  1.00  0.00     0.017 A 
HETATM    5  C   UNL     1      19.709  49.600  48.429  1.00  0.00     0.032 A 
HETATM    6  C   UNL     1      21.038  49.603  48.875  1.00  0.00     0.026 A 
ENDROOT
BRANCH   1   7
HETATM    7  C   UNL     1      23.240  48.440  49.308  1.00  0.00     0.162 C 
BRANCH   7   8
HETATM    8  N   UNL     1      23.589  47.217  49.994  1.00  0.00    -0.339 N 
HETATM    9  C   UNL     1      24.853  47.023  50.509  1.00  0.00     0.320 C 
HETATM   10  N   UNL     1      24.937  45.805  51.150  1.00  0.00    -0.309 N 
HETATM   11  O   UNL     1      25.737  47.865  50.416  1.00  0.00    -0.247 OA
HETATM   12  H   UNL     1      24.073  45.289  51.219  1.00  0.00     0.170 HD
HETATM   13  H   UNL     1      23.074  46.393  49.725  1.00  0.00     0.164 HD
BRANCH  10  14
HETATM   14  C   UNL     1      26.040  45.266  51.842  1.00  0.00     0.036 A 
HETATM   15  C   UNL     1      26.276  45.456  53.205  1.00  0.00     0.030 A 
HETATM   16  C   UNL     1      27.381  44.863  53.828  1.00  0.00     0.019 A 
HETATM   17  C   UNL     1      28.265  44.068  53.091  1.00  0.00     0.032 A 
HETATM   18  C   UNL     1      28.049  43.900  51.719  1.00  0.00     0.019 A 
HETATM   19  C   UNL     1      26.943  44.493  51.101  1.00  0.00     0.030 A 
BRANCH  17  20
HETATM   20  C   UNL     1      29.442  43.402  53.707  1.00  0.00     0.249 C 
HETATM   21  N   UNL     1      30.243  42.650  52.894  1.00  0.00    -0.366 N 
HETATM   22  H   UNL     1      31.095  42.296  53.309  1.00  0.00     0.159 HD
HETATM   23  H   UNL     1      30.196  42.694  51.887  1.00  0.00     0.159 HD
HETATM   24  O   UNL     1      29.716  43.551  54.892  1.00  0.00    -0.268 OA
ENDBRANCH  17  20
ENDBRANCH  10  14
ENDBRANCH   7   8
ENDBRANCH   1   7
BRANCH   5  25
HETATM   25  C   UNL     1      18.841  50.820  48.415  1.00  0.00     0.256 C 
HETATM   26  O   UNL     1      19.376  51.898  48.653  1.00  0.00    -0.267 OA
HETATM   27  N   UNL     1      17.497  50.615  48.153  1.00  0.00    -0.323 N 
HETATM   28  H   UNL     1      17.185  49.669  47.989  1.00  0.00     0.169 HD
BRANCH  27  29
HETATM   29  C   UNL     1      16.474  51.592  48.142  1.00  0.00     0.035 A 
HETATM   30  C   UNL     1      15.934  52.143  46.980  1.00  0.00     0.030 A 
HETATM   31  C   UNL     1      14.940  53.124  47.051  1.00  0.00     0.010 A 
HETATM   32  C   UNL     1      14.455  53.556  48.288  1.00  0.00    -0.048 A 
HETATM   33  C   UNL     1      13.417  54.647  48.358  1.00  0.00     0.069 C 
HETATM   34  C   UNL     1      14.990  53.017  49.468  1.00  0.00    -0.022 A 
HETATM   35  C   UNL     1      12.729  54.706  49.726  1.00  0.00     0.274 C 
HETATM   36  N   UNL     1      13.714  54.695  50.811  1.00  0.00     0.087 N 
HETATM   37  C   UNL     1      14.446  53.422  50.819  1.00  0.00     0.308 C 
HETATM   38  H   UNL     1      13.236  54.803  51.704  1.00  0.00     0.316 HD
HETATM   39  C   UNL     1      15.993  52.034  49.383  1.00  0.00     0.039 A 
ENDBRANCH  27  29
ENDBRANCH   5  25
TORSDOF 6
ENDMDL
MODEL 9
REMARK VINA RESULT:      -9.1      3.530      6.108
REMARK  6 active torsions:
REMARK  status: ('A' for Active; 'I' for Inactive)
REMARK       I    between atoms: N_1  and  C_2 
REMARK    1  A    between atoms: C_2  and  C_4 
REMARK    2  A    between atoms: C_7  and  N_8 
REMARK       I    between atoms: N_8  and  C_9 
REMARK       I    between atoms: C_9  and  N_11 
REMARK    3  A    between atoms: N_11  and  C_12 
REMARK    4  A    between atoms: C_12  and  C_13 
REMARK    5  A    between atoms: C_17  and  C_19 
REMARK       I    between atoms: C_19  and  N_21 
REMARK    6  A    between atoms: N_21  and  C_22 
ROOT
HETATM    1  C   UNL     1      20.712  48.983  48.780  1.00  0.00    -0.040 A 
HETATM    2  C   UNL     1      20.023  47.763  48.748  1.00  0.00     0.009 A 
HETATM    3  C   UNL     1      18.644  47.728  48.948  1.00  0.00     0.002 A 
HETATM    4  C   UNL     1      17.943  48.914  49.165  1.00  0.00     0.017 A 
HETATM    5  C   UNL     1      18.608  50.149  49.179  1.00  0.00     0.032 A 
HETATM    6  C   UNL     1      19.997  50.175  48.996  1.00  0.00     0.026 A 
ENDROOT
BRANCH   1   7
HETATM    7  C   UNL     1      22.202  49.022  48.549  1.00  0.00     0.162 C 
BRANCH   7   8
HETATM    8  N   UNL     1      22.777  47.699  48.632  1.00  0.00    -0.339 N 
HETATM    9  C   UNL     1      23.779  47.411  49.534  1.00  0.00     0.320 C 
HETATM   10  N   UNL     1      24.139  46.083  49.456  1.00  0.00    -0.309 N 
HETATM   11  O   UNL     1      24.230  48.250  50.304  1.00  0.00    -0.247 OA
HETATM   12  H   UNL     1      23.582  45.517  48.834  1.00  0.00     0.170 HD
HETATM   13  H   UNL     1      22.752  47.149  47.787  1.00  0.00     0.164 HD
BRANCH  10  14
HETATM   14  C   UNL     1      25.086  45.396  50.242  1.00  0.00     0.036 A 
HETATM   15  C   UNL     1      26.389  45.112  49.825  1.00  0.00     0.030 A 
HETATM   16  C   UNL     1      27.283  44.449  50.676  1.00  0.00     0.019 A 
HETATM   17  C   UNL     1      26.881  44.065  51.960  1.00  0.00     0.032 A 
HETATM   18  C   UNL     1      25.568  44.320  52.369  1.00  0.00     0.019 A 
HETATM   19  C   UNL     1      24.680  44.984  51.517  1.00  0.00     0.030 A 
BRANCH  17  20
HETATM   20  C   UNL     1      27.795  43.374  52.908  1.00  0.00     0.249 C 
HETATM   21  N   UNL     1      27.417  42.146  53.373  1.00  0.00    -0.366 N 
HETATM   22  H   UNL     1      28.100  41.649  53.929  1.00  0.00     0.159 HD
HETATM   23  H   UNL     1      26.671  41.608  52.955  1.00  0.00     0.159 HD
HETATM   24  O   UNL     1      28.870  43.863  53.232  1.00  0.00    -0.268 OA
ENDBRANCH  17  20
ENDBRANCH  10  14
ENDBRANCH   7   8
ENDBRANCH   1   7
BRANCH   5  25
HETATM   25  C   UNL     1      17.784  51.377  49.412  1.00  0.00     0.256 C 
HETATM   26  O   UNL     1      18.337  52.339  49.934  1.00  0.00    -0.267 OA
HETATM   27  N   UNL     1      16.454  51.307  49.033  1.00  0.00    -0.323 N 
HETATM   28  H   UNL     1      16.122  50.443  48.627  1.00  0.00     0.169 HD
BRANCH  27  29
HETATM   29  C   UNL     1      15.467  52.306  49.201  1.00  0.00     0.035 A 
HETATM   30  C   UNL     1      14.810  52.557  50.405  1.00  0.00     0.030 A 
HETATM   31  C   UNL     1      13.827  53.549  50.488  1.00  0.00     0.010 A 
HETATM   32  C   UNL     1      13.499  54.320  49.370  1.00  0.00    -0.048 A 
HETATM   33  C   UNL     1      12.406  55.354  49.454  1.00  0.00     0.069 C 
HETATM   34  C   UNL     1      14.146  54.077  48.148  1.00  0.00    -0.022 A 
HETATM   35  C   UNL     1      12.458  56.349  48.290  1.00  0.00     0.274 C 
HETATM   36  N   UNL     1      12.577  55.653  47.006  1.00  0.00     0.087 N 
HETATM   37  C   UNL     1      13.854  54.932  46.935  1.00  0.00     0.308 C 
HETATM   38  H   UNL     1      12.542  56.331  46.248  1.00  0.00     0.316 HD
HETATM   39  C   UNL     1      15.130  53.074  48.077  1.00  0.00     0.039 A 
ENDBRANCH  27  29
ENDBRANCH   5  25
TORSDOF 6
ENDMDL
MODEL 10
REMARK VINA RESULT:      -9.1      4.492     12.233
REMARK  6 active torsions:
REMARK  status: ('A' for Active; 'I' for Inactive)
REMARK       I    between atoms: N_1  and  C_2 
REMARK    1  A    between atoms: C_2  and  C_4 
REMARK    2  A    between atoms: C_7  and  N_8 
REMARK       I    between atoms: N_8  and  C_9 
REMARK       I    between atoms: C_9  and  N_11 
REMARK    3  A    between atoms: N_11  and  C_12 
REMARK    4  A    between atoms: C_12  and  C_13 
REMARK    5  A    between atoms: C_17  and  C_19 
REMARK       I    between atoms: C_19  and  N_21 
REMARK    6  A    between atoms: N_21  and  C_22 
ROOT
HETATM    1  C   UNL     1      25.991  46.638  51.216  1.00  0.00    -0.040 A 
HETATM    2  C   UNL     1      25.993  47.049  52.555  1.00  0.00     0.009 A 
HETATM    3  C   UNL     1      26.410  46.178  53.559  1.00  0.00     0.002 A 
HETATM    4  C   UNL     1      26.846  44.894  53.229  1.00  0.00     0.017 A 
HETATM    5  C   UNL     1      26.874  44.468  51.893  1.00  0.00     0.032 A 
HETATM    6  C   UNL     1      26.434  45.343  50.891  1.00  0.00     0.026 A 
ENDROOT
BRANCH   1   7
HETATM    7  C   UNL     1      25.553  47.586  50.128  1.00  0.00     0.162 C 
BRANCH   7   8
HETATM    8  N   UNL     1      24.111  47.648  50.040  1.00  0.00    -0.339 N 
HETATM    9  C   UNL     1      23.474  48.768  49.550  1.00  0.00     0.320 C 
HETATM   10  N   UNL     1      22.109  48.580  49.525  1.00  0.00    -0.309 N 
HETATM   11  O   UNL     1      24.085  49.757  49.167  1.00  0.00    -0.247 OA
HETATM   12  H   UNL     1      21.791  47.657  49.780  1.00  0.00     0.170 HD
HETATM   13  H   UNL     1      23.600  47.084  50.701  1.00  0.00     0.164 HD
BRANCH  10  14
HETATM   14  C   UNL     1      21.122  49.468  49.050  1.00  0.00     0.036 A 
HETATM   15  C   UNL     1      20.997  50.794  49.470  1.00  0.00     0.030 A 
HETATM   16  C   UNL     1      20.006  51.624  48.930  1.00  0.00     0.019 A 
HETATM   17  C   UNL     1      19.129  51.133  47.957  1.00  0.00     0.032 A 
HETATM   18  C   UNL     1      19.231  49.798  47.556  1.00  0.00     0.019 A 
HETATM   19  C   UNL     1      20.223  48.973  48.098  1.00  0.00     0.030 A 
BRANCH  17  20
HETATM   20  C   UNL     1      18.072  51.978  47.339  1.00  0.00     0.249 C 
HETATM   21  N   UNL     1      17.292  52.728  48.174  1.00  0.00    -0.366 N 
HETATM   22  H   UNL     1      16.653  53.374  47.728  1.00  0.00     0.159 HD
HETATM   23  H   UNL     1      17.527  52.894  49.142  1.00  0.00     0.159 HD
HETATM   24  O   UNL     1      17.927  52.036  46.125  1.00  0.00    -0.268 OA
ENDBRANCH  17  20
ENDBRANCH  10  14
ENDBRANCH   7   8
ENDBRANCH   1   7
BRANCH   5  25
HETATM   25  C   UNL     1      27.360  43.078  51.620  1.00  0.00     0.256 C 
HETATM   26  O   UNL     1      27.865  42.462  52.552  1.00  0.00    -0.267 OA
HETATM   27  N   UNL     1      27.212  42.619  50.321  1.00  0.00    -0.323 N 
HETATM   28  H   UNL     1      26.792  43.240  49.645  1.00  0.00     0.169 HD
BRANCH  27  29
HETATM   29  C   UNL     1      27.641  41.374  49.805  1.00  0.00     0.035 A 
HETATM   30  C   UNL     1      28.276  40.392  50.565  1.00  0.00     0.030 A 
HETATM   31  C   UNL     1      28.692  39.193  49.978  1.00  0.00     0.010 A 
HETATM   32  C   UNL     1      28.462  38.950  48.621  1.00  0.00    -0.048 A 
HETATM   33  C   UNL     1      28.957  37.676  47.984  1.00  0.00     0.069 C 
HETATM   34  C   UNL     1      27.830  39.929  47.839  1.00  0.00    -0.022 A 
HETATM   35  C   UNL     1      28.284  37.404  46.634  1.00  0.00     0.274 C 
HETATM   36  N   UNL     1      28.313  38.595  45.781  1.00  0.00     0.087 N 
HETATM   37  C   UNL     1      27.516  39.671  46.383  1.00  0.00     0.308 C 
HETATM   38  H   UNL     1      27.922  38.368  44.869  1.00  0.00     0.316 HD
HETATM   39  C   UNL     1      27.419  41.132  48.442  1.00  0.00     0.039 A 
ENDBRANCH  27  29
ENDBRANCH   5  25
TORSDOF 6
ENDMDL
