MODEL 1
REMARK VINA RESULT:      -9.0      0.000      0.000
REMARK  3 active torsions:
REMARK  status: ('A' for Active; 'I' for Inactive)
REMARK    1  A    between atoms: C_2  and  N_3 
REMARK    2  A    between atoms: C_2  and  C_10 
REMARK    3  A    between atoms: C_13  and  C_14 
ROOT
HETATM    1  C   UNL     1      26.775  44.959  52.172  1.00  0.00    -0.028 A 
HETATM    2  C   UNL     1      27.091  44.885  50.805  1.00  0.00     0.010 A 
HETATM    3  C   UNL     1      26.775  45.938  49.939  1.00  0.00     0.014 A 
HETATM    4  C   UNL     1      26.132  47.100  50.396  1.00  0.00    -0.006 A 
HETATM    5  C   UNL     1      25.783  47.148  51.754  1.00  0.00     0.014 A 
HETATM    6  C   UNL     1      26.104  46.102  52.629  1.00  0.00     0.010 A 
ENDROOT
BRANCH   4   7
HETATM    7  C   UNL     1      25.830  48.196  49.469  1.00  0.00     0.082 A 
HETATM    8  N   UNL     1      26.879  48.926  49.003  1.00  0.00    -0.240 NA
HETATM    9  C   UNL     1      26.623  49.939  48.150  1.00  0.00     0.236 A 
HETATM   10  N   UNL     1      25.432  50.344  47.684  1.00  0.00    -0.224 NA
HETATM   11  C   UNL     1      24.429  49.611  48.186  1.00  0.00     0.141 A 
HETATM   12  C   UNL     1      24.529  48.544  49.068  1.00  0.00     0.041 A 
HETATM   13  N   UNL     1      23.107  49.811  47.898  1.00  0.00    -0.350 N 
HETATM   14  C   UNL     1      23.193  48.117  49.331  1.00  0.00     0.034 A 
HETATM   15  C   UNL     1      22.341  48.909  48.590  1.00  0.00     0.091 A 
HETATM   16  H   UNL     1      22.770  50.534  47.275  1.00  0.00     0.166 HD
ENDBRANCH   4   7
BRANCH   1  17
HETATM   17  C   UNL     1      27.148  43.804  53.084  1.00  0.00     0.217 C 
HETATM   18  C   UNL     1      27.167  42.431  52.402  1.00  0.00     0.045 C 
BRANCH  17  19
HETATM   19  N   UNL     1      28.446  44.074  53.849  1.00  0.00    -0.063 N 
HETATM   20  H   UNL     1      29.023  44.595  53.174  1.00  0.00     0.280 HD
HETATM   21  C   UNL     1      28.248  44.988  55.037  1.00  0.00     0.235 C 
HETATM   22  C   UNL     1      29.601  45.412  55.592  1.00  0.00     0.028 C 
HETATM   23  C   UNL     1      30.461  44.207  55.951  1.00  0.00     0.003 C 
HETATM   24  C   UNL     1      30.607  43.266  54.761  1.00  0.00     0.028 C 
HETATM   25  C   UNL     1      29.252  42.845  54.206  1.00  0.00     0.235 C 
ENDBRANCH  17  19
ENDBRANCH   1  17
TORSDOF 3
ENDMDL
MODEL 2
REMARK VINA RESULT:      -8.8      1.057      2.044
REMARK  3 active torsions:
REMARK  status: ('A' for Active; 'I' for Inactive)
REMARK    1  A    between atoms: C_2  and  N_3 
REMARK    2  A    between atoms: C_2  and  C_10 
REMARK    3  A    between atoms: C_13  and  C_14 
ROOT
HETATM    1  C   UNL     1      26.853  44.452  52.716  1.00  0.00    -0.028 A 
HETATM    2  C   UNL     1      27.155  44.436  51.344  1.00  0.00     0.010 A 
HETATM    3  C   UNL     1      26.591  45.377  50.475  1.00  0.00     0.014 A 
HETATM    4  C   UNL     1      25.705  46.365  50.934  1.00  0.00    -0.006 A 
HETATM    5  C   UNL     1      25.378  46.348  52.298  1.00  0.00     0.014 A 
HETATM    6  C   UNL     1      25.944  45.415  53.175  1.00  0.00     0.010 A 
ENDROOT
BRANCH   4   7
HETATM    7  C   UNL     1      25.145  47.351  50.003  1.00  0.00     0.082 A 
HETATM    8  N   UNL     1      23.832  47.220  49.670  1.00  0.00    -0.240 NA
HETATM    9  C   UNL     1      23.298  48.116  48.816  1.00  0.00     0.236 A 
HETATM   10  N   UNL     1      23.907  49.154  48.222  1.00  0.00    -0.224 NA
HETATM   11  C   UNL     1      25.200  49.230  48.563  1.00  0.00     0.141 A 
HETATM   12  C   UNL     1      25.893  48.389  49.423  1.00  0.00     0.041 A 
HETATM   13  N   UNL     1      26.068  50.179  48.094  1.00  0.00    -0.350 N 
HETATM   14  C   UNL     1      27.241  48.855  49.436  1.00  0.00     0.034 A 
HETATM   15  C   UNL     1      27.315  49.962  48.617  1.00  0.00     0.091 A 
HETATM   16  H   UNL     1      25.804  50.911  47.449  1.00  0.00     0.166 HD
ENDBRANCH   4   7
BRANCH   1  17
HETATM   17  C   UNL     1      27.497  43.425  53.630  1.00  0.00     0.217 C 
HETATM   18  C   UNL     1      27.795  42.076  52.967  1.00  0.00     0.045 C 
BRANCH  17  19
HETATM   19  N   UNL     1      28.727  43.987  54.347  1.00  0.00    -0.063 N 
HETATM   20  H   UNL     1      29.244  44.473  53.600  1.00  0.00     0.280 HD
HETATM   21  C   UNL     1      28.377  45.039  55.376  1.00  0.00     0.235 C 
HETATM   22  C   UNL     1      29.646  45.727  55.862  1.00  0.00     0.028 C 
HETATM   23  C   UNL     1      30.653  44.723  56.408  1.00  0.00     0.003 C 
HETATM   24  C   UNL     1      30.955  43.639  55.381  1.00  0.00     0.028 C 
HETATM   25  C   UNL     1      29.683  42.952  54.895  1.00  0.00     0.235 C 
ENDBRANCH  17  19
ENDBRANCH   1  17
TORSDOF 3
ENDMDL
MODEL 3
REMARK VINA RESULT:      -7.9      2.054      8.072
REMARK  3 active torsions:
REMARK  status: ('A' for Active; 'I' for Inactive)
REMARK    1  A    between atoms: C_2  and  N_3 
REMARK    2  A    between atoms: C_2  and  C_10 
REMARK    3  A    between atoms: C_13  and  C_14 
ROOT
HETATM    1  C   UNL     1      23.966  46.714  49.709  1.00  0.00    -0.028 A 
HETATM    2  C   UNL     1      24.930  47.598  50.221  1.00  0.00     0.010 A 
HETATM    3  C   UNL     1      25.830  47.182  51.209  1.00  0.00     0.014 A 
HETATM    4  C   UNL     1      25.805  45.877  51.726  1.00  0.00    -0.006 A 
HETATM    5  C   UNL     1      24.813  45.013  51.238  1.00  0.00     0.014 A 
HETATM    6  C   UNL     1      23.914  45.420  50.243  1.00  0.00     0.010 A 
ENDROOT
BRANCH   4   7
HETATM    7  C   UNL     1      26.773  45.463  52.747  1.00  0.00     0.082 A 
HETATM    8  N   UNL     1      27.439  44.295  52.539  1.00  0.00    -0.240 NA
HETATM    9  C   UNL     1      28.333  43.896  53.466  1.00  0.00     0.236 A 
HETATM   10  N   UNL     1      28.666  44.513  54.611  1.00  0.00    -0.224 NA
HETATM   11  C   UNL     1      27.971  45.646  54.782  1.00  0.00     0.141 A 
HETATM   12  C   UNL     1      27.022  46.186  53.926  1.00  0.00     0.041 A 
HETATM   13  N   UNL     1      28.093  46.469  55.868  1.00  0.00    -0.350 N 
HETATM   14  C   UNL     1      26.544  47.373  54.558  1.00  0.00     0.034 A 
HETATM   15  C   UNL     1      27.228  47.525  55.745  1.00  0.00     0.091 A 
HETATM   16  H   UNL     1      28.724  46.294  56.638  1.00  0.00     0.166 HD
ENDBRANCH   4   7
BRANCH   1  17
HETATM   17  C   UNL     1      23.017  47.196  48.626  1.00  0.00     0.217 C 
HETATM   18  C   UNL     1      21.866  46.234  48.311  1.00  0.00     0.045 C 
BRANCH  17  19
HETATM   19  N   UNL     1      22.510  48.615  48.898  1.00  0.00    -0.063 N 
HETATM   20  H   UNL     1      22.938  48.858  49.803  1.00  0.00     0.280 HD
HETATM   21  C   UNL     1      23.027  49.624  47.898  1.00  0.00     0.235 C 
HETATM   22  C   UNL     1      22.696  51.034  48.370  1.00  0.00     0.028 C 
HETATM   23  C   UNL     1      21.202  51.205  48.617  1.00  0.00     0.003 C 
HETATM   24  C   UNL     1      20.684  50.147  49.584  1.00  0.00     0.028 C 
HETATM   25  C   UNL     1      21.018  48.738  49.110  1.00  0.00     0.235 C 
ENDBRANCH  17  19
ENDBRANCH   1  17
TORSDOF 3
ENDMDL
MODEL 4
REMARK VINA RESULT:      -7.9      3.841      9.733
REMARK  3 active torsions:
REMARK  status: ('A' for Active; 'I' for Inactive)
REMARK    1  A    between atoms: C_2  and  N_3 
REMARK    2  A    between atoms: C_2  and  C_10 
REMARK    3  A    between atoms: C_13  and  C_14 
ROOT
HETATM    1  C   UNL     1      20.302  50.907  48.762  1.00  0.00    -0.028 A 
HETATM    2  C   UNL     1      21.062  50.895  49.943  1.00  0.00     0.010 A 
HETATM    3  C   UNL     1      22.388  50.448  49.937  1.00  0.00     0.014 A 
HETATM    4  C   UNL     1      23.007  49.993  48.762  1.00  0.00    -0.006 A 
HETATM    5  C   UNL     1      22.228  49.971  47.595  1.00  0.00     0.014 A 
HETATM    6  C   UNL     1      20.902  50.424  47.591  1.00  0.00     0.010 A 
ENDROOT
BRANCH   4   7
HETATM    7  C   UNL     1      24.405  49.549  48.781  1.00  0.00     0.082 A 
HETATM    8  N   UNL     1      25.313  50.313  48.116  1.00  0.00    -0.240 NA
HETATM    9  C   UNL     1      26.602  49.921  48.122  1.00  0.00     0.236 A 
HETATM   10  N   UNL     1      27.133  48.838  48.710  1.00  0.00    -0.224 NA
HETATM   11  C   UNL     1      26.201  48.106  49.333  1.00  0.00     0.141 A 
HETATM   12  C   UNL     1      24.841  48.374  49.417  1.00  0.00     0.041 A 
HETATM   13  N   UNL     1      26.454  46.940  50.002  1.00  0.00    -0.350 N 
HETATM   14  C   UNL     1      24.266  47.293  50.149  1.00  0.00     0.034 A 
HETATM   15  C   UNL     1      25.284  46.433  50.504  1.00  0.00     0.091 A 
HETATM   16  H   UNL     1      27.373  46.529  50.087  1.00  0.00     0.166 HD
ENDBRANCH   4   7
BRANCH   1  17
HETATM   17  C   UNL     1      18.871  51.414  48.804  1.00  0.00     0.217 C 
HETATM   18  C   UNL     1      18.652  52.763  48.111  1.00  0.00     0.045 C 
BRANCH  17  19
HETATM   19  N   UNL     1      17.875  50.359  48.318  1.00  0.00    -0.063 N 
HETATM   20  H   UNL     1      18.228  50.101  47.385  1.00  0.00     0.280 HD
HETATM   21  C   UNL     1      17.905  49.096  49.150  1.00  0.00     0.235 C 
HETATM   22  C   UNL     1      17.085  48.010  48.467  1.00  0.00     0.028 C 
HETATM   23  C   UNL     1      15.657  48.471  48.201  1.00  0.00     0.003 C 
HETATM   24  C   UNL     1      15.642  49.773  47.410  1.00  0.00     0.028 C 
HETATM   25  C   UNL     1      16.465  50.858  48.094  1.00  0.00     0.235 C 
ENDBRANCH  17  19
ENDBRANCH   1  17
TORSDOF 3
ENDMDL
MODEL 5
REMARK VINA RESULT:      -7.9      4.735      7.940
REMARK  3 active torsions:
REMARK  status: ('A' for Active; 'I' for Inactive)
REMARK    1  A    between atoms: C_2  and  N_3 
REMARK    2  A    between atoms: C_2  and  C_10 
REMARK    3  A    between atoms: C_13  and  C_14 
ROOT
HETATM    1  C   UNL     1      27.034  42.062  51.183  1.00  0.00    -0.028 A 
HETATM    2  C   UNL     1      27.588  41.493  52.341  1.00  0.00     0.010 A 
HETATM    3  C   UNL     1      28.064  42.301  53.380  1.00  0.00     0.014 A 
HETATM    4  C   UNL     1      28.012  43.702  53.306  1.00  0.00    -0.006 A 
HETATM    5  C   UNL     1      27.494  44.263  52.129  1.00  0.00     0.014 A 
HETATM    6  C   UNL     1      27.007  43.461  51.089  1.00  0.00     0.010 A 
ENDROOT
BRANCH   4   7
HETATM    7  C   UNL     1      28.500  44.524  54.418  1.00  0.00     0.082 A 
HETATM    8  N   UNL     1      27.863  45.703  54.651  1.00  0.00    -0.240 NA
HETATM    9  C   UNL     1      28.297  46.473  55.669  1.00  0.00     0.236 A 
HETATM   10  N   UNL     1      29.313  46.231  56.512  1.00  0.00    -0.224 NA
HETATM   11  C   UNL     1      29.924  45.072  56.231  1.00  0.00     0.141 A 
HETATM   12  C   UNL     1      29.598  44.175  55.223  1.00  0.00     0.041 A 
HETATM   13  N   UNL     1      31.001  44.581  56.916  1.00  0.00    -0.350 N 
HETATM   14  C   UNL     1      30.553  43.118  55.306  1.00  0.00     0.034 A 
HETATM   15  C   UNL     1      31.397  43.391  56.363  1.00  0.00     0.091 A 
HETATM   16  H   UNL     1      31.431  45.053  57.700  1.00  0.00     0.166 HD
ENDBRANCH   4   7
BRANCH   1  17
HETATM   17  C   UNL     1      26.512  41.153  50.084  1.00  0.00     0.217 C 
HETATM   18  C   UNL     1      26.202  41.863  48.762  1.00  0.00     0.045 C 
BRANCH  17  19
HETATM   19  N   UNL     1      27.413  39.934  49.874  1.00  0.00    -0.063 N 
HETATM   20  H   UNL     1      27.818  39.766  50.806  1.00  0.00     0.280 HD
HETATM   21  C   UNL     1      26.637  38.687  49.515  1.00  0.00     0.235 C 
HETATM   22  C   UNL     1      27.557  37.474  49.569  1.00  0.00     0.028 C 
HETATM   23  C   UNL     1      28.774  37.654  48.671  1.00  0.00     0.003 C 
HETATM   24  C   UNL     1      29.515  38.942  49.008  1.00  0.00     0.028 C 
HETATM   25  C   UNL     1      28.593  40.154  48.954  1.00  0.00     0.235 C 
ENDBRANCH  17  19
ENDBRANCH   1  17
TORSDOF 3
ENDMDL
MODEL 6
REMARK VINA RESULT:      -7.8      5.337      7.668
REMARK  3 active torsions:
REMARK  status: ('A' for Active; 'I' for Inactive)
REMARK    1  A    between atoms: C_2  and  N_3 
REMARK    2  A    between atoms: C_2  and  C_10 
REMARK    3  A    between atoms: C_13  and  C_14 
ROOT
HETATM    1  C   UNL     1      28.340  43.801  53.448  1.00  0.00    -0.028 A 
HETATM    2  C   UNL     1      28.128  42.501  53.935  1.00  0.00     0.010 A 
HETATM    3  C   UNL     1      27.911  41.433  53.057  1.00  0.00     0.014 A 
HETATM    4  C   UNL     1      27.892  41.617  51.665  1.00  0.00    -0.006 A 
HETATM    5  C   UNL     1      28.063  42.926  51.189  1.00  0.00     0.014 A 
HETATM    6  C   UNL     1      28.290  43.998  52.062  1.00  0.00     0.010 A 
ENDROOT
BRANCH   4   7
HETATM    7  C   UNL     1      27.681  40.476  50.767  1.00  0.00     0.082 A 
HETATM    8  N   UNL     1      26.580  40.504  49.969  1.00  0.00    -0.240 NA
HETATM    9  C   UNL     1      26.368  39.465  49.137  1.00  0.00     0.236 A 
HETATM   10  N   UNL     1      27.119  38.363  48.986  1.00  0.00    -0.224 NA
HETATM   11  C   UNL     1      28.178  38.369  49.805  1.00  0.00     0.141 A 
HETATM   12  C   UNL     1      28.531  39.358  50.713  1.00  0.00     0.041 A 
HETATM   13  N   UNL     1      29.105  37.365  49.878  1.00  0.00    -0.350 N 
HETATM   14  C   UNL     1      29.709  38.895  51.370  1.00  0.00     0.034 A 
HETATM   15  C   UNL     1      30.044  37.671  50.828  1.00  0.00     0.091 A 
HETATM   16  H   UNL     1      29.071  36.528  49.313  1.00  0.00     0.166 HD
ENDBRANCH   4   7
BRANCH   1  17
HETATM   17  C   UNL     1      28.589  44.931  54.431  1.00  0.00     0.217 C 
HETATM   18  C   UNL     1      27.329  45.686  54.869  1.00  0.00     0.045 C 
BRANCH  17  19
HETATM   19  N   UNL     1      29.420  44.473  55.633  1.00  0.00    -0.063 N 
HETATM   20  H   UNL     1      28.805  43.802  56.113  1.00  0.00     0.280 HD
HETATM   21  C   UNL     1      30.659  43.705  55.230  1.00  0.00     0.235 C 
HETATM   22  C   UNL     1      31.294  43.070  56.460  1.00  0.00     0.028 C 
HETATM   23  C   UNL     1      31.603  44.110  57.530  1.00  0.00     0.003 C 
HETATM   24  C   UNL     1      30.358  44.914  57.886  1.00  0.00     0.028 C 
HETATM   25  C   UNL     1      29.724  45.547  56.653  1.00  0.00     0.235 C 
ENDBRANCH  17  19
ENDBRANCH   1  17
TORSDOF 3
ENDMDL
MODEL 7
REMARK VINA RESULT:      -7.8      5.324      6.689
REMARK  3 active torsions:
REMARK  status: ('A' for Active; 'I' for Inactive)
REMARK    1  A    between atoms: C_2  and  N_3 
REMARK    2  A    between atoms: C_2  and  C_10 
REMARK    3  A    between atoms: C_13  and  C_14 
ROOT
HETATM    1  C   UNL     1      28.578  44.297  53.862  1.00  0.00    -0.028 A 
HETATM    2  C   UNL     1      28.798  42.971  54.269  1.00  0.00     0.010 A 
HETATM    3  C   UNL     1      28.570  41.905  53.391  1.00  0.00     0.014 A 
HETATM    4  C   UNL     1      28.112  42.116  52.080  1.00  0.00    -0.006 A 
HETATM    5  C   UNL     1      27.856  43.441  51.696  1.00  0.00     0.014 A 
HETATM    6  C   UNL     1      28.090  44.513  52.566  1.00  0.00     0.010 A 
ENDROOT
BRANCH   4   7
HETATM    7  C   UNL     1      27.900  40.981  51.175  1.00  0.00     0.082 A 
HETATM    8  N   UNL     1      28.850  40.007  51.161  1.00  0.00    -0.240 NA
HETATM    9  C   UNL     1      28.674  38.956  50.336  1.00  0.00     0.236 A 
HETATM   10  N   UNL     1      27.656  38.732  49.491  1.00  0.00    -0.224 NA
HETATM   11  C   UNL     1      26.758  39.725  49.523  1.00  0.00     0.141 A 
HETATM   12  C   UNL     1      26.797  40.866  50.312  1.00  0.00     0.041 A 
HETATM   13  N   UNL     1      25.628  39.770  48.753  1.00  0.00    -0.350 N 
HETATM   14  C   UNL     1      25.644  41.631  49.965  1.00  0.00     0.034 A 
HETATM   15  C   UNL     1      24.939  40.926  49.011  1.00  0.00     0.091 A 
HETATM   16  H   UNL     1      25.370  39.050  48.091  1.00  0.00     0.166 HD
ENDBRANCH   4   7
BRANCH   1  17
HETATM   17  C   UNL     1      28.852  45.428  54.837  1.00  0.00     0.217 C 
HETATM   18  C   UNL     1      27.628  46.283  55.184  1.00  0.00     0.045 C 
BRANCH  17  19
HETATM   19  N   UNL     1      29.575  44.939  56.095  1.00  0.00    -0.063 N 
HETATM   20  H   UNL     1      29.002  44.144  56.412  1.00  0.00     0.280 HD
HETATM   21  C   UNL     1      30.950  44.383  55.801  1.00  0.00     0.235 C 
HETATM   22  C   UNL     1      31.502  43.692  57.041  1.00  0.00     0.028 C 
HETATM   23  C   UNL     1      31.520  44.628  58.243  1.00  0.00     0.003 C 
HETATM   24  C   UNL     1      30.140  45.223  58.493  1.00  0.00     0.028 C 
HETATM   25  C   UNL     1      29.590  45.913  57.251  1.00  0.00     0.235 C 
ENDBRANCH  17  19
ENDBRANCH   1  17
TORSDOF 3
ENDMDL
MODEL 8
REMARK VINA RESULT:      -7.8      1.793      2.629
REMARK  3 active torsions:
REMARK  status: ('A' for Active; 'I' for Inactive)
REMARK    1  A    between atoms: C_2  and  N_3 
REMARK    2  A    between atoms: C_2  and  C_10 
REMARK    3  A    between atoms: C_13  and  C_14 
ROOT
HETATM    1  C   UNL     1      27.033  43.671  52.577  1.00  0.00    -0.028 A 
HETATM    2  C   UNL     1      25.790  44.135  53.036  1.00  0.00     0.010 A 
HETATM    3  C   UNL     1      25.024  45.017  52.264  1.00  0.00     0.014 A 
HETATM    4  C   UNL     1      25.466  45.472  51.011  1.00  0.00    -0.006 A 
HETATM    5  C   UNL     1      26.727  45.036  50.579  1.00  0.00     0.014 A 
HETATM    6  C   UNL     1      27.495  44.147  51.342  1.00  0.00     0.010 A 
ENDROOT
BRANCH   4   7
HETATM    7  C   UNL     1      24.634  46.381  50.215  1.00  0.00     0.082 A 
HETATM    8  N   UNL     1      24.925  47.708  50.274  1.00  0.00    -0.240 NA
HETATM    9  C   UNL     1      24.172  48.559  49.549  1.00  0.00     0.236 A 
HETATM   10  N   UNL     1      23.132  48.267  48.753  1.00  0.00    -0.224 NA
HETATM   11  C   UNL     1      22.869  46.954  48.743  1.00  0.00     0.141 A 
HETATM   12  C   UNL     1      23.547  45.957  49.430  1.00  0.00     0.041 A 
HETATM   13  N   UNL     1      21.853  46.375  48.032  1.00  0.00    -0.350 N 
HETATM   14  C   UNL     1      22.876  44.736  49.128  1.00  0.00     0.034 A 
HETATM   15  C   UNL     1      21.845  45.023  48.258  1.00  0.00     0.091 A 
HETATM   16  H   UNL     1      21.211  46.892  47.447  1.00  0.00     0.166 HD
ENDBRANCH   4   7
BRANCH   1  17
HETATM   17  C   UNL     1      27.828  42.703  53.435  1.00  0.00     0.217 C 
HETATM   18  C   UNL     1      28.721  41.737  52.648  1.00  0.00     0.045 C 
BRANCH  17  19
HETATM   19  N   UNL     1      28.607  43.422  54.539  1.00  0.00    -0.063 N 
HETATM   20  H   UNL     1      28.175  43.077  55.408  1.00  0.00     0.280 HD
HETATM   21  C   UNL     1      30.061  43.011  54.594  1.00  0.00     0.235 C 
HETATM   22  C   UNL     1      30.706  43.565  55.857  1.00  0.00     0.028 C 
HETATM   23  C   UNL     1      30.549  45.078  55.949  1.00  0.00     0.003 C 
HETATM   24  C   UNL     1      29.084  45.482  55.837  1.00  0.00     0.028 C 
HETATM   25  C   UNL     1      28.440  44.925  54.573  1.00  0.00     0.235 C 
ENDBRANCH  17  19
ENDBRANCH   1  17
TORSDOF 3
ENDMDL
MODEL 9
REMARK VINA RESULT:      -7.7     10.733     12.843
REMARK  3 active torsions:
REMARK  status: ('A' for Active; 'I' for Inactive)
REMARK    1  A    between atoms: C_2  and  N_3 
REMARK    2  A    between atoms: C_2  and  C_10 
REMARK    3  A    between atoms: C_13  and  C_14 
ROOT
HETATM    1  C   UNL     1      34.338  51.325  42.484  1.00  0.00    -0.028 A 
HETATM    2  C   UNL     1      33.808  51.040  41.215  1.00  0.00     0.010 A 
HETATM    3  C   UNL     1      32.426  51.066  40.993  1.00  0.00     0.014 A 
HETATM    4  C   UNL     1      31.521  51.372  42.022  1.00  0.00    -0.006 A 
HETATM    5  C   UNL     1      32.057  51.616  43.296  1.00  0.00     0.014 A 
HETATM    6  C   UNL     1      33.439  51.600  43.523  1.00  0.00     0.010 A 
ENDROOT
BRANCH   4   7
HETATM    7  C   UNL     1      30.079  51.411  41.756  1.00  0.00     0.082 A 
HETATM    8  N   UNL     1      29.509  52.634  41.581  1.00  0.00    -0.240 NA
HETATM    9  C   UNL     1      28.185  52.691  41.336  1.00  0.00     0.236 A 
HETATM   10  N   UNL     1      27.318  51.671  41.244  1.00  0.00    -0.224 NA
HETATM   11  C   UNL     1      27.919  50.491  41.444  1.00  0.00     0.141 A 
HETATM   12  C   UNL     1      29.263  50.268  41.706  1.00  0.00     0.041 A 
HETATM   13  N   UNL     1      27.276  49.284  41.426  1.00  0.00    -0.350 N 
HETATM   14  C   UNL     1      29.408  48.859  41.877  1.00  0.00     0.034 A 
HETATM   15  C   UNL     1      28.171  48.280  41.689  1.00  0.00     0.091 A 
HETATM   16  H   UNL     1      26.285  49.177  41.255  1.00  0.00     0.166 HD
ENDBRANCH   4   7
BRANCH   1  17
HETATM   17  C   UNL     1      35.843  51.303  42.682  1.00  0.00     0.217 C 
HETATM   18  C   UNL     1      36.634  50.714  41.508  1.00  0.00     0.045 C 
BRANCH  17  19
HETATM   19  N   UNL     1      36.387  52.672  43.100  1.00  0.00    -0.063 N 
HETATM   20  H   UNL     1      35.545  53.264  43.149  1.00  0.00     0.280 HD
HETATM   21  C   UNL     1      36.985  52.666  44.489  1.00  0.00     0.235 C 
HETATM   22  C   UNL     1      37.271  54.095  44.932  1.00  0.00     0.028 C 
HETATM   23  C   UNL     1      38.169  54.820  43.939  1.00  0.00     0.003 C 
HETATM   24  C   UNL     1      37.581  54.771  42.534  1.00  0.00     0.028 C 
HETATM   25  C   UNL     1      37.295  53.341  42.093  1.00  0.00     0.235 C 
ENDBRANCH  17  19
ENDBRANCH   1  17
TORSDOF 3
ENDMDL
MODEL 10
REMARK VINA RESULT:      -7.7      4.495      7.801
REMARK  3 active torsions:
REMARK  status: ('A' for Active; 'I' for Inactive)
REMARK    1  A    between atoms: C_2  and  N_3 
REMARK    2  A    between atoms: C_2  and  C_10 
REMARK    3  A    between atoms: C_13  and  C_14 
ROOT
HETATM    1  C   UNL     1      28.287  43.262  53.596  1.00  0.00    -0.028 A 
HETATM    2  C   UNL     1      28.062  41.898  53.844  1.00  0.00     0.010 A 
HETATM    3  C   UNL     1      27.894  40.996  52.786  1.00  0.00     0.014 A 
HETATM    4  C   UNL     1      27.939  41.415  51.447  1.00  0.00    -0.006 A 
HETATM    5  C   UNL     1      28.124  42.786  51.210  1.00  0.00     0.014 A 
HETATM    6  C   UNL     1      28.301  43.693  52.263  1.00  0.00     0.010 A 
ENDROOT
BRANCH   4   7
HETATM    7  C   UNL     1      27.780  40.445  50.358  1.00  0.00     0.082 A 
HETATM    8  N   UNL     1      26.791  40.677  49.454  1.00  0.00    -0.240 NA
HETATM    9  C   UNL     1      26.628  39.797  48.446  1.00  0.00     0.236 A 
HETATM   10  N   UNL     1      27.329  38.678  48.206  1.00  0.00    -0.224 NA
HETATM   11  C   UNL     1      28.275  38.479  49.133  1.00  0.00     0.141 A 
HETATM   12  C   UNL     1      28.566  39.287  50.223  1.00  0.00     0.041 A 
HETATM   13  N   UNL     1      29.128  37.409  49.149  1.00  0.00    -0.350 N 
HETATM   14  C   UNL     1      29.624  38.641  50.928  1.00  0.00     0.034 A 
HETATM   15  C   UNL     1      29.955  37.494  50.238  1.00  0.00     0.091 A 
HETATM   16  H   UNL     1      29.118  36.673  48.456  1.00  0.00     0.166 HD
ENDBRANCH   4   7
BRANCH   1  17
HETATM   17  C   UNL     1      28.480  44.207  54.769  1.00  0.00     0.217 C 
HETATM   18  C   UNL     1      29.929  44.333  55.255  1.00  0.00     0.045 C 
BRANCH  17  19
HETATM   19  N   UNL     1      27.849  45.578  54.510  1.00  0.00    -0.063 N 
HETATM   20  H   UNL     1      28.198  45.835  53.576  1.00  0.00     0.280 HD
HETATM   21  C   UNL     1      26.342  45.518  54.400  1.00  0.00     0.235 C 
HETATM   22  C   UNL     1      25.809  46.852  53.897  1.00  0.00     0.028 C 
HETATM   23  C   UNL     1      26.260  48.006  54.784  1.00  0.00     0.003 C 
HETATM   24  C   UNL     1      27.776  48.021  54.930  1.00  0.00     0.028 C 
HETATM   25  C   UNL     1      28.308  46.684  55.433  1.00  0.00     0.235 C 
ENDBRANCH  17  19
ENDBRANCH   1  17
TORSDOF 3
ENDMDL
