MODEL 1
REMARK VINA RESULT:      -8.9      0.000      0.000
REMARK  1 active torsions:
REMARK  status: ('A' for Active; 'I' for Inactive)
REMARK    1  A    between atoms: C_10  and  N_11 
ROOT
HETATM    1  C   UNL     1      17.074  52.653  49.960  1.00  0.00     0.015 C 
HETATM    2  C   UNL     1      17.813  51.715  48.987  1.00  0.00    -0.036 C 
HETATM    3  C   UNL     1      18.812  52.564  48.175  1.00  0.00     0.015 C 
HETATM    4  C   UNL     1      16.781  51.051  48.053  1.00  0.00     0.093 C 
HETATM    5  C   UNL     1      17.357  49.928  47.215  1.00  0.00     0.163 C 
HETATM    6  O   UNL     1      16.837  49.571  46.162  1.00  0.00    -0.292 OA
HETATM    7  C   UNL     1      18.537  49.217  47.727  1.00  0.00     0.053 A 
HETATM    8  C   UNL     1      19.117  49.538  48.934  1.00  0.00     0.069 A 
HETATM    9  N   UNL     1      20.204  48.885  49.412  1.00  0.00    -0.066 NA
HETATM   10  C   UNL     1      20.749  47.919  48.646  1.00  0.00     0.728 A 
HETATM   11  N   UNL     1      20.239  47.558  47.460  1.00  0.00    -0.074 NA
HETATM   12  C   UNL     1      19.141  48.208  47.021  1.00  0.00     0.153 A 
HETATM   13  C   UNL     1      18.545  50.627  49.800  1.00  0.00     0.070 C 
ENDROOT
BRANCH  10  14
HETATM   14  N   UNL     1      21.869  47.309  49.191  1.00  0.00    -0.164 N 
HETATM   15  C   UNL     1      23.145  47.727  49.140  1.00  0.00     0.187 A 
HETATM   16  S   UNL     1      24.349  46.792  49.958  1.00  0.00    -0.049 SA
HETATM   17  N   UNL     1      23.610  48.806  48.554  1.00  0.00    -0.223 NA
HETATM   18  C   UNL     1      25.562  47.918  49.501  1.00  0.00     0.037 A 
HETATM   19  C   UNL     1      24.971  48.935  48.753  1.00  0.00     0.076 A 
HETATM   20  C   UNL     1      26.938  47.909  49.786  1.00  0.00     0.021 A 
HETATM   21  C   UNL     1      25.781  49.987  48.276  1.00  0.00     0.033 A 
HETATM   22  C   UNL     1      27.151  49.993  48.559  1.00  0.00     0.002 A 
HETATM   23  C   UNL     1      27.721  48.964  49.304  1.00  0.00     0.002 A 
HETATM   24  H   UNL     1      21.602  46.564  49.815  1.00  0.00     0.186 HD
ENDBRANCH  10  14
TORSDOF 1
ENDMDL
MODEL 2
REMARK VINA RESULT:      -8.3      4.515      6.335
REMARK  1 active torsions:
REMARK  status: ('A' for Active; 'I' for Inactive)
REMARK    1  A    between atoms: C_10  and  N_11 
ROOT
HETATM    1  C   UNL     1      20.690  49.996  48.345  1.00  0.00     0.015 C 
HETATM    2  C   UNL     1      22.155  49.917  48.814  1.00  0.00    -0.036 C 
HETATM    3  C   UNL     1      22.315  50.853  50.030  1.00  0.00     0.015 C 
HETATM    4  C   UNL     1      23.074  50.365  47.660  1.00  0.00     0.093 C 
HETATM    5  C   UNL     1      24.543  50.101  47.918  1.00  0.00     0.163 C 
HETATM    6  O   UNL     1      25.426  50.730  47.343  1.00  0.00    -0.292 OA
HETATM    7  C   UNL     1      24.900  49.013  48.840  1.00  0.00     0.053 A 
HETATM    8  C   UNL     1      23.945  48.237  49.458  1.00  0.00     0.069 A 
HETATM    9  N   UNL     1      24.267  47.232  50.307  1.00  0.00    -0.066 NA
HETATM   10  C   UNL     1      25.572  47.026  50.578  1.00  0.00     0.728 A 
HETATM   11  N   UNL     1      26.553  47.746  50.015  1.00  0.00    -0.074 NA
HETATM   12  C   UNL     1      26.203  48.724  49.153  1.00  0.00     0.153 A 
HETATM   13  C   UNL     1      22.481  48.457  49.193  1.00  0.00     0.070 C 
ENDROOT
BRANCH  10  14
HETATM   14  N   UNL     1      25.825  45.994  51.469  1.00  0.00    -0.164 N 
HETATM   15  C   UNL     1      26.208  44.736  51.191  1.00  0.00     0.187 A 
HETATM   16  S   UNL     1      26.507  43.658  52.510  1.00  0.00    -0.049 SA
HETATM   17  N   UNL     1      26.420  44.209  50.007  1.00  0.00    -0.223 NA
HETATM   18  C   UNL     1      26.958  42.413  51.415  1.00  0.00     0.037 A 
HETATM   19  C   UNL     1      26.851  42.900  50.114  1.00  0.00     0.076 A 
HETATM   20  C   UNL     1      27.382  41.101  51.685  1.00  0.00     0.021 A 
HETATM   21  C   UNL     1      27.185  42.050  49.040  1.00  0.00     0.033 A 
HETATM   22  C   UNL     1      27.615  40.744  49.295  1.00  0.00     0.002 A 
HETATM   23  C   UNL     1      27.710  40.276  50.603  1.00  0.00     0.002 A 
HETATM   24  H   UNL     1      25.863  46.341  52.415  1.00  0.00     0.186 HD
ENDBRANCH  10  14
TORSDOF 1
ENDMDL
MODEL 3
REMARK VINA RESULT:      -8.3      2.929      4.110
REMARK  1 active torsions:
REMARK  status: ('A' for Active; 'I' for Inactive)
REMARK    1  A    between atoms: C_10  and  N_11 
ROOT
HETATM    1  C   UNL     1      17.305  48.459  48.745  1.00  0.00     0.015 C 
HETATM    2  C   UNL     1      18.691  48.963  49.186  1.00  0.00    -0.036 C 
HETATM    3  C   UNL     1      18.671  49.124  50.721  1.00  0.00     0.015 C 
HETATM    4  C   UNL     1      18.972  50.317  48.503  1.00  0.00     0.093 C 
HETATM    5  C   UNL     1      20.399  50.795  48.670  1.00  0.00     0.163 C 
HETATM    6  O   UNL     1      20.703  51.980  48.570  1.00  0.00    -0.292 OA
HETATM    7  C   UNL     1      21.445  49.788  48.893  1.00  0.00     0.053 A 
HETATM    8  C   UNL     1      21.164  48.441  48.947  1.00  0.00     0.069 A 
HETATM    9  N   UNL     1      22.123  47.507  49.152  1.00  0.00    -0.066 NA
HETATM   10  C   UNL     1      23.388  47.932  49.349  1.00  0.00     0.728 A 
HETATM   11  N   UNL     1      23.732  49.227  49.314  1.00  0.00    -0.074 NA
HETATM   12  C   UNL     1      22.759  50.133  49.083  1.00  0.00     0.153 A 
HETATM   13  C   UNL     1      19.759  47.938  48.753  1.00  0.00     0.070 C 
ENDROOT
BRANCH  10  14
HETATM   14  N   UNL     1      24.312  46.922  49.571  1.00  0.00    -0.164 N 
HETATM   15  C   UNL     1      25.032  46.690  50.683  1.00  0.00     0.187 A 
HETATM   16  S   UNL     1      26.083  45.316  50.707  1.00  0.00    -0.049 SA
HETATM   17  N   UNL     1      25.020  47.377  51.801  1.00  0.00    -0.223 NA
HETATM   18  C   UNL     1      26.537  45.668  52.326  1.00  0.00     0.037 A 
HETATM   19  C   UNL     1      25.858  46.812  52.743  1.00  0.00     0.076 A 
HETATM   20  C   UNL     1      27.424  44.982  53.172  1.00  0.00     0.021 A 
HETATM   21  C   UNL     1      26.066  47.286  54.055  1.00  0.00     0.033 A 
HETATM   22  C   UNL     1      26.942  46.607  54.908  1.00  0.00     0.002 A 
HETATM   23  C   UNL     1      27.614  45.470  54.469  1.00  0.00     0.002 A 
HETATM   24  H   UNL     1      24.269  46.232  48.839  1.00  0.00     0.186 HD
ENDBRANCH  10  14
TORSDOF 1
ENDMDL
MODEL 4
REMARK VINA RESULT:      -8.3      7.900     10.118
REMARK  1 active torsions:
REMARK  status: ('A' for Active; 'I' for Inactive)
REMARK    1  A    between atoms: C_10  and  N_11 
ROOT
HETATM    1  C   UNL     1      27.778  39.985  47.881  1.00  0.00     0.015 C 
HETATM    2  C   UNL     1      26.707  40.532  48.842  1.00  0.00    -0.036 C 
HETATM    3  C   UNL     1      26.556  39.530  50.005  1.00  0.00     0.015 C 
HETATM    4  C   UNL     1      25.377  40.679  48.076  1.00  0.00     0.093 C 
HETATM    5  C   UNL     1      24.313  41.433  48.848  1.00  0.00     0.163 C 
HETATM    6  O   UNL     1      23.118  41.300  48.604  1.00  0.00    -0.292 OA
HETATM    7  C   UNL     1      24.750  42.393  49.871  1.00  0.00     0.053 A 
HETATM    8  C   UNL     1      26.081  42.626  50.135  1.00  0.00     0.069 A 
HETATM    9  N   UNL     1      26.490  43.511  51.075  1.00  0.00    -0.066 NA
HETATM   10  C   UNL     1      25.547  44.147  51.799  1.00  0.00     0.728 A 
HETATM   11  N   UNL     1      24.233  43.966  51.597  1.00  0.00    -0.074 NA
HETATM   12  C   UNL     1      23.855  43.097  50.637  1.00  0.00     0.153 A 
HETATM   13  C   UNL     1      27.157  41.915  49.360  1.00  0.00     0.070 C 
ENDROOT
BRANCH  10  14
HETATM   14  N   UNL     1      26.039  45.022  52.754  1.00  0.00    -0.164 N 
HETATM   15  C   UNL     1      27.099  44.851  53.564  1.00  0.00     0.187 A 
HETATM   16  S   UNL     1      27.528  46.139  54.637  1.00  0.00    -0.049 SA
HETATM   17  N   UNL     1      27.895  43.809  53.630  1.00  0.00    -0.223 NA
HETATM   18  C   UNL     1      28.872  45.237  55.212  1.00  0.00     0.037 A 
HETATM   19  C   UNL     1      28.906  44.011  54.549  1.00  0.00     0.076 A 
HETATM   20  C   UNL     1      29.832  45.587  56.176  1.00  0.00     0.021 A 
HETATM   21  C   UNL     1      29.941  43.102  54.854  1.00  0.00     0.033 A 
HETATM   22  C   UNL     1      30.907  43.442  55.806  1.00  0.00     0.002 A 
HETATM   23  C   UNL     1      30.850  44.670  56.460  1.00  0.00     0.002 A 
HETATM   24  H   UNL     1      25.608  45.928  52.664  1.00  0.00     0.186 HD
ENDBRANCH  10  14
TORSDOF 1
ENDMDL
MODEL 5
REMARK VINA RESULT:      -7.9      5.855      8.441
REMARK  1 active torsions:
REMARK  status: ('A' for Active; 'I' for Inactive)
REMARK    1  A    between atoms: C_10  and  N_11 
ROOT
HETATM    1  C   UNL     1      24.379  41.689  48.832  1.00  0.00     0.015 C 
HETATM    2  C   UNL     1      24.062  43.074  49.426  1.00  0.00    -0.036 C 
HETATM    3  C   UNL     1      22.814  42.931  50.321  1.00  0.00     0.015 C 
HETATM    4  C   UNL     1      23.793  44.063  48.274  1.00  0.00     0.093 C 
HETATM    5  C   UNL     1      23.708  45.507  48.723  1.00  0.00     0.163 C 
HETATM    6  O   UNL     1      23.115  46.357  48.066  1.00  0.00    -0.292 OA
HETATM    7  C   UNL     1      24.416  45.893  49.951  1.00  0.00     0.053 A 
HETATM    8  C   UNL     1      25.150  44.990  50.687  1.00  0.00     0.069 A 
HETATM    9  N   UNL     1      25.806  45.340  51.819  1.00  0.00    -0.066 NA
HETATM   10  C   UNL     1      25.692  46.613  52.249  1.00  0.00     0.728 A 
HETATM   11  N   UNL     1      24.992  47.543  51.584  1.00  0.00    -0.074 NA
HETATM   12  C   UNL     1      24.369  47.172  50.447  1.00  0.00     0.153 A 
HETATM   13  C   UNL     1      25.277  43.557  50.245  1.00  0.00     0.070 C 
ENDROOT
BRANCH  10  14
HETATM   14  N   UNL     1      26.375  46.893  53.423  1.00  0.00    -0.164 N 
HETATM   15  C   UNL     1      27.344  46.168  54.009  1.00  0.00     0.187 A 
HETATM   16  S   UNL     1      28.067  46.782  55.455  1.00  0.00    -0.049 SA
HETATM   17  N   UNL     1      27.849  45.028  53.598  1.00  0.00    -0.223 NA
HETATM   18  C   UNL     1      29.130  45.434  55.519  1.00  0.00     0.037 A 
HETATM   19  C   UNL     1      28.864  44.602  54.433  1.00  0.00     0.076 A 
HETATM   20  C   UNL     1      30.133  45.134  56.456  1.00  0.00     0.021 A 
HETATM   21  C   UNL     1      29.630  43.429  54.272  1.00  0.00     0.033 A 
HETATM   22  C   UNL     1      30.635  43.122  55.195  1.00  0.00     0.002 A 
HETATM   23  C   UNL     1      30.880  43.966  56.275  1.00  0.00     0.002 A 
HETATM   24  H   UNL     1      26.189  47.835  53.728  1.00  0.00     0.186 HD
ENDBRANCH  10  14
TORSDOF 1
ENDMDL
MODEL 6
REMARK VINA RESULT:      -7.9      4.743      9.041
REMARK  1 active torsions:
REMARK  status: ('A' for Active; 'I' for Inactive)
REMARK    1  A    between atoms: C_10  and  N_11 
ROOT
HETATM    1  C   UNL     1      27.813  42.130  54.069  1.00  0.00     0.015 C 
HETATM    2  C   UNL     1      27.653  43.524  53.434  1.00  0.00    -0.036 C 
HETATM    3  C   UNL     1      28.771  43.700  52.386  1.00  0.00     0.015 C 
HETATM    4  C   UNL     1      27.773  44.593  54.539  1.00  0.00     0.093 C 
HETATM    5  C   UNL     1      27.394  45.986  54.079  1.00  0.00     0.163 C 
HETATM    6  O   UNL     1      27.800  46.992  54.652  1.00  0.00    -0.292 OA
HETATM    7  C   UNL     1      26.460  46.111  52.951  1.00  0.00     0.053 A 
HETATM    8  C   UNL     1      25.925  45.012  52.319  1.00  0.00     0.069 A 
HETATM    9  N   UNL     1      25.063  45.121  51.280  1.00  0.00    -0.066 NA
HETATM   10  C   UNL     1      24.761  46.358  50.835  1.00  0.00     0.728 A 
HETATM   11  N   UNL     1      25.248  47.472  51.401  1.00  0.00    -0.074 NA
HETATM   12  C   UNL     1      26.085  47.332  52.451  1.00  0.00     0.153 A 
HETATM   13  C   UNL     1      26.260  43.618  52.777  1.00  0.00     0.070 C 
ENDROOT
BRANCH  10  14
HETATM   14  N   UNL     1      23.888  46.391  49.759  1.00  0.00    -0.164 N 
HETATM   15  C   UNL     1      23.110  47.411  49.356  1.00  0.00     0.187 A 
HETATM   16  S   UNL     1      22.147  47.198  47.936  1.00  0.00    -0.049 SA
HETATM   17  N   UNL     1      23.003  48.599  49.905  1.00  0.00    -0.223 NA
HETATM   18  C   UNL     1      21.563  48.808  48.067  1.00  0.00     0.037 A 
HETATM   19  C   UNL     1      22.139  49.404  49.187  1.00  0.00     0.076 A 
HETATM   20  C   UNL     1      20.664  49.500  47.237  1.00  0.00     0.021 A 
HETATM   21  C   UNL     1      21.813  50.743  49.488  1.00  0.00     0.033 A 
HETATM   22  C   UNL     1      20.925  51.444  48.667  1.00  0.00     0.002 A 
HETATM   23  C   UNL     1      20.356  50.827  47.556  1.00  0.00     0.002 A 
HETATM   24  H   UNL     1      24.024  45.590  49.164  1.00  0.00     0.186 HD
ENDBRANCH  10  14
TORSDOF 1
ENDMDL
MODEL 7
REMARK VINA RESULT:      -7.8      4.101      8.155
REMARK  1 active torsions:
REMARK  status: ('A' for Active; 'I' for Inactive)
REMARK    1  A    between atoms: C_10  and  N_11 
ROOT
HETATM    1  C   UNL     1      23.998  41.546  48.991  1.00  0.00     0.015 C 
HETATM    2  C   UNL     1      24.614  42.838  49.556  1.00  0.00    -0.036 C 
HETATM    3  C   UNL     1      26.020  43.002  48.942  1.00  0.00     0.015 C 
HETATM    4  C   UNL     1      24.704  42.720  51.091  1.00  0.00     0.093 C 
HETATM    5  C   UNL     1      25.069  44.020  51.779  1.00  0.00     0.163 C 
HETATM    6  O   UNL     1      25.576  44.043  52.896  1.00  0.00    -0.292 OA
HETATM    7  C   UNL     1      24.738  45.279  51.098  1.00  0.00     0.053 A 
HETATM    8  C   UNL     1      24.109  45.306  49.873  1.00  0.00     0.069 A 
HETATM    9  N   UNL     1      23.801  46.463  49.241  1.00  0.00    -0.066 NA
HETATM   10  C   UNL     1      24.168  47.621  49.827  1.00  0.00     0.728 A 
HETATM   11  N   UNL     1      24.786  47.669  51.016  1.00  0.00    -0.074 NA
HETATM   12  C   UNL     1      25.058  46.501  51.634  1.00  0.00     0.153 A 
HETATM   13  C   UNL     1      23.707  44.030  49.184  1.00  0.00     0.070 C 
ENDROOT
BRANCH  10  14
HETATM   14  N   UNL     1      23.837  48.763  49.114  1.00  0.00    -0.164 N 
HETATM   15  C   UNL     1      22.663  49.419  49.102  1.00  0.00     0.187 A 
HETATM   16  S   UNL     1      22.538  50.861  48.155  1.00  0.00    -0.049 SA
HETATM   17  N   UNL     1      21.569  49.113  49.761  1.00  0.00    -0.223 NA
HETATM   18  C   UNL     1      20.917  51.086  48.677  1.00  0.00     0.037 A 
HETATM   19  C   UNL     1      20.575  50.046  49.539  1.00  0.00     0.076 A 
HETATM   20  C   UNL     1      20.011  52.111  48.353  1.00  0.00     0.021 A 
HETATM   21  C   UNL     1      19.284  50.030  50.107  1.00  0.00     0.033 A 
HETATM   22  C   UNL     1      18.376  51.048  49.797  1.00  0.00     0.002 A 
HETATM   23  C   UNL     1      18.737  52.074  48.929  1.00  0.00     0.002 A 
HETATM   24  H   UNL     1      24.659  49.184  48.711  1.00  0.00     0.186 HD
ENDBRANCH  10  14
TORSDOF 1
ENDMDL
MODEL 8
REMARK VINA RESULT:      -7.8      4.306      8.491
REMARK  1 active torsions:
REMARK  status: ('A' for Active; 'I' for Inactive)
REMARK    1  A    between atoms: C_10  and  N_11 
ROOT
HETATM    1  C   UNL     1      27.500  44.477  54.943  1.00  0.00     0.015 C 
HETATM    2  C   UNL     1      26.548  44.500  53.733  1.00  0.00    -0.036 C 
HETATM    3  C   UNL     1      25.101  44.480  54.268  1.00  0.00     0.015 C 
HETATM    4  C   UNL     1      26.820  43.259  52.860  1.00  0.00     0.093 C 
HETATM    5  C   UNL     1      26.115  43.295  51.519  1.00  0.00     0.163 C 
HETATM    6  O   UNL     1      25.873  42.272  50.886  1.00  0.00    -0.292 OA
HETATM    7  C   UNL     1      25.776  44.606  50.950  1.00  0.00     0.053 A 
HETATM    8  C   UNL     1      26.086  45.784  51.593  1.00  0.00     0.069 A 
HETATM    9  N   UNL     1      25.778  46.996  51.073  1.00  0.00    -0.066 NA
HETATM   10  C   UNL     1      25.106  47.032  49.904  1.00  0.00     0.728 A 
HETATM   11  N   UNL     1      24.770  45.925  49.227  1.00  0.00    -0.074 NA
HETATM   12  C   UNL     1      25.112  44.732  49.756  1.00  0.00     0.153 A 
HETATM   13  C   UNL     1      26.815  45.777  52.909  1.00  0.00     0.070 C 
ENDROOT
BRANCH  10  14
HETATM   14  N   UNL     1      24.809  48.305  49.443  1.00  0.00    -0.164 N 
HETATM   15  C   UNL     1      23.596  48.846  49.233  1.00  0.00     0.187 A 
HETATM   16  S   UNL     1      23.512  50.489  48.699  1.00  0.00    -0.049 SA
HETATM   17  N   UNL     1      22.426  48.279  49.413  1.00  0.00    -0.223 NA
HETATM   18  C   UNL     1      21.795  50.429  48.725  1.00  0.00     0.037 A 
HETATM   19  C   UNL     1      21.397  49.159  49.138  1.00  0.00     0.076 A 
HETATM   20  C   UNL     1      20.864  51.433  48.409  1.00  0.00     0.021 A 
HETATM   21  C   UNL     1      20.019  48.880  49.247  1.00  0.00     0.033 A 
HETATM   22  C   UNL     1      19.082  49.873  48.941  1.00  0.00     0.002 A 
HETATM   23  C   UNL     1      19.503  51.134  48.525  1.00  0.00     0.002 A 
HETATM   24  H   UNL     1      25.632  48.885  49.442  1.00  0.00     0.186 HD
ENDBRANCH  10  14
TORSDOF 1
ENDMDL
MODEL 9
REMARK VINA RESULT:      -7.8      8.686     11.185
REMARK  1 active torsions:
REMARK  status: ('A' for Active; 'I' for Inactive)
REMARK    1  A    between atoms: C_10  and  N_11 
ROOT
HETATM    1  C   UNL     1      25.857  46.874  52.872  1.00  0.00     0.015 C 
HETATM    2  C   UNL     1      26.451  45.545  53.373  1.00  0.00    -0.036 C 
HETATM    3  C   UNL     1      25.461  44.934  54.386  1.00  0.00     0.015 C 
HETATM    4  C   UNL     1      27.810  45.826  54.044  1.00  0.00     0.093 C 
HETATM    5  C   UNL     1      28.601  44.574  54.361  1.00  0.00     0.163 C 
HETATM    6  O   UNL     1      29.469  44.556  55.228  1.00  0.00    -0.292 OA
HETATM    7  C   UNL     1      28.350  43.374  53.551  1.00  0.00     0.053 A 
HETATM    8  C   UNL     1      27.434  43.364  52.523  1.00  0.00     0.069 A 
HETATM    9  N   UNL     1      27.199  42.261  51.772  1.00  0.00    -0.066 NA
HETATM   10  C   UNL     1      27.865  41.130  52.082  1.00  0.00     0.728 A 
HETATM   11  N   UNL     1      28.768  41.068  53.071  1.00  0.00    -0.074 NA
HETATM   12  C   UNL     1      29.000  42.188  53.786  1.00  0.00     0.153 A 
HETATM   13  C   UNL     1      26.659  44.604  52.168  1.00  0.00     0.070 C 
ENDROOT
BRANCH  10  14
HETATM   14  N   UNL     1      27.560  40.039  51.283  1.00  0.00    -0.164 N 
HETATM   15  C   UNL     1      27.640  39.947  49.944  1.00  0.00     0.187 A 
HETATM   16  S   UNL     1      27.244  38.436  49.201  1.00  0.00    -0.049 SA
HETATM   17  N   UNL     1      28.019  40.878  49.099  1.00  0.00    -0.223 NA
HETATM   18  C   UNL     1      27.619  39.078  47.652  1.00  0.00     0.037 A 
HETATM   19  C   UNL     1      28.021  40.404  47.802  1.00  0.00     0.076 A 
HETATM   20  C   UNL     1      27.568  38.454  46.393  1.00  0.00     0.021 A 
HETATM   21  C   UNL     1      28.392  41.135  46.654  1.00  0.00     0.033 A 
HETATM   22  C   UNL     1      28.352  40.524  45.397  1.00  0.00     0.002 A 
HETATM   23  C   UNL     1      27.943  39.199  45.270  1.00  0.00     0.002 A 
HETATM   24  H   UNL     1      27.427  39.213  51.843  1.00  0.00     0.186 HD
ENDBRANCH  10  14
TORSDOF 1
ENDMDL
MODEL 10
REMARK VINA RESULT:      -7.7     11.775     13.927
REMARK  1 active torsions:
REMARK  status: ('A' for Active; 'I' for Inactive)
REMARK    1  A    between atoms: C_10  and  N_11 
ROOT
HETATM    1  C   UNL     1      28.768  53.228  38.322  1.00  0.00     0.015 C 
HETATM    2  C   UNL     1      29.293  52.027  39.130  1.00  0.00    -0.036 C 
HETATM    3  C   UNL     1      29.324  50.802  38.193  1.00  0.00     0.015 C 
HETATM    4  C   UNL     1      28.347  51.775  40.321  1.00  0.00     0.093 C 
HETATM    5  C   UNL     1      28.888  50.776  41.323  1.00  0.00     0.163 C 
HETATM    6  O   UNL     1      28.150  50.153  42.081  1.00  0.00    -0.292 OA
HETATM    7  C   UNL     1      30.345  50.610  41.418  1.00  0.00     0.053 A 
HETATM    8  C   UNL     1      31.216  51.335  40.636  1.00  0.00     0.069 A 
HETATM    9  N   UNL     1      32.560  51.188  40.720  1.00  0.00    -0.066 NA
HETATM   10  C   UNL     1      33.043  50.264  41.575  1.00  0.00     0.728 A 
HETATM   11  N   UNL     1      32.253  49.521  42.364  1.00  0.00    -0.074 NA
HETATM   12  C   UNL     1      30.919  49.708  42.277  1.00  0.00     0.153 A 
HETATM   13  C   UNL     1      30.706  52.357  39.656  1.00  0.00     0.070 C 
ENDROOT
BRANCH  10  14
HETATM   14  N   UNL     1      34.425  50.156  41.593  1.00  0.00    -0.164 N 
HETATM   15  C   UNL     1      35.303  50.897  42.291  1.00  0.00     0.187 A 
HETATM   16  S   UNL     1      36.985  50.510  42.167  1.00  0.00    -0.049 SA
HETATM   17  N   UNL     1      35.040  51.893  43.105  1.00  0.00    -0.223 NA
HETATM   18  C   UNL     1      37.373  51.754  43.287  1.00  0.00     0.037 A 
HETATM   19  C   UNL     1      36.195  52.385  43.682  1.00  0.00     0.076 A 
HETATM   20  C   UNL     1      38.627  52.143  43.786  1.00  0.00     0.021 A 
HETATM   21  C   UNL     1      36.268  53.440  44.616  1.00  0.00     0.033 A 
HETATM   22  C   UNL     1      37.511  53.831  45.125  1.00  0.00     0.002 A 
HETATM   23  C   UNL     1      38.675  53.190  44.712  1.00  0.00     0.002 A 
HETATM   24  H   UNL     1      34.723  49.308  41.139  1.00  0.00     0.186 HD
ENDBRANCH  10  14
TORSDOF 1
ENDMDL
