MODEL 1
REMARK VINA RESULT:      -8.7      0.000      0.000
REMARK  4 active torsions:
REMARK  status: ('A' for Active; 'I' for Inactive)
REMARK    1  A    between atoms: C_2  and  C_3 
REMARK    2  A    between atoms: C_4  and  C_5 
REMARK       I    between atoms: C_5  and  N_6 
REMARK    3  A    between atoms: N_6  and  C_7 
REMARK    4  A    between atoms: C_14  and  C_15 
REMARK       I    between atoms: C_15  and  N_16 
ROOT
HETATM    1  C   UNL     1      26.121  44.375  51.902  1.00  0.00     0.035 A 
HETATM    2  C   UNL     1      26.987  43.275  51.944  1.00  0.00     0.046 A 
HETATM    3  C   UNL     1      26.632  42.081  51.276  1.00  0.00     0.030 A 
HETATM    4  C   UNL     1      25.422  42.027  50.598  1.00  0.00     0.063 A 
HETATM    5  N   UNL     1      25.358  40.767  50.070  1.00  0.00    -0.277 N 
HETATM    6  H   UNL     1      24.609  40.373  49.513  1.00  0.00     0.189 HD
HETATM    7  N   UNL     1      26.423  39.995  50.341  1.00  0.00    -0.168 NA
HETATM    8  C   UNL     1      27.222  40.795  51.084  1.00  0.00     0.156 A 
HETATM    9  C   UNL     1      24.533  43.101  50.536  1.00  0.00     0.034 A 
HETATM   10  C   UNL     1      24.911  44.275  51.200  1.00  0.00     0.032 A 
ENDROOT
BRANCH   1  11
HETATM   11  N   UNL     1      26.391  45.610  52.530  1.00  0.00    -0.327 N 
HETATM   12  C   UNL     1      25.993  46.018  53.784  1.00  0.00     0.227 C 
HETATM   13  O   UNL     1      25.348  45.381  54.604  1.00  0.00    -0.273 OA
HETATM   14  H   UNL     1      26.937  46.269  51.996  1.00  0.00     0.169 HD
BRANCH  12  15
HETATM   15  C   UNL     1      26.476  47.370  54.186  1.00  0.00     0.087 A 
HETATM   16  C   UNL     1      27.813  47.560  54.884  1.00  0.00     0.032 A 
HETATM   17  C   UNL     1      26.519  47.896  55.593  1.00  0.00     0.025 A 
BRANCH  16  18
HETATM   18  C   UNL     1      28.654  46.420  55.417  1.00  0.00    -0.053 A 
HETATM   19  C   UNL     1      29.032  45.336  54.608  1.00  0.00     0.009 A 
HETATM   20  C   UNL     1      29.827  44.295  55.102  1.00  0.00     0.024 A 
HETATM   21  C   UNL     1      30.277  44.335  56.417  1.00  0.00     0.034 A 
HETATM   22  C   UNL     1      29.939  45.404  57.239  1.00  0.00     0.024 A 
HETATM   23 CL   UNL     1      31.260  43.063  57.028  1.00  0.00    -0.084 Cl
HETATM   24  C   UNL     1      29.139  46.436  56.738  1.00  0.00     0.009 A 
ENDBRANCH  16  18
ENDBRANCH  12  15
ENDBRANCH   1  11
BRANCH   8  25
HETATM   25  C   UNL     1      28.517  40.319  51.589  1.00  0.00     0.270 C 
HETATM   26  N   UNL     1      29.054  39.289  50.866  1.00  0.00    -0.365 N 
HETATM   27  H   UNL     1      28.541  38.938  50.066  1.00  0.00     0.159 HD
HETATM   28  H   UNL     1      29.940  38.895  51.141  1.00  0.00     0.159 HD
HETATM   29  O   UNL     1      29.099  40.776  52.566  1.00  0.00    -0.266 OA
ENDBRANCH   8  25
TORSDOF 4
ENDMDL
MODEL 2
REMARK VINA RESULT:      -8.7      2.791      5.490
REMARK  4 active torsions:
REMARK  status: ('A' for Active; 'I' for Inactive)
REMARK    1  A    between atoms: C_2  and  C_3 
REMARK    2  A    between atoms: C_4  and  C_5 
REMARK       I    between atoms: C_5  and  N_6 
REMARK    3  A    between atoms: N_6  and  C_7 
REMARK    4  A    between atoms: C_14  and  C_15 
REMARK       I    between atoms: C_15  and  N_16 
ROOT
HETATM    1  C   UNL     1      24.799  43.185  50.775  1.00  0.00     0.035 A 
HETATM    2  C   UNL     1      25.162  44.534  50.665  1.00  0.00     0.046 A 
HETATM    3  C   UNL     1      24.286  45.443  50.029  1.00  0.00     0.030 A 
HETATM    4  C   UNL     1      23.084  44.971  49.521  1.00  0.00     0.063 A 
HETATM    5  N   UNL     1      22.470  46.063  48.971  1.00  0.00    -0.277 N 
HETATM    6  H   UNL     1      21.571  46.090  48.505  1.00  0.00     0.189 HD
HETATM    7  N   UNL     1      23.165  47.206  49.080  1.00  0.00    -0.168 NA
HETATM    8  C   UNL     1      24.290  46.840  49.736  1.00  0.00     0.156 A 
HETATM    9  C   UNL     1      22.689  43.636  49.611  1.00  0.00     0.034 A 
HETATM   10  C   UNL     1      23.571  42.755  50.251  1.00  0.00     0.032 A 
ENDROOT
BRANCH   1  11
HETATM   11  N   UNL     1      25.601  42.205  51.399  1.00  0.00    -0.327 N 
HETATM   12  C   UNL     1      26.927  41.927  51.153  1.00  0.00     0.227 C 
HETATM   13  O   UNL     1      27.671  42.490  50.363  1.00  0.00    -0.273 OA
HETATM   14  H   UNL     1      25.148  41.643  52.103  1.00  0.00     0.169 HD
BRANCH  12  15
HETATM   15  C   UNL     1      27.512  40.857  52.010  1.00  0.00     0.087 A 
HETATM   16  C   UNL     1      27.999  41.148  53.421  1.00  0.00     0.032 A 
HETATM   17  C   UNL     1      28.970  40.711  52.346  1.00  0.00     0.025 A 
BRANCH  16  18
HETATM   18  C   UNL     1      28.134  42.541  53.994  1.00  0.00    -0.053 A 
HETATM   19  C   UNL     1      27.014  43.304  54.364  1.00  0.00     0.009 A 
HETATM   20  C   UNL     1      27.148  44.584  54.914  1.00  0.00     0.024 A 
HETATM   21  C   UNL     1      28.416  45.118  55.120  1.00  0.00     0.034 A 
HETATM   22  C   UNL     1      29.547  44.381  54.784  1.00  0.00     0.024 A 
HETATM   23 CL   UNL     1      28.587  46.688  55.800  1.00  0.00    -0.084 Cl
HETATM   24  C   UNL     1      29.402  43.105  54.230  1.00  0.00     0.009 A 
ENDBRANCH  16  18
ENDBRANCH  12  15
ENDBRANCH   1  11
BRANCH   8  25
HETATM   25  C   UNL     1      25.333  47.822  50.064  1.00  0.00     0.270 C 
HETATM   26  N   UNL     1      25.509  48.789  49.112  1.00  0.00    -0.365 N 
HETATM   27  H   UNL     1      24.934  48.761  48.279  1.00  0.00     0.159 HD
HETATM   28  H   UNL     1      26.206  49.504  49.250  1.00  0.00     0.159 HD
HETATM   29  O   UNL     1      26.007  47.813  51.087  1.00  0.00    -0.266 OA
ENDBRANCH   8  25
TORSDOF 4
ENDMDL
MODEL 3
REMARK VINA RESULT:      -8.7      3.261      4.741
REMARK  4 active torsions:
REMARK  status: ('A' for Active; 'I' for Inactive)
REMARK    1  A    between atoms: C_2  and  C_3 
REMARK    2  A    between atoms: C_4  and  C_5 
REMARK       I    between atoms: C_5  and  N_6 
REMARK    3  A    between atoms: N_6  and  C_7 
REMARK    4  A    between atoms: C_14  and  C_15 
REMARK       I    between atoms: C_15  and  N_16 
ROOT
HETATM    1  C   UNL     1      27.489  41.619  51.394  1.00  0.00     0.035 A 
HETATM    2  C   UNL     1      28.091  40.356  51.323  1.00  0.00     0.046 A 
HETATM    3  C   UNL     1      28.279  39.741  50.065  1.00  0.00     0.030 A 
HETATM    4  C   UNL     1      27.852  40.406  48.924  1.00  0.00     0.063 A 
HETATM    5  N   UNL     1      28.158  39.573  47.883  1.00  0.00    -0.277 N 
HETATM    6  H   UNL     1      27.986  39.734  46.897  1.00  0.00     0.189 HD
HETATM    7  N   UNL     1      28.752  38.424  48.245  1.00  0.00    -0.168 NA
HETATM    8  C   UNL     1      28.837  38.514  49.593  1.00  0.00     0.156 A 
HETATM    9  C   UNL     1      27.247  41.663  48.954  1.00  0.00     0.034 A 
HETATM   10  C   UNL     1      27.078  42.254  50.213  1.00  0.00     0.032 A 
ENDROOT
BRANCH   1  11
HETATM   11  N   UNL     1      27.266  42.315  52.601  1.00  0.00    -0.327 N 
HETATM   12  C   UNL     1      28.090  43.243  53.198  1.00  0.00     0.227 C 
HETATM   13  O   UNL     1      29.163  43.659  52.786  1.00  0.00    -0.273 OA
HETATM   14  H   UNL     1      26.403  42.106  53.081  1.00  0.00     0.169 HD
BRANCH  12  15
HETATM   15  C   UNL     1      27.554  43.840  54.455  1.00  0.00     0.087 A 
HETATM   16  C   UNL     1      26.420  44.854  54.432  1.00  0.00     0.032 A 
HETATM   17  C   UNL     1      27.797  45.248  54.921  1.00  0.00     0.025 A 
BRANCH  16  18
HETATM   18  C   UNL     1      25.892  45.496  53.168  1.00  0.00    -0.053 A 
HETATM   19  C   UNL     1      24.961  44.848  52.339  1.00  0.00     0.009 A 
HETATM   20  C   UNL     1      24.460  45.457  51.183  1.00  0.00     0.024 A 
HETATM   21  C   UNL     1      24.872  46.742  50.846  1.00  0.00     0.034 A 
HETATM   22  C   UNL     1      25.776  47.420  51.656  1.00  0.00     0.024 A 
HETATM   23 CL   UNL     1      24.256  47.499  49.430  1.00  0.00    -0.084 Cl
HETATM   24  C   UNL     1      26.275  46.801  52.806  1.00  0.00     0.009 A 
ENDBRANCH  16  18
ENDBRANCH  12  15
ENDBRANCH   1  11
BRANCH   8  25
HETATM   25  C   UNL     1      29.442  37.439  50.390  1.00  0.00     0.270 C 
HETATM   26  N   UNL     1      28.569  36.445  50.742  1.00  0.00    -0.365 N 
HETATM   27  H   UNL     1      27.604  36.518  50.444  1.00  0.00     0.159 HD
HETATM   28  H   UNL     1      28.894  35.667  51.294  1.00  0.00     0.159 HD
HETATM   29  O   UNL     1      30.618  37.395  50.729  1.00  0.00    -0.266 OA
ENDBRANCH   8  25
TORSDOF 4
ENDMDL
MODEL 4
REMARK VINA RESULT:      -8.6      1.824      2.629
REMARK  4 active torsions:
REMARK  status: ('A' for Active; 'I' for Inactive)
REMARK    1  A    between atoms: C_2  and  C_3 
REMARK    2  A    between atoms: C_4  and  C_5 
REMARK       I    between atoms: C_5  and  N_6 
REMARK    3  A    between atoms: N_6  and  C_7 
REMARK    4  A    between atoms: C_14  and  C_15 
REMARK       I    between atoms: C_15  and  N_16 
ROOT
HETATM    1  C   UNL     1      27.968  43.432  52.326  1.00  0.00     0.035 A 
HETATM    2  C   UNL     1      27.537  42.762  51.173  1.00  0.00     0.046 A 
HETATM    3  C   UNL     1      27.919  41.418  50.962  1.00  0.00     0.030 A 
HETATM    4  C   UNL     1      28.723  40.794  51.906  1.00  0.00     0.063 A 
HETATM    5  N   UNL     1      28.924  39.527  51.430  1.00  0.00    -0.277 N 
HETATM    6  H   UNL     1      29.468  38.789  51.861  1.00  0.00     0.189 HD
HETATM    7  N   UNL     1      28.318  39.269  50.260  1.00  0.00    -0.168 NA
HETATM    8  C   UNL     1      27.688  40.429  49.959  1.00  0.00     0.156 A 
HETATM    9  C   UNL     1      29.173  41.428  53.064  1.00  0.00     0.034 A 
HETATM   10  C   UNL     1      28.776  42.758  53.253  1.00  0.00     0.032 A 
ENDROOT
BRANCH   1  11
HETATM   11  N   UNL     1      27.633  44.769  52.627  1.00  0.00    -0.327 N 
HETATM   12  C   UNL     1      26.620  45.215  53.445  1.00  0.00     0.227 C 
HETATM   13  O   UNL     1      25.827  44.539  54.085  1.00  0.00    -0.273 OA
HETATM   14  H   UNL     1      28.203  45.478  52.190  1.00  0.00     0.169 HD
BRANCH  12  15
HETATM   15  C   UNL     1      26.545  46.696  53.600  1.00  0.00     0.087 A 
HETATM   16  C   UNL     1      27.472  47.442  54.548  1.00  0.00     0.032 A 
HETATM   17  C   UNL     1      25.978  47.419  54.790  1.00  0.00     0.025 A 
BRANCH  16  18
HETATM   18  C   UNL     1      28.376  46.760  55.551  1.00  0.00    -0.053 A 
HETATM   19  C   UNL     1      29.601  46.184  55.174  1.00  0.00     0.009 A 
HETATM   20  C   UNL     1      30.443  45.574  56.112  1.00  0.00     0.024 A 
HETATM   21  C   UNL     1      30.077  45.546  57.453  1.00  0.00     0.034 A 
HETATM   22  C   UNL     1      28.881  46.126  57.863  1.00  0.00     0.024 A 
HETATM   23 CL   UNL     1      31.110  44.803  58.610  1.00  0.00    -0.084 Cl
HETATM   24  C   UNL     1      28.044  46.729  56.918  1.00  0.00     0.009 A 
ENDBRANCH  16  18
ENDBRANCH  12  15
ENDBRANCH   1  11
BRANCH   8  25
HETATM   25  C   UNL     1      26.890  40.564  48.732  1.00  0.00     0.270 C 
HETATM   26  N   UNL     1      25.696  39.897  48.766  1.00  0.00    -0.365 N 
HETATM   27  H   UNL     1      25.455  39.374  49.599  1.00  0.00     0.159 HD
HETATM   28  H   UNL     1      25.083  39.931  47.966  1.00  0.00     0.159 HD
HETATM   29  O   UNL     1      27.226  41.209  47.746  1.00  0.00    -0.266 OA
ENDBRANCH   8  25
TORSDOF 4
ENDMDL
MODEL 5
REMARK VINA RESULT:      -8.4      3.504      6.041
REMARK  4 active torsions:
REMARK  status: ('A' for Active; 'I' for Inactive)
REMARK    1  A    between atoms: C_2  and  C_3 
REMARK    2  A    between atoms: C_4  and  C_5 
REMARK       I    between atoms: C_5  and  N_6 
REMARK    3  A    between atoms: N_6  and  C_7 
REMARK    4  A    between atoms: C_14  and  C_15 
REMARK       I    between atoms: C_15  and  N_16 
ROOT
HETATM    1  C   UNL     1      25.121  44.680  50.820  1.00  0.00     0.035 A 
HETATM    2  C   UNL     1      24.164  44.902  49.821  1.00  0.00     0.046 A 
HETATM    3  C   UNL     1      23.742  46.220  49.538  1.00  0.00     0.030 A 
HETATM    4  C   UNL     1      24.286  47.269  50.268  1.00  0.00     0.063 A 
HETATM    5  N   UNL     1      23.689  48.398  49.779  1.00  0.00    -0.277 N 
HETATM    6  H   UNL     1      23.844  49.353  50.081  1.00  0.00     0.189 HD
HETATM    7  N   UNL     1      22.807  48.179  48.791  1.00  0.00    -0.168 NA
HETATM    8  C   UNL     1      22.830  46.836  48.628  1.00  0.00     0.156 A 
HETATM    9  C   UNL     1      25.239  47.087  51.270  1.00  0.00     0.034 A 
HETATM   10  C   UNL     1      25.645  45.771  51.528  1.00  0.00     0.032 A 
ENDROOT
BRANCH   1  11
HETATM   11  N   UNL     1      25.609  43.402  51.169  1.00  0.00    -0.327 N 
HETATM   12  C   UNL     1      26.782  42.811  50.755  1.00  0.00     0.227 C 
HETATM   13  O   UNL     1      27.637  43.288  50.024  1.00  0.00    -0.273 OA
HETATM   14  H   UNL     1      25.028  42.860  51.791  1.00  0.00     0.169 HD
BRANCH  12  15
HETATM   15  C   UNL     1      27.042  41.463  51.335  1.00  0.00     0.087 A 
HETATM   16  C   UNL     1      27.643  41.297  52.722  1.00  0.00     0.032 A 
HETATM   17  C   UNL     1      28.397  40.832  51.496  1.00  0.00     0.025 A 
BRANCH  16  18
HETATM   18  C   UNL     1      28.216  42.440  53.532  1.00  0.00    -0.053 A 
HETATM   19  C   UNL     1      27.396  43.406  54.137  1.00  0.00     0.009 A 
HETATM   20  C   UNL     1      27.932  44.448  54.902  1.00  0.00     0.024 A 
HETATM   21  C   UNL     1      29.308  44.528  55.092  1.00  0.00     0.034 A 
HETATM   22  C   UNL     1      30.147  43.575  54.524  1.00  0.00     0.024 A 
HETATM   23 CL   UNL     1      29.973  45.802  56.036  1.00  0.00    -0.084 Cl
HETATM   24  C   UNL     1      29.602  42.541  53.756  1.00  0.00     0.009 A 
ENDBRANCH  16  18
ENDBRANCH  12  15
ENDBRANCH   1  11
BRANCH   8  25
HETATM   25  C   UNL     1      21.990  46.178  47.618  1.00  0.00     0.270 C 
HETATM   26  N   UNL     1      21.018  45.369  48.141  1.00  0.00    -0.365 N 
HETATM   27  H   UNL     1      20.948  45.281  49.147  1.00  0.00     0.159 HD
HETATM   28  H   UNL     1      20.395  44.874  47.522  1.00  0.00     0.159 HD
HETATM   29  O   UNL     1      22.115  46.315  46.407  1.00  0.00    -0.266 OA
ENDBRANCH   8  25
TORSDOF 4
ENDMDL
MODEL 6
REMARK VINA RESULT:      -8.4      3.634      6.773
REMARK  4 active torsions:
REMARK  status: ('A' for Active; 'I' for Inactive)
REMARK    1  A    between atoms: C_2  and  C_3 
REMARK    2  A    between atoms: C_4  and  C_5 
REMARK       I    between atoms: C_5  and  N_6 
REMARK    3  A    between atoms: N_6  and  C_7 
REMARK    4  A    between atoms: C_14  and  C_15 
REMARK       I    between atoms: C_15  and  N_16 
ROOT
HETATM    1  C   UNL     1      27.888  43.293  52.879  1.00  0.00     0.035 A 
HETATM    2  C   UNL     1      27.898  44.231  53.919  1.00  0.00     0.046 A 
HETATM    3  C   UNL     1      29.019  44.312  54.776  1.00  0.00     0.030 A 
HETATM    4  C   UNL     1      30.086  43.449  54.567  1.00  0.00     0.063 A 
HETATM    5  N   UNL     1      30.997  43.758  55.539  1.00  0.00    -0.277 N 
HETATM    6  H   UNL     1      31.900  43.324  55.693  1.00  0.00     0.189 HD
HETATM    7  N   UNL     1      30.620  44.750  56.361  1.00  0.00    -0.168 NA
HETATM    8  C   UNL     1      29.399  45.106  55.900  1.00  0.00     0.156 A 
HETATM    9  C   UNL     1      30.112  42.501  53.543  1.00  0.00     0.034 A 
HETATM   10  C   UNL     1      28.991  42.445  52.704  1.00  0.00     0.032 A 
ENDROOT
BRANCH   1  11
HETATM   11  N   UNL     1      26.820  43.142  51.969  1.00  0.00    -0.327 N 
HETATM   12  C   UNL     1      25.513  43.543  52.137  1.00  0.00     0.227 C 
HETATM   13  O   UNL     1      25.031  44.125  53.097  1.00  0.00    -0.273 OA
HETATM   14  H   UNL     1      27.042  42.686  51.096  1.00  0.00     0.169 HD
BRANCH  12  15
HETATM   15  C   UNL     1      24.623  43.281  50.970  1.00  0.00     0.087 A 
HETATM   16  C   UNL     1      24.651  44.169  49.735  1.00  0.00     0.032 A 
HETATM   17  C   UNL     1      23.412  44.091  50.600  1.00  0.00     0.025 A 
BRANCH  16  18
HETATM   18  C   UNL     1      25.399  45.482  49.660  1.00  0.00    -0.053 A 
HETATM   19  C   UNL     1      26.797  45.534  49.529  1.00  0.00     0.009 A 
HETATM   20  C   UNL     1      27.479  46.753  49.438  1.00  0.00     0.024 A 
HETATM   21  C   UNL     1      26.766  47.946  49.459  1.00  0.00     0.034 A 
HETATM   22  C   UNL     1      25.380  47.930  49.568  1.00  0.00     0.024 A 
HETATM   23 CL   UNL     1      27.598  49.447  49.342  1.00  0.00    -0.084 Cl
HETATM   24  C   UNL     1      24.707  46.708  49.663  1.00  0.00     0.009 A 
ENDBRANCH  16  18
ENDBRANCH  12  15
ENDBRANCH   1  11
BRANCH   8  25
HETATM   25  C   UNL     1      28.631  46.185  56.537  1.00  0.00     0.270 C 
HETATM   26  N   UNL     1      28.700  46.189  57.903  1.00  0.00    -0.365 N 
HETATM   27  H   UNL     1      29.252  45.475  58.364  1.00  0.00     0.159 HD
HETATM   28  H   UNL     1      28.202  46.892  58.426  1.00  0.00     0.159 HD
HETATM   29  O   UNL     1      27.975  47.027  55.935  1.00  0.00    -0.266 OA
ENDBRANCH   8  25
TORSDOF 4
ENDMDL
MODEL 7
REMARK VINA RESULT:      -8.3      3.472      7.345
REMARK  4 active torsions:
REMARK  status: ('A' for Active; 'I' for Inactive)
REMARK    1  A    between atoms: C_2  and  C_3 
REMARK    2  A    between atoms: C_4  and  C_5 
REMARK       I    between atoms: C_5  and  N_6 
REMARK    3  A    between atoms: N_6  and  C_7 
REMARK    4  A    between atoms: C_14  and  C_15 
REMARK       I    between atoms: C_15  and  N_16 
ROOT
HETATM    1  C   UNL     1      27.758  43.160  52.996  1.00  0.00     0.035 A 
HETATM    2  C   UNL     1      27.789  44.128  54.007  1.00  0.00     0.046 A 
HETATM    3  C   UNL     1      28.957  44.287  54.787  1.00  0.00     0.030 A 
HETATM    4  C   UNL     1      30.049  43.468  54.533  1.00  0.00     0.063 A 
HETATM    5  N   UNL     1      31.004  43.847  55.435  1.00  0.00    -0.277 N 
HETATM    6  H   UNL     1      31.935  43.461  55.542  1.00  0.00     0.189 HD
HETATM    7  N   UNL     1      30.633  44.846  56.253  1.00  0.00    -0.168 NA
HETATM    8  C   UNL     1      29.369  45.131  55.862  1.00  0.00     0.156 A 
HETATM    9  C   UNL     1      30.054  42.492  53.535  1.00  0.00     0.034 A 
HETATM   10  C   UNL     1      28.887  42.359  52.772  1.00  0.00     0.032 A 
ENDROOT
BRANCH   1  11
HETATM   11  N   UNL     1      26.642  42.932  52.161  1.00  0.00    -0.327 N 
HETATM   12  C   UNL     1      26.360  43.536  50.956  1.00  0.00     0.227 C 
HETATM   13  O   UNL     1      27.032  44.370  50.367  1.00  0.00    -0.273 OA
HETATM   14  H   UNL     1      25.976  42.250  52.489  1.00  0.00     0.169 HD
BRANCH  12  15
HETATM   15  C   UNL     1      25.120  43.049  50.287  1.00  0.00     0.087 A 
HETATM   16  C   UNL     1      25.063  41.686  49.616  1.00  0.00     0.032 A 
HETATM   17  C   UNL     1      24.914  42.952  48.802  1.00  0.00     0.025 A 
BRANCH  16  18
HETATM   18  C   UNL     1      26.277  40.813  49.380  1.00  0.00    -0.053 A 
HETATM   19  C   UNL     1      26.481  39.618  50.089  1.00  0.00     0.009 A 
HETATM   20  C   UNL     1      27.596  38.806  49.849  1.00  0.00     0.024 A 
HETATM   21  C   UNL     1      28.519  39.170  48.876  1.00  0.00     0.034 A 
HETATM   22  C   UNL     1      28.336  40.336  48.141  1.00  0.00     0.024 A 
HETATM   23 CL   UNL     1      29.887  38.173  48.572  1.00  0.00    -0.084 Cl
HETATM   24  C   UNL     1      27.222  41.144  48.391  1.00  0.00     0.009 A 
ENDBRANCH  16  18
ENDBRANCH  12  15
ENDBRANCH   1  11
BRANCH   8  25
HETATM   25  C   UNL     1      28.592  46.192  56.518  1.00  0.00     0.270 C 
HETATM   26  N   UNL     1      28.694  46.197  57.883  1.00  0.00    -0.365 N 
HETATM   27  H   UNL     1      29.272  45.496  58.329  1.00  0.00     0.159 HD
HETATM   28  H   UNL     1      28.192  46.888  58.418  1.00  0.00     0.159 HD
HETATM   29  O   UNL     1      27.903  47.019  55.932  1.00  0.00    -0.266 OA
ENDBRANCH   8  25
TORSDOF 4
ENDMDL
MODEL 8
REMARK VINA RESULT:      -8.3      3.532      6.902
REMARK  4 active torsions:
REMARK  status: ('A' for Active; 'I' for Inactive)
REMARK    1  A    between atoms: C_2  and  C_3 
REMARK    2  A    between atoms: C_4  and  C_5 
REMARK       I    between atoms: C_5  and  N_6 
REMARK    3  A    between atoms: N_6  and  C_7 
REMARK    4  A    between atoms: C_14  and  C_15 
REMARK       I    between atoms: C_15  and  N_16 
ROOT
HETATM    1  C   UNL     1      28.142  44.556  53.608  1.00  0.00     0.035 A 
HETATM    2  C   UNL     1      28.529  45.119  54.831  1.00  0.00     0.046 A 
HETATM    3  C   UNL     1      29.620  44.568  55.540  1.00  0.00     0.030 A 
HETATM    4  C   UNL     1      30.282  43.472  55.005  1.00  0.00     0.063 A 
HETATM    5  N   UNL     1      31.267  43.169  55.904  1.00  0.00    -0.277 N 
HETATM    6  H   UNL     1      31.946  42.419  55.841  1.00  0.00     0.189 HD
HETATM    7  N   UNL     1      31.309  43.975  56.977  1.00  0.00    -0.168 NA
HETATM    8  C   UNL     1      30.298  44.849  56.765  1.00  0.00     0.156 A 
HETATM    9  C   UNL     1      29.925  42.883  53.791  1.00  0.00     0.034 A 
HETATM   10  C   UNL     1      28.844  43.451  53.105  1.00  0.00     0.032 A 
ENDROOT
BRANCH   1  11
HETATM   11  N   UNL     1      27.072  45.039  52.825  1.00  0.00    -0.327 N 
HETATM   12  C   UNL     1      25.731  44.768  52.979  1.00  0.00     0.227 C 
HETATM   13  O   UNL     1      25.207  44.073  53.838  1.00  0.00    -0.273 OA
HETATM   14  H   UNL     1      27.322  45.652  52.063  1.00  0.00     0.169 HD
BRANCH  12  15
HETATM   15  C   UNL     1      24.835  45.468  52.015  1.00  0.00     0.087 A 
HETATM   16  C   UNL     1      24.454  44.837  50.685  1.00  0.00     0.032 A 
HETATM   17  C   UNL     1      25.273  46.108  50.728  1.00  0.00     0.025 A 
BRANCH  16  18
HETATM   18  C   UNL     1      25.095  43.582  50.134  1.00  0.00    -0.053 A 
HETATM   19  C   UNL     1      24.397  42.366  50.053  1.00  0.00     0.009 A 
HETATM   20  C   UNL     1      24.991  41.215  49.523  1.00  0.00     0.024 A 
HETATM   21  C   UNL     1      26.295  41.268  49.044  1.00  0.00     0.034 A 
HETATM   22  C   UNL     1      27.008  42.462  49.090  1.00  0.00     0.024 A 
HETATM   23 CL   UNL     1      27.028  39.858  48.385  1.00  0.00    -0.084 Cl
HETATM   24  C   UNL     1      26.408  43.605  49.627  1.00  0.00     0.009 A 
ENDBRANCH  16  18
ENDBRANCH  12  15
ENDBRANCH   1  11
BRANCH   8  25
HETATM   25  C   UNL     1      30.004  45.920  57.727  1.00  0.00     0.270 C 
HETATM   26  N   UNL     1      28.669  46.166  57.900  1.00  0.00    -0.365 N 
HETATM   27  H   UNL     1      28.002  45.616  57.372  1.00  0.00     0.159 HD
HETATM   28  H   UNL     1      28.373  46.887  58.539  1.00  0.00     0.159 HD
HETATM   29  O   UNL     1      30.850  46.560  58.342  1.00  0.00    -0.266 OA
ENDBRANCH   8  25
TORSDOF 4
ENDMDL
MODEL 9
REMARK VINA RESULT:      -8.1      8.317     11.098
REMARK  4 active torsions:
REMARK  status: ('A' for Active; 'I' for Inactive)
REMARK    1  A    between atoms: C_2  and  C_3 
REMARK    2  A    between atoms: C_4  and  C_5 
REMARK       I    between atoms: C_5  and  N_6 
REMARK    3  A    between atoms: N_6  and  C_7 
REMARK    4  A    between atoms: C_14  and  C_15 
REMARK       I    between atoms: C_15  and  N_16 
ROOT
HETATM    1  C   UNL     1      22.574  49.374  49.155  1.00  0.00     0.035 A 
HETATM    2  C   UNL     1      23.573  48.509  49.622  1.00  0.00     0.046 A 
HETATM    3  C   UNL     1      24.907  48.688  49.194  1.00  0.00     0.030 A 
HETATM    4  C   UNL     1      25.195  49.718  48.309  1.00  0.00     0.063 A 
HETATM    5  N   UNL     1      26.541  49.633  48.080  1.00  0.00    -0.277 N 
HETATM    6  H   UNL     1      27.099  50.229  47.479  1.00  0.00     0.189 HD
HETATM    7  N   UNL     1      27.157  48.640  48.741  1.00  0.00    -0.168 NA
HETATM    8  C   UNL     1      26.160  48.048  49.438  1.00  0.00     0.156 A 
HETATM    9  C   UNL     1      24.228  50.597  47.821  1.00  0.00     0.034 A 
HETATM   10  C   UNL     1      22.913  50.404  48.266  1.00  0.00     0.032 A 
ENDROOT
BRANCH   1  11
HETATM   11  N   UNL     1      21.217  49.280  49.531  1.00  0.00    -0.327 N 
HETATM   12  C   UNL     1      20.336  48.262  49.243  1.00  0.00     0.227 C 
HETATM   13  O   UNL     1      20.564  47.233  48.624  1.00  0.00    -0.273 OA
HETATM   14  H   UNL     1      20.852  50.051  50.071  1.00  0.00     0.169 HD
BRANCH  12  15
HETATM   15  C   UNL     1      18.972  48.432  49.821  1.00  0.00     0.087 A 
HETATM   16  C   UNL     1      17.801  48.895  48.967  1.00  0.00     0.032 A 
HETATM   17  C   UNL     1      18.307  49.749  50.109  1.00  0.00     0.025 A 
BRANCH  16  18
HETATM   18  C   UNL     1      17.944  49.418  47.555  1.00  0.00    -0.053 A 
HETATM   19  C   UNL     1      18.171  50.777  47.286  1.00  0.00     0.009 A 
HETATM   20  C   UNL     1      18.324  51.250  45.978  1.00  0.00     0.024 A 
HETATM   21  C   UNL     1      18.270  50.360  44.911  1.00  0.00     0.034 A 
HETATM   22  C   UNL     1      18.067  49.004  45.143  1.00  0.00     0.024 A 
HETATM   23 CL   UNL     1      18.463  50.934  43.302  1.00  0.00    -0.084 Cl
HETATM   24  C   UNL     1      17.910  48.541  46.454  1.00  0.00     0.009 A 
ENDBRANCH  16  18
ENDBRANCH  12  15
ENDBRANCH   1  11
BRANCH   8  25
HETATM   25  C   UNL     1      26.423  46.896  50.311  1.00  0.00     0.270 C 
HETATM   26  N   UNL     1      26.972  45.820  49.667  1.00  0.00    -0.365 N 
HETATM   27  H   UNL     1      27.149  45.888  48.672  1.00  0.00     0.159 HD
HETATM   28  H   UNL     1      27.184  44.983  50.186  1.00  0.00     0.159 HD
HETATM   29  O   UNL     1      26.189  46.860  51.513  1.00  0.00    -0.266 OA
ENDBRANCH   8  25
TORSDOF 4
ENDMDL
MODEL 10
REMARK VINA RESULT:      -8.1      5.207      8.347
REMARK  4 active torsions:
REMARK  status: ('A' for Active; 'I' for Inactive)
REMARK    1  A    between atoms: C_2  and  C_3 
REMARK    2  A    between atoms: C_4  and  C_5 
REMARK       I    between atoms: C_5  and  N_6 
REMARK    3  A    between atoms: N_6  and  C_7 
REMARK    4  A    between atoms: C_14  and  C_15 
REMARK       I    between atoms: C_15  and  N_16 
ROOT
HETATM    1  C   UNL     1      25.666  47.353  50.092  1.00  0.00     0.035 A 
HETATM    2  C   UNL     1      24.354  47.592  49.664  1.00  0.00     0.046 A 
HETATM    3  C   UNL     1      24.085  48.691  48.818  1.00  0.00     0.030 A 
HETATM    4  C   UNL     1      25.134  49.516  48.436  1.00  0.00     0.063 A 
HETATM    5  N   UNL     1      24.570  50.475  47.640  1.00  0.00    -0.277 N 
HETATM    6  H   UNL     1      25.041  51.248  47.184  1.00  0.00     0.189 HD
HETATM    7  N   UNL     1      23.245  50.345  47.466  1.00  0.00    -0.168 NA
HETATM    8  C   UNL     1      22.930  49.244  48.186  1.00  0.00     0.156 A 
HETATM    9  C   UNL     1      26.453  49.311  48.843  1.00  0.00     0.034 A 
HETATM   10  C   UNL     1      26.695  48.211  49.676  1.00  0.00     0.032 A 
ENDROOT
BRANCH   1  11
HETATM   11  N   UNL     1      26.035  46.279  50.930  1.00  0.00    -0.327 N 
HETATM   12  C   UNL     1      26.907  45.253  50.643  1.00  0.00     0.227 C 
HETATM   13  O   UNL     1      27.547  45.086  49.615  1.00  0.00    -0.273 OA
HETATM   14  H   UNL     1      25.606  46.262  51.843  1.00  0.00     0.169 HD
BRANCH  12  15
HETATM   15  C   UNL     1      27.125  44.286  51.757  1.00  0.00     0.087 A 
HETATM   16  C   UNL     1      26.542  42.882  51.714  1.00  0.00     0.032 A 
HETATM   17  C   UNL     1      26.090  43.872  52.765  1.00  0.00     0.025 A 
BRANCH  16  18
HETATM   18  C   UNL     1      25.540  42.418  50.679  1.00  0.00    -0.053 A 
HETATM   19  C   UNL     1      25.874  41.475  49.693  1.00  0.00     0.009 A 
HETATM   20  C   UNL     1      24.935  41.035  48.753  1.00  0.00     0.024 A 
HETATM   21  C   UNL     1      23.633  41.521  48.797  1.00  0.00     0.034 A 
HETATM   22  C   UNL     1      23.264  42.441  49.774  1.00  0.00     0.024 A 
HETATM   23 CL   UNL     1      22.474  40.980  47.649  1.00  0.00    -0.084 Cl
HETATM   24  C   UNL     1      24.210  42.878  50.705  1.00  0.00     0.009 A 
ENDBRANCH  16  18
ENDBRANCH  12  15
ENDBRANCH   1  11
BRANCH   8  25
HETATM   25  C   UNL     1      21.547  48.750  48.254  1.00  0.00     0.270 C 
HETATM   26  N   UNL     1      21.038  48.688  49.522  1.00  0.00    -0.365 N 
HETATM   27  H   UNL     1      21.626  48.973  50.296  1.00  0.00     0.159 HD
HETATM   28  H   UNL     1      20.097  48.358  49.666  1.00  0.00     0.159 HD
HETATM   29  O   UNL     1      20.875  48.415  47.285  1.00  0.00    -0.266 OA
ENDBRANCH   8  25
TORSDOF 4
ENDMDL
