MODEL 1
REMARK VINA RESULT:      -9.1      0.000      0.000
REMARK  6 active torsions:
REMARK  status: ('A' for Active; 'I' for Inactive)
REMARK    1  A    between atoms: O_2  and  C_3 
REMARK    2  A    between atoms: C_6  and  C_7 
REMARK    3  A    between atoms: C_12  and  C_13 
REMARK       I    between atoms: C_13  and  N_14 
REMARK    4  A    between atoms: N_14  and  C_15 
REMARK    5  A    between atoms: C_17  and  O_18 
REMARK    6  A    between atoms: C_24  and  C_25 
ROOT
HETATM    1  C   UNL     1      26.195  44.360  54.150  1.00  0.00     0.118 C 
HETATM    2  N   UNL     1      25.859  45.735  53.799  1.00  0.00    -0.366 N 
HETATM    3  C   UNL     1      25.486  46.112  52.559  1.00  0.00     0.123 A 
HETATM    4  N   UNL     1      25.509  45.242  51.508  1.00  0.00    -0.240 N 
HETATM    5  N   UNL     1      25.032  45.755  50.358  1.00  0.00    -0.165 NA
HETATM    6  C   UNL     1      24.765  47.044  50.678  1.00  0.00     0.148 A 
HETATM    7  C   UNL     1      25.041  47.302  52.050  1.00  0.00     0.089 A 
HETATM    8  C   UNL     1      25.940  43.863  51.614  1.00  0.00     0.221 C 
HETATM    9  C   UNL     1      25.752  43.367  53.058  1.00  0.00     0.066 C 
HETATM   10  H   UNL     1      25.884  46.402  54.570  1.00  0.00     0.161 HD
ENDROOT
BRANCH   6  11
HETATM   11  C   UNL     1      24.242  48.006  49.691  1.00  0.00     0.276 C 
HETATM   12  N   UNL     1      22.870  48.143  49.784  1.00  0.00    -0.322 N 
HETATM   13  H   UNL     1      22.455  47.560  50.507  1.00  0.00     0.169 HD
HETATM   14  O   UNL     1      24.985  48.586  48.907  1.00  0.00    -0.266 OA
BRANCH  12  15
HETATM   15  C   UNL     1      22.019  48.962  49.021  1.00  0.00     0.037 A 
HETATM   16  C   UNL     1      21.105  48.474  48.085  1.00  0.00     0.066 A 
HETATM   17  C   UNL     1      20.301  49.364  47.372  1.00  0.00     0.067 A 
HETATM   18  C   UNL     1      20.392  50.735  47.575  1.00  0.00     0.036 A 
HETATM   19  C   UNL     1      21.301  51.229  48.508  1.00  0.00     0.005 A 
HETATM   20  C   UNL     1      22.111  50.345  49.227  1.00  0.00     0.029 A 
BRANCH  17  21
HETATM   21  O   UNL     1      19.397  48.918  46.451  1.00  0.00    -0.361 OA
HETATM   22  H   UNL     1      19.838  48.262  45.884  1.00  0.00     0.217 HD
ENDBRANCH  17  21
ENDBRANCH  12  15
ENDBRANCH   6  11
BRANCH   8  23
HETATM   23  C   UNL     1      27.348  43.720  51.082  1.00  0.00     0.409 C 
HETATM   24  F   UNL     1      27.940  42.555  51.397  1.00  0.00    -0.169 F 
HETATM   25  F   UNL     1      27.346  43.821  49.728  1.00  0.00    -0.169 F 
HETATM   26  F   UNL     1      28.150  44.714  51.532  1.00  0.00    -0.169 F 
ENDBRANCH   8  23
BRANCH   1  27
HETATM   27  C   UNL     1      27.639  44.207  54.595  1.00  0.00    -0.035 A 
HETATM   28  C   UNL     1      28.282  45.290  55.219  1.00  0.00     0.012 A 
HETATM   29  C   UNL     1      29.619  45.205  55.631  1.00  0.00     0.037 A 
HETATM   30  C   UNL     1      30.340  44.032  55.429  1.00  0.00     0.068 A 
HETATM   31  C   UNL     1      29.715  42.953  54.805  1.00  0.00     0.037 A 
HETATM   32  C   UNL     1      28.383  43.038  54.388  1.00  0.00     0.012 A 
BRANCH  30  33
HETATM   33  O   UNL     1      31.642  43.815  55.782  1.00  0.00    -0.356 OA
HETATM   34  C   UNL     1      31.881  43.339  57.100  1.00  0.00     0.210 C 
ENDBRANCH  30  33
ENDBRANCH   1  27
TORSDOF 6
ENDMDL
MODEL 2
REMARK VINA RESULT:      -9.0      4.424     11.102
REMARK  6 active torsions:
REMARK  status: ('A' for Active; 'I' for Inactive)
REMARK    1  A    between atoms: O_2  and  C_3 
REMARK    2  A    between atoms: C_6  and  C_7 
REMARK    3  A    between atoms: C_12  and  C_13 
REMARK       I    between atoms: C_13  and  N_14 
REMARK    4  A    between atoms: N_14  and  C_15 
REMARK    5  A    between atoms: C_17  and  O_18 
REMARK    6  A    between atoms: C_24  and  C_25 
ROOT
HETATM    1  C   UNL     1      19.275  50.933  47.354  1.00  0.00     0.118 C 
HETATM    2  N   UNL     1      20.508  51.068  48.121  1.00  0.00    -0.366 N 
HETATM    3  C   UNL     1      21.278  50.019  48.474  1.00  0.00     0.123 A 
HETATM    4  N   UNL     1      20.893  48.733  48.232  1.00  0.00    -0.240 N 
HETATM    5  N   UNL     1      21.811  47.809  48.573  1.00  0.00    -0.165 NA
HETATM    6  C   UNL     1      22.800  48.545  49.134  1.00  0.00     0.148 A 
HETATM    7  C   UNL     1      22.497  49.935  49.090  1.00  0.00     0.089 A 
HETATM    8  C   UNL     1      19.639  48.374  47.599  1.00  0.00     0.221 C 
HETATM    9  C   UNL     1      19.148  49.535  46.719  1.00  0.00     0.066 C 
HETATM   10  H   UNL     1      20.780  52.025  48.347  1.00  0.00     0.161 HD
ENDROOT
BRANCH   6  11
HETATM   11  C   UNL     1      24.018  47.928  49.690  1.00  0.00     0.276 C 
HETATM   12  N   UNL     1      23.859  46.571  49.897  1.00  0.00    -0.322 N 
HETATM   13  H   UNL     1      22.937  46.230  49.638  1.00  0.00     0.169 HD
HETATM   14  O   UNL     1      25.023  48.591  49.919  1.00  0.00    -0.266 OA
BRANCH  12  15
HETATM   15  C   UNL     1      24.791  45.648  50.405  1.00  0.00     0.037 A 
HETATM   16  C   UNL     1      24.681  45.046  51.661  1.00  0.00     0.066 A 
HETATM   17  C   UNL     1      25.656  44.141  52.082  1.00  0.00     0.067 A 
HETATM   18  C   UNL     1      26.740  43.826  51.275  1.00  0.00     0.036 A 
HETATM   19  C   UNL     1      26.856  44.422  50.021  1.00  0.00     0.005 A 
HETATM   20  C   UNL     1      25.884  45.329  49.589  1.00  0.00     0.029 A 
BRANCH  17  21
HETATM   21  O   UNL     1      25.577  43.536  53.303  1.00  0.00    -0.361 OA
HETATM   22  H   UNL     1      24.984  42.769  53.226  1.00  0.00     0.217 HD
ENDBRANCH  17  21
ENDBRANCH  12  15
ENDBRANCH   6  11
BRANCH   8  23
HETATM   23  C   UNL     1      18.647  47.919  48.644  1.00  0.00     0.409 C 
HETATM   24  F   UNL     1      17.364  47.962  48.243  1.00  0.00    -0.169 F 
HETATM   25  F   UNL     1      18.912  46.639  49.012  1.00  0.00    -0.169 F 
HETATM   26  F   UNL     1      18.741  48.662  49.773  1.00  0.00    -0.169 F 
ENDBRANCH   8  23
BRANCH   1  27
HETATM   27  C   UNL     1      18.052  51.389  48.129  1.00  0.00    -0.035 A 
HETATM   28  C   UNL     1      16.776  50.989  47.693  1.00  0.00     0.012 A 
HETATM   29  C   UNL     1      15.615  51.398  48.363  1.00  0.00     0.037 A 
HETATM   30  C   UNL     1      15.707  52.216  49.485  1.00  0.00     0.068 A 
HETATM   31  C   UNL     1      16.966  52.626  49.924  1.00  0.00     0.037 A 
HETATM   32  C   UNL     1      18.125  52.222  49.253  1.00  0.00     0.012 A 
BRANCH  30  33
HETATM   33  O   UNL     1      14.660  52.684  50.230  1.00  0.00    -0.356 OA
HETATM   34  C   UNL     1      14.887  53.865  50.988  1.00  0.00     0.210 C 
ENDBRANCH  30  33
ENDBRANCH   1  27
TORSDOF 6
ENDMDL
MODEL 3
REMARK VINA RESULT:      -8.8     17.882     19.261
REMARK  6 active torsions:
REMARK  status: ('A' for Active; 'I' for Inactive)
REMARK    1  A    between atoms: O_2  and  C_3 
REMARK    2  A    between atoms: C_6  and  C_7 
REMARK    3  A    between atoms: C_12  and  C_13 
REMARK       I    between atoms: C_13  and  N_14 
REMARK    4  A    between atoms: N_14  and  C_15 
REMARK    5  A    between atoms: C_17  and  O_18 
REMARK    6  A    between atoms: C_24  and  C_25 
ROOT
HETATM    1  C   UNL     1      37.816  42.688  62.904  1.00  0.00     0.118 C 
HETATM    2  N   UNL     1      36.891  43.302  63.849  1.00  0.00    -0.366 N 
HETATM    3  C   UNL     1      37.056  44.547  64.343  1.00  0.00     0.123 A 
HETATM    4  N   UNL     1      38.175  45.281  64.078  1.00  0.00    -0.240 N 
HETATM    5  N   UNL     1      38.147  46.529  64.581  1.00  0.00    -0.165 NA
HETATM    6  C   UNL     1      36.980  46.562  65.268  1.00  0.00     0.148 A 
HETATM    7  C   UNL     1      36.272  45.334  65.142  1.00  0.00     0.089 A 
HETATM    8  C   UNL     1      39.279  44.802  63.269  1.00  0.00     0.221 C 
HETATM    9  C   UNL     1      38.781  43.723  62.294  1.00  0.00     0.066 C 
HETATM   10  H   UNL     1      36.073  42.742  64.088  1.00  0.00     0.161 HD
ENDROOT
BRANCH   6  11
HETATM   11  C   UNL     1      36.546  47.754  66.021  1.00  0.00     0.276 C 
HETATM   12  N   UNL     1      37.537  48.715  66.077  1.00  0.00    -0.322 N 
HETATM   13  H   UNL     1      38.392  48.441  65.599  1.00  0.00     0.169 HD
HETATM   14  O   UNL     1      35.426  47.825  66.513  1.00  0.00    -0.266 OA
BRANCH  12  15
HETATM   15  C   UNL     1      37.498  49.976  66.697  1.00  0.00     0.037 A 
HETATM   16  C   UNL     1      37.754  51.177  66.031  1.00  0.00     0.066 A 
HETATM   17  C   UNL     1      37.692  52.384  66.730  1.00  0.00     0.067 A 
HETATM   18  C   UNL     1      37.380  52.415  68.082  1.00  0.00     0.036 A 
HETATM   19  C   UNL     1      37.122  51.222  68.752  1.00  0.00     0.005 A 
HETATM   20  C   UNL     1      37.181  50.008  68.062  1.00  0.00     0.029 A 
BRANCH  17  21
HETATM   21  O   UNL     1      37.937  53.574  66.108  1.00  0.00    -0.361 OA
HETATM   22  H   UNL     1      37.716  53.477  65.166  1.00  0.00     0.217 HD
ENDBRANCH  17  21
ENDBRANCH  12  15
ENDBRANCH   6  11
BRANCH   8  23
HETATM   23  C   UNL     1      40.417  44.362  64.160  1.00  0.00     0.409 C 
HETATM   24  F   UNL     1      40.030  43.907  65.365  1.00  0.00    -0.169 F 
HETATM   25  F   UNL     1      41.122  43.368  63.560  1.00  0.00    -0.169 F 
HETATM   26  F   UNL     1      41.296  45.370  64.375  1.00  0.00    -0.169 F 
ENDBRANCH   8  23
BRANCH   1  27
HETATM   27  C   UNL     1      38.492  41.451  63.469  1.00  0.00    -0.035 A 
HETATM   28  C   UNL     1      39.245  40.629  62.612  1.00  0.00     0.012 A 
HETATM   29  C   UNL     1      39.871  39.467  63.081  1.00  0.00     0.037 A 
HETATM   30  C   UNL     1      39.759  39.103  64.420  1.00  0.00     0.068 A 
HETATM   31  C   UNL     1      39.009  39.906  65.279  1.00  0.00     0.037 A 
HETATM   32  C   UNL     1      38.379  41.064  64.811  1.00  0.00     0.012 A 
BRANCH  30  33
HETATM   33  O   UNL     1      40.318  38.002  65.006  1.00  0.00    -0.356 OA
HETATM   34  C   UNL     1      41.515  37.501  64.426  1.00  0.00     0.210 C 
ENDBRANCH  30  33
ENDBRANCH   1  27
TORSDOF 6
ENDMDL
MODEL 4
REMARK VINA RESULT:      -8.6     13.342     16.134
REMARK  6 active torsions:
REMARK  status: ('A' for Active; 'I' for Inactive)
REMARK    1  A    between atoms: O_2  and  C_3 
REMARK    2  A    between atoms: C_6  and  C_7 
REMARK    3  A    between atoms: C_12  and  C_13 
REMARK       I    between atoms: C_13  and  N_14 
REMARK    4  A    between atoms: N_14  and  C_15 
REMARK    5  A    between atoms: C_17  and  O_18 
REMARK    6  A    between atoms: C_24  and  C_25 
ROOT
HETATM    1  C   UNL     1      32.021  49.070  41.381  1.00  0.00     0.118 C 
HETATM    2  N   UNL     1      33.348  49.539  41.000  1.00  0.00    -0.366 N 
HETATM    3  C   UNL     1      34.065  50.408  41.741  1.00  0.00     0.123 A 
HETATM    4  N   UNL     1      33.544  51.003  42.854  1.00  0.00    -0.240 N 
HETATM    5  N   UNL     1      34.417  51.781  43.522  1.00  0.00    -0.165 NA
HETATM    6  C   UNL     1      35.528  51.739  42.748  1.00  0.00     0.148 A 
HETATM    7  C   UNL     1      35.341  50.889  41.622  1.00  0.00     0.089 A 
HETATM    8  C   UNL     1      32.194  50.776  43.330  1.00  0.00     0.221 C 
HETATM    9  C   UNL     1      31.696  49.403  42.850  1.00  0.00     0.066 C 
HETATM   10  H   UNL     1      33.727  49.134  40.145  1.00  0.00     0.161 HD
ENDROOT
BRANCH   6  11
HETATM   11  C   UNL     1      36.751  52.489  43.090  1.00  0.00     0.276 C 
HETATM   12  N   UNL     1      36.819  52.774  44.441  1.00  0.00    -0.322 N 
HETATM   13  H   UNL     1      36.020  52.426  44.966  1.00  0.00     0.169 HD
HETATM   14  O   UNL     1      37.573  52.795  42.234  1.00  0.00    -0.266 OA
BRANCH  12  15
HETATM   15  C   UNL     1      37.825  53.463  45.140  1.00  0.00     0.037 A 
HETATM   16  C   UNL     1      37.830  54.847  45.329  1.00  0.00     0.066 A 
HETATM   17  C   UNL     1      38.873  55.446  46.037  1.00  0.00     0.067 A 
HETATM   18  C   UNL     1      39.913  54.689  46.560  1.00  0.00     0.036 A 
HETATM   19  C   UNL     1      39.914  53.309  46.376  1.00  0.00     0.005 A 
HETATM   20  C   UNL     1      38.874  52.699  45.668  1.00  0.00     0.029 A 
BRANCH  17  21
HETATM   21  O   UNL     1      38.907  56.795  46.239  1.00  0.00    -0.361 OA
HETATM   22  H   UNL     1      39.815  57.105  46.082  1.00  0.00     0.217 HD
ENDBRANCH  17  21
ENDBRANCH  12  15
ENDBRANCH   6  11
BRANCH   8  23
HETATM   23  C   UNL     1      31.308  51.936  42.938  1.00  0.00     0.409 C 
HETATM   24  F   UNL     1      30.070  51.578  42.555  1.00  0.00    -0.169 F 
HETATM   25  F   UNL     1      31.177  52.795  43.981  1.00  0.00    -0.169 F 
HETATM   26  F   UNL     1      31.851  52.653  41.925  1.00  0.00    -0.169 F 
ENDBRANCH   8  23
BRANCH   1  27
HETATM   27  C   UNL     1      30.949  49.481  40.387  1.00  0.00    -0.035 A 
HETATM   28  C   UNL     1      31.261  50.424  39.393  1.00  0.00     0.012 A 
HETATM   29  C   UNL     1      30.301  50.850  38.465  1.00  0.00     0.037 A 
HETATM   30  C   UNL     1      29.008  50.339  38.511  1.00  0.00     0.068 A 
HETATM   31  C   UNL     1      28.683  49.407  39.497  1.00  0.00     0.037 A 
HETATM   32  C   UNL     1      29.639  48.985  40.427  1.00  0.00     0.012 A 
BRANCH  30  33
HETATM   33  O   UNL     1      27.981  50.665  37.670  1.00  0.00    -0.356 OA
HETATM   34  C   UNL     1      26.665  50.350  38.107  1.00  0.00     0.210 C 
ENDBRANCH  30  33
ENDBRANCH   1  27
TORSDOF 6
ENDMDL
MODEL 5
REMARK VINA RESULT:      -8.4      6.147      9.908
REMARK  6 active torsions:
REMARK  status: ('A' for Active; 'I' for Inactive)
REMARK    1  A    between atoms: O_2  and  C_3 
REMARK    2  A    between atoms: C_6  and  C_7 
REMARK    3  A    between atoms: C_12  and  C_13 
REMARK       I    between atoms: C_13  and  N_14 
REMARK    4  A    between atoms: N_14  and  C_15 
REMARK    5  A    between atoms: C_17  and  O_18 
REMARK    6  A    between atoms: C_24  and  C_25 
ROOT
HETATM    1  C   UNL     1      28.098  38.934  48.881  1.00  0.00     0.118 C 
HETATM    2  N   UNL     1      28.910  39.767  49.761  1.00  0.00    -0.366 N 
HETATM    3  C   UNL     1      28.395  40.490  50.777  1.00  0.00     0.123 A 
HETATM    4  N   UNL     1      27.048  40.583  50.980  1.00  0.00    -0.240 N 
HETATM    5  N   UNL     1      26.705  41.277  52.082  1.00  0.00    -0.165 NA
HETATM    6  C   UNL     1      27.895  41.714  52.559  1.00  0.00     0.148 A 
HETATM    7  C   UNL     1      28.975  41.241  51.763  1.00  0.00     0.089 A 
HETATM    8  C   UNL     1      26.061  39.940  50.137  1.00  0.00     0.221 C 
HETATM    9  C   UNL     1      26.682  38.714  49.447  1.00  0.00     0.066 C 
HETATM   10  H   UNL     1      29.914  39.739  49.587  1.00  0.00     0.161 HD
ENDROOT
BRANCH   6  11
HETATM   11  C   UNL     1      27.995  42.558  53.764  1.00  0.00     0.276 C 
HETATM   12  N   UNL     1      29.301  42.921  54.030  1.00  0.00    -0.322 N 
HETATM   13  H   UNL     1      29.968  42.545  53.360  1.00  0.00     0.169 HD
HETATM   14  O   UNL     1      27.001  42.869  54.411  1.00  0.00    -0.266 OA
BRANCH  12  15
HETATM   15  C   UNL     1      29.791  43.717  55.080  1.00  0.00     0.037 A 
HETATM   16  C   UNL     1      30.771  43.294  55.982  1.00  0.00     0.066 A 
HETATM   17  C   UNL     1      31.196  44.154  56.996  1.00  0.00     0.067 A 
HETATM   18  C   UNL     1      30.661  45.429  57.128  1.00  0.00     0.036 A 
HETATM   19  C   UNL     1      29.685  45.856  56.232  1.00  0.00     0.005 A 
HETATM   20  C   UNL     1      29.252  45.003  55.213  1.00  0.00     0.029 A 
BRANCH  17  21
HETATM   21  O   UNL     1      32.152  43.772  57.892  1.00  0.00    -0.361 OA
HETATM   22  H   UNL     1      32.792  44.499  57.985  1.00  0.00     0.217 HD
ENDBRANCH  17  21
ENDBRANCH  12  15
ENDBRANCH   6  11
BRANCH   8  23
HETATM   23  C   UNL     1      25.456  40.951  49.190  1.00  0.00     0.409 C 
HETATM   24  F   UNL     1      24.326  41.522  49.642  1.00  0.00    -0.169 F 
HETATM   25  F   UNL     1      26.344  41.949  48.945  1.00  0.00    -0.169 F 
HETATM   26  F   UNL     1      25.173  40.395  47.987  1.00  0.00    -0.169 F 
ENDBRANCH   8  23
BRANCH   1  27
HETATM   27  C   UNL     1      28.136  39.401  47.437  1.00  0.00    -0.035 A 
HETATM   28  C   UNL     1      27.915  38.468  46.409  1.00  0.00     0.012 A 
HETATM   29  C   UNL     1      27.959  38.845  45.060  1.00  0.00     0.037 A 
HETATM   30  C   UNL     1      28.223  40.167  44.711  1.00  0.00     0.068 A 
HETATM   31  C   UNL     1      28.450  41.101  45.722  1.00  0.00     0.037 A 
HETATM   32  C   UNL     1      28.412  40.724  47.068  1.00  0.00     0.012 A 
BRANCH  30  33
HETATM   33  O   UNL     1      28.291  40.668  43.441  1.00  0.00    -0.356 OA
HETATM   34  C   UNL     1      29.571  40.684  42.823  1.00  0.00     0.210 C 
ENDBRANCH  30  33
ENDBRANCH   1  27
TORSDOF 6
ENDMDL
MODEL 6
REMARK VINA RESULT:      -8.3      5.892     10.089
REMARK  6 active torsions:
REMARK  status: ('A' for Active; 'I' for Inactive)
REMARK    1  A    between atoms: O_2  and  C_3 
REMARK    2  A    between atoms: C_6  and  C_7 
REMARK    3  A    between atoms: C_12  and  C_13 
REMARK       I    between atoms: C_13  and  N_14 
REMARK    4  A    between atoms: N_14  and  C_15 
REMARK    5  A    between atoms: C_17  and  O_18 
REMARK    6  A    between atoms: C_24  and  C_25 
ROOT
HETATM    1  C   UNL     1      27.103  41.309  47.560  1.00  0.00     0.118 C 
HETATM    2  N   UNL     1      26.680  42.144  48.678  1.00  0.00    -0.366 N 
HETATM    3  C   UNL     1      27.179  42.019  49.925  1.00  0.00     0.123 A 
HETATM    4  N   UNL     1      28.040  41.013  50.255  1.00  0.00    -0.240 N 
HETATM    5  N   UNL     1      28.505  41.078  51.517  1.00  0.00    -0.165 NA
HETATM    6  C   UNL     1      27.842  42.137  52.039  1.00  0.00     0.148 A 
HETATM    7  C   UNL     1      27.000  42.749  51.069  1.00  0.00     0.089 A 
HETATM    8  C   UNL     1      28.483  39.995  49.323  1.00  0.00     0.221 C 
HETATM    9  C   UNL     1      28.392  40.529  47.885  1.00  0.00     0.066 C 
HETATM   10  H   UNL     1      26.002  42.870  48.450  1.00  0.00     0.161 HD
ENDROOT
BRANCH   6  11
HETATM   11  C   UNL     1      28.023  42.564  53.439  1.00  0.00     0.276 C 
HETATM   12  N   UNL     1      29.188  43.286  53.611  1.00  0.00    -0.322 N 
HETATM   13  H   UNL     1      29.722  43.397  52.752  1.00  0.00     0.169 HD
HETATM   14  O   UNL     1      27.201  42.281  54.305  1.00  0.00    -0.266 OA
BRANCH  12  15
HETATM   15  C   UNL     1      29.697  43.858  54.789  1.00  0.00     0.037 A 
HETATM   16  C   UNL     1      30.713  43.282  55.556  1.00  0.00     0.066 A 
HETATM   17  C   UNL     1      31.155  43.923  56.714  1.00  0.00     0.067 A 
HETATM   18  C   UNL     1      30.602  45.129  57.123  1.00  0.00     0.036 A 
HETATM   19  C   UNL     1      29.590  45.710  56.363  1.00  0.00     0.005 A 
HETATM   20  C   UNL     1      29.140  45.076  55.201  1.00  0.00     0.029 A 
BRANCH  17  21
HETATM   21  O   UNL     1      32.146  43.387  57.484  1.00  0.00    -0.361 OA
HETATM   22  H   UNL     1      31.790  43.233  58.376  1.00  0.00     0.217 HD
ENDBRANCH  17  21
ENDBRANCH  12  15
ENDBRANCH   6  11
BRANCH   8  23
HETATM   23  C   UNL     1      27.722  38.711  49.564  1.00  0.00     0.409 C 
HETATM   24  F   UNL     1      27.542  37.963  48.462  1.00  0.00    -0.169 F 
HETATM   25  F   UNL     1      28.379  37.943  50.471  1.00  0.00    -0.169 F 
HETATM   26  F   UNL     1      26.498  38.953  50.091  1.00  0.00    -0.169 F 
ENDBRANCH   8  23
BRANCH   1  27
HETATM   27  C   UNL     1      25.973  40.460  47.006  1.00  0.00    -0.035 A 
HETATM   28  C   UNL     1      26.228  39.603  45.921  1.00  0.00     0.012 A 
HETATM   29  C   UNL     1      25.215  38.813  45.361  1.00  0.00     0.037 A 
HETATM   30  C   UNL     1      23.923  38.863  45.878  1.00  0.00     0.068 A 
HETATM   31  C   UNL     1      23.655  39.714  46.950  1.00  0.00     0.037 A 
HETATM   32  C   UNL     1      24.665  40.506  47.506  1.00  0.00     0.012 A 
BRANCH  30  33
HETATM   33  O   UNL     1      22.847  38.148  45.431  1.00  0.00    -0.356 OA
HETATM   34  C   UNL     1      22.037  37.520  46.417  1.00  0.00     0.210 C 
ENDBRANCH  30  33
ENDBRANCH   1  27
TORSDOF 6
ENDMDL
MODEL 7
REMARK VINA RESULT:      -8.3      4.927     11.678
REMARK  6 active torsions:
REMARK  status: ('A' for Active; 'I' for Inactive)
REMARK    1  A    between atoms: O_2  and  C_3 
REMARK    2  A    between atoms: C_6  and  C_7 
REMARK    3  A    between atoms: C_12  and  C_13 
REMARK       I    between atoms: C_13  and  N_14 
REMARK    4  A    between atoms: N_14  and  C_15 
REMARK    5  A    between atoms: C_17  and  O_18 
REMARK    6  A    between atoms: C_24  and  C_25 
ROOT
HETATM    1  C   UNL     1      17.626  49.693  48.991  1.00  0.00     0.118 C 
HETATM    2  N   UNL     1      18.144  48.430  48.476  1.00  0.00    -0.366 N 
HETATM    3  C   UNL     1      19.438  48.065  48.577  1.00  0.00     0.123 A 
HETATM    4  N   UNL     1      20.385  48.913  49.073  1.00  0.00    -0.240 N 
HETATM    5  N   UNL     1      21.612  48.366  49.180  1.00  0.00    -0.165 NA
HETATM    6  C   UNL     1      21.449  47.130  48.651  1.00  0.00     0.148 A 
HETATM    7  C   UNL     1      20.099  46.909  48.260  1.00  0.00     0.089 A 
HETATM    8  C   UNL     1      20.104  50.264  49.516  1.00  0.00     0.221 C 
HETATM    9  C   UNL     1      18.630  50.378  49.939  1.00  0.00     0.066 C 
HETATM   10  H   UNL     1      17.449  47.809  48.062  1.00  0.00     0.161 HD
ENDROOT
BRANCH   6  11
HETATM   11  C   UNL     1      22.565  46.174  48.534  1.00  0.00     0.276 C 
HETATM   12  N   UNL     1      23.330  46.133  49.685  1.00  0.00    -0.322 N 
HETATM   13  H   UNL     1      23.000  46.766  50.409  1.00  0.00     0.169 HD
HETATM   14  O   UNL     1      22.743  45.520  47.512  1.00  0.00    -0.266 OA
BRANCH  12  15
HETATM   15  C   UNL     1      24.465  45.348  49.953  1.00  0.00     0.037 A 
HETATM   16  C   UNL     1      24.413  44.084  50.544  1.00  0.00     0.066 A 
HETATM   17  C   UNL     1      25.594  43.377  50.773  1.00  0.00     0.067 A 
HETATM   18  C   UNL     1      26.828  43.909  50.425  1.00  0.00     0.036 A 
HETATM   19  C   UNL     1      26.888  45.169  49.834  1.00  0.00     0.005 A 
HETATM   20  C   UNL     1      25.710  45.885  49.600  1.00  0.00     0.029 A 
BRANCH  17  21
HETATM   21  O   UNL     1      25.576  42.139  51.348  1.00  0.00    -0.361 OA
HETATM   22  H   UNL     1      25.235  41.504  50.696  1.00  0.00     0.217 HD
ENDBRANCH  17  21
ENDBRANCH  12  15
ENDBRANCH   6  11
BRANCH   8  23
HETATM   23  C   UNL     1      20.529  51.253  48.456  1.00  0.00     0.409 C 
HETATM   24  F   UNL     1      20.388  50.804  47.196  1.00  0.00    -0.169 F 
HETATM   25  F   UNL     1      19.799  52.393  48.563  1.00  0.00    -0.169 F 
HETATM   26  F   UNL     1      21.824  51.618  48.610  1.00  0.00    -0.169 F 
ENDBRANCH   8  23
BRANCH   1  27
HETATM   27  C   UNL     1      17.078  50.590  47.896  1.00  0.00    -0.035 A 
HETATM   28  C   UNL     1      16.259  51.678  48.246  1.00  0.00     0.012 A 
HETATM   29  C   UNL     1      15.713  52.523  47.271  1.00  0.00     0.037 A 
HETATM   30  C   UNL     1      15.978  52.299  45.923  1.00  0.00     0.068 A 
HETATM   31  C   UNL     1      16.784  51.220  45.562  1.00  0.00     0.037 A 
HETATM   32  C   UNL     1      17.325  50.372  46.534  1.00  0.00     0.012 A 
BRANCH  30  33
HETATM   33  O   UNL     1      15.515  53.045  44.875  1.00  0.00    -0.356 OA
HETATM   34  C   UNL     1      14.617  54.103  45.185  1.00  0.00     0.210 C 
ENDBRANCH  30  33
ENDBRANCH   1  27
TORSDOF 6
ENDMDL
MODEL 8
REMARK VINA RESULT:      -8.2     12.051     13.628
REMARK  6 active torsions:
REMARK  status: ('A' for Active; 'I' for Inactive)
REMARK    1  A    between atoms: O_2  and  C_3 
REMARK    2  A    between atoms: C_6  and  C_7 
REMARK    3  A    between atoms: C_12  and  C_13 
REMARK       I    between atoms: C_13  and  N_14 
REMARK    4  A    between atoms: N_14  and  C_15 
REMARK    5  A    between atoms: C_17  and  O_18 
REMARK    6  A    between atoms: C_24  and  C_25 
ROOT
HETATM    1  C   UNL     1      31.258  49.909  39.034  1.00  0.00     0.118 C 
HETATM    2  N   UNL     1      30.092  49.074  39.296  1.00  0.00    -0.366 N 
HETATM    3  C   UNL     1      28.841  49.412  38.920  1.00  0.00     0.123 A 
HETATM    4  N   UNL     1      28.563  50.626  38.364  1.00  0.00    -0.240 N 
HETATM    5  N   UNL     1      27.283  50.773  37.974  1.00  0.00    -0.165 NA
HETATM    6  C   UNL     1      26.700  49.619  38.376  1.00  0.00     0.148 A 
HETATM    7  C   UNL     1      27.648  48.743  38.975  1.00  0.00     0.089 A 
HETATM    8  C   UNL     1      29.559  51.656  38.140  1.00  0.00     0.221 C 
HETATM    9  C   UNL     1      30.950  51.015  38.008  1.00  0.00     0.066 C 
HETATM   10  H   UNL     1      30.285  48.183  39.754  1.00  0.00     0.161 HD
ENDROOT
BRANCH   6  11
HETATM   11  C   UNL     1      25.263  49.354  38.176  1.00  0.00     0.276 C 
HETATM   12  N   UNL     1      24.504  49.812  39.236  1.00  0.00    -0.322 N 
HETATM   13  H   UNL     1      25.058  50.246  39.970  1.00  0.00     0.169 HD
HETATM   14  O   UNL     1      24.851  48.791  37.168  1.00  0.00    -0.266 OA
BRANCH  12  15
HETATM   15  C   UNL     1      23.110  49.746  39.406  1.00  0.00     0.037 A 
HETATM   16  C   UNL     1      22.222  50.709  38.922  1.00  0.00     0.066 A 
HETATM   17  C   UNL     1      20.852  50.560  39.139  1.00  0.00     0.067 A 
HETATM   18  C   UNL     1      20.349  49.467  39.834  1.00  0.00     0.036 A 
HETATM   19  C   UNL     1      21.229  48.503  40.319  1.00  0.00     0.005 A 
HETATM   20  C   UNL     1      22.604  48.642  40.106  1.00  0.00     0.029 A 
BRANCH  17  21
HETATM   21  O   UNL     1      19.958  51.483  38.678  1.00  0.00    -0.361 OA
HETATM   22  H   UNL     1      19.120  51.362  39.156  1.00  0.00     0.217 HD
ENDBRANCH  17  21
ENDBRANCH  12  15
ENDBRANCH   6  11
BRANCH   8  23
HETATM   23  C   UNL     1      29.456  52.713  39.215  1.00  0.00     0.409 C 
HETATM   24  F   UNL     1      30.643  53.161  39.661  1.00  0.00    -0.169 F 
HETATM   25  F   UNL     1      28.768  53.787  38.748  1.00  0.00    -0.169 F 
HETATM   26  F   UNL     1      28.766  52.262  40.289  1.00  0.00    -0.169 F 
ENDBRANCH   8  23
BRANCH   1  27
HETATM   27  C   UNL     1      31.925  50.396  40.308  1.00  0.00    -0.035 A 
HETATM   28  C   UNL     1      33.217  50.948  40.238  1.00  0.00     0.012 A 
HETATM   29  C   UNL     1      33.882  51.394  41.387  1.00  0.00     0.037 A 
HETATM   30  C   UNL     1      33.268  51.300  42.633  1.00  0.00     0.068 A 
HETATM   31  C   UNL     1      31.989  50.749  42.717  1.00  0.00     0.037 A 
HETATM   32  C   UNL     1      31.327  50.298  41.571  1.00  0.00     0.012 A 
BRANCH  30  33
HETATM   33  O   UNL     1      33.801  51.698  43.827  1.00  0.00    -0.356 OA
HETATM   34  C   UNL     1      32.887  51.955  44.886  1.00  0.00     0.210 C 
ENDBRANCH  30  33
ENDBRANCH   1  27
TORSDOF 6
ENDMDL
MODEL 9
REMARK VINA RESULT:      -8.0     17.957     20.868
REMARK  6 active torsions:
REMARK  status: ('A' for Active; 'I' for Inactive)
REMARK    1  A    between atoms: O_2  and  C_3 
REMARK    2  A    between atoms: C_6  and  C_7 
REMARK    3  A    between atoms: C_12  and  C_13 
REMARK       I    between atoms: C_13  and  N_14 
REMARK    4  A    between atoms: N_14  and  C_15 
REMARK    5  A    between atoms: C_17  and  O_18 
REMARK    6  A    between atoms: C_24  and  C_25 
ROOT
HETATM    1  C   UNL     1      37.021  46.158  63.951  1.00  0.00     0.118 C 
HETATM    2  N   UNL     1      37.955  45.301  63.229  1.00  0.00    -0.366 N 
HETATM    3  C   UNL     1      38.203  44.021  63.576  1.00  0.00     0.123 A 
HETATM    4  N   UNL     1      37.677  43.470  64.708  1.00  0.00    -0.240 N 
HETATM    5  N   UNL     1      37.957  42.162  64.866  1.00  0.00    -0.165 NA
HETATM    6  C   UNL     1      38.770  41.889  63.817  1.00  0.00     0.148 A 
HETATM    7  C   UNL     1      38.947  43.033  62.990  1.00  0.00     0.089 A 
HETATM    8  C   UNL     1      36.831  44.193  65.637  1.00  0.00     0.221 C 
HETATM    9  C   UNL     1      36.126  45.349  64.909  1.00  0.00     0.066 C 
HETATM   10  H   UNL     1      38.388  45.720  62.407  1.00  0.00     0.161 HD
ENDROOT
BRANCH   6  11
HETATM   11  C   UNL     1      39.355  40.552  63.605  1.00  0.00     0.276 C 
HETATM   12  N   UNL     1      39.804  39.994  64.787  1.00  0.00    -0.322 N 
HETATM   13  H   UNL     1      39.661  40.595  65.595  1.00  0.00     0.169 HD
HETATM   14  O   UNL     1      39.407  40.047  62.489  1.00  0.00    -0.266 OA
BRANCH  12  15
HETATM   15  C   UNL     1      40.412  38.743  64.987  1.00  0.00     0.037 A 
HETATM   16  C   UNL     1      41.441  38.243  64.186  1.00  0.00     0.066 A 
HETATM   17  C   UNL     1      41.985  36.987  64.461  1.00  0.00     0.067 A 
HETATM   18  C   UNL     1      41.519  36.219  65.520  1.00  0.00     0.036 A 
HETATM   19  C   UNL     1      40.494  36.712  66.323  1.00  0.00     0.005 A 
HETATM   20  C   UNL     1      39.943  37.969  66.057  1.00  0.00     0.029 A 
BRANCH  17  21
HETATM   21  O   UNL     1      42.992  36.471  63.698  1.00  0.00    -0.361 OA
HETATM   22  H   UNL     1      42.636  36.276  62.814  1.00  0.00     0.217 HD
ENDBRANCH  17  21
ENDBRANCH  12  15
ENDBRANCH   6  11
BRANCH   8  23
HETATM   23  C   UNL     1      37.634  44.613  66.846  1.00  0.00     0.409 C 
HETATM   24  F   UNL     1      38.956  44.715  66.621  1.00  0.00    -0.169 F 
HETATM   25  F   UNL     1      37.205  45.821  67.294  1.00  0.00    -0.169 F 
HETATM   26  F   UNL     1      37.467  43.749  67.876  1.00  0.00    -0.169 F 
ENDBRANCH   8  23
BRANCH   1  27
HETATM   27  C   UNL     1      37.701  47.359  64.584  1.00  0.00    -0.035 A 
HETATM   28  C   UNL     1      39.087  47.318  64.817  1.00  0.00     0.012 A 
HETATM   29  C   UNL     1      39.758  48.392  65.417  1.00  0.00     0.037 A 
HETATM   30  C   UNL     1      39.055  49.533  65.794  1.00  0.00     0.068 A 
HETATM   31  C   UNL     1      37.678  49.583  65.575  1.00  0.00     0.037 A 
HETATM   32  C   UNL     1      37.008  48.509  64.982  1.00  0.00     0.012 A 
BRANCH  30  33
HETATM   33  O   UNL     1      39.583  50.648  66.383  1.00  0.00    -0.356 OA
HETATM   34  C   UNL     1      38.722  51.400  67.228  1.00  0.00     0.210 C 
ENDBRANCH  30  33
ENDBRANCH   1  27
TORSDOF 6
ENDMDL
MODEL 10
REMARK VINA RESULT:      -8.0      6.689     10.172
REMARK  6 active torsions:
REMARK  status: ('A' for Active; 'I' for Inactive)
REMARK    1  A    between atoms: O_2  and  C_3 
REMARK    2  A    between atoms: C_6  and  C_7 
REMARK    3  A    between atoms: C_12  and  C_13 
REMARK       I    between atoms: C_13  and  N_14 
REMARK    4  A    between atoms: N_14  and  C_15 
REMARK    5  A    between atoms: C_17  and  O_18 
REMARK    6  A    between atoms: C_24  and  C_25 
ROOT
HETATM    1  C   UNL     1      26.588  39.384  47.485  1.00  0.00     0.118 C 
HETATM    2  N   UNL     1      26.036  39.757  48.782  1.00  0.00    -0.366 N 
HETATM    3  C   UNL     1      26.791  40.208  49.804  1.00  0.00     0.123 A 
HETATM    4  N   UNL     1      28.154  40.238  49.731  1.00  0.00    -0.240 N 
HETATM    5  N   UNL     1      28.751  40.791  50.805  1.00  0.00    -0.165 NA
HETATM    6  C   UNL     1      27.715  41.053  51.637  1.00  0.00     0.148 A 
HETATM    7  C   UNL     1      26.472  40.698  51.042  1.00  0.00     0.089 A 
HETATM    8  C   UNL     1      28.908  39.785  48.579  1.00  0.00     0.221 C 
HETATM    9  C   UNL     1      28.037  39.880  47.316  1.00  0.00     0.066 C 
HETATM   10  H   UNL     1      25.022  39.694  48.861  1.00  0.00     0.161 HD
ENDROOT
BRANCH   6  11
HETATM   11  C   UNL     1      27.913  41.646  52.972  1.00  0.00     0.276 C 
HETATM   12  N   UNL     1      28.815  42.693  52.942  1.00  0.00    -0.322 N 
HETATM   13  H   UNL     1      29.191  42.873  52.014  1.00  0.00     0.169 HD
HETATM   14  O   UNL     1      27.318  41.220  53.956  1.00  0.00    -0.266 OA
BRANCH  12  15
HETATM   15  C   UNL     1      29.254  43.500  54.005  1.00  0.00     0.037 A 
HETATM   16  C   UNL     1      28.592  44.656  54.427  1.00  0.00     0.066 A 
HETATM   17  C   UNL     1      29.103  45.396  55.494  1.00  0.00     0.067 A 
HETATM   18  C   UNL     1      30.265  45.006  56.148  1.00  0.00     0.036 A 
HETATM   19  C   UNL     1      30.929  43.855  55.733  1.00  0.00     0.005 A 
HETATM   20  C   UNL     1      30.425  43.105  54.666  1.00  0.00     0.029 A 
BRANCH  17  21
HETATM   21  O   UNL     1      28.480  46.529  55.931  1.00  0.00    -0.361 OA
HETATM   22  H   UNL     1      29.146  47.103  56.346  1.00  0.00     0.217 HD
ENDBRANCH  17  21
ENDBRANCH  12  15
ENDBRANCH   6  11
BRANCH   8  23
HETATM   23  C   UNL     1      29.478  38.411  48.845  1.00  0.00     0.409 C 
HETATM   24  F   UNL     1      28.812  37.711  49.780  1.00  0.00    -0.169 F 
HETATM   25  F   UNL     1      29.468  37.674  47.704  1.00  0.00    -0.169 F 
HETATM   26  F   UNL     1      30.772  38.479  49.238  1.00  0.00    -0.169 F 
ENDBRANCH   8  23
BRANCH   1  27
HETATM   27  C   UNL     1      26.382  37.914  47.163  1.00  0.00    -0.035 A 
HETATM   28  C   UNL     1      26.454  37.489  45.825  1.00  0.00     0.012 A 
HETATM   29  C   UNL     1      26.252  36.147  45.475  1.00  0.00     0.037 A 
HETATM   30  C   UNL     1      25.975  35.201  46.458  1.00  0.00     0.068 A 
HETATM   31  C   UNL     1      25.895  35.612  47.789  1.00  0.00     0.037 A 
HETATM   32  C   UNL     1      26.091  36.952  48.138  1.00  0.00     0.012 A 
BRANCH  30  33
HETATM   33  O   UNL     1      25.761  33.866  46.256  1.00  0.00    -0.356 OA
HETATM   34  C   UNL     1      26.683  32.967  46.858  1.00  0.00     0.210 C 
ENDBRANCH  30  33
ENDBRANCH   1  27
TORSDOF 6
ENDMDL
