MODEL 1
REMARK VINA RESULT:      -8.7      0.000      0.000
REMARK  2 active torsions:
REMARK  status: ('A' for Active; 'I' for Inactive)
REMARK    1  A    between atoms: C_5  and  C_6 
REMARK    2  A    between atoms: C_15  and  C_16 
ROOT
HETATM    1  C   UNL     1      32.480  49.865  42.144  1.00  0.00     0.190 A 
HETATM    2  N   UNL     1      32.330  50.036  43.566  1.00  0.00    -0.308 N 
HETATM    3  C   UNL     1      32.441  51.353  43.941  1.00  0.00     0.320 A 
HETATM    4  O   UNL     1      32.437  51.759  45.088  1.00  0.00    -0.247 OA
HETATM    5  N   UNL     1      32.552  52.144  42.823  1.00  0.00    -0.308 N 
HETATM    6  N   UNL     1      33.803  49.351  41.899  1.00  0.00    -0.308 N 
HETATM    7  C   UNL     1      34.621  50.284  41.310  1.00  0.00     0.320 A 
HETATM    8  O   UNL     1      35.795  50.114  41.036  1.00  0.00    -0.247 OA
HETATM    9  N   UNL     1      33.912  51.435  41.070  1.00  0.00    -0.308 N 
HETATM   10  C   UNL     1      32.578  51.368  41.608  1.00  0.00     0.190 A 
HETATM   11  H   UNL     1      32.344  49.293  44.246  1.00  0.00     0.167 HD
HETATM   12  H   UNL     1      32.710  53.137  42.886  1.00  0.00     0.167 HD
HETATM   13  H   UNL     1      34.153  48.460  42.215  1.00  0.00     0.167 HD
HETATM   14  H   UNL     1      34.364  52.273  40.740  1.00  0.00     0.167 HD
ENDROOT
BRANCH   1  15
HETATM   15  C   UNL     1      31.398  48.974  41.552  1.00  0.00    -0.005 A 
HETATM   16  C   UNL     1      30.073  49.029  42.023  1.00  0.00     0.012 A 
HETATM   17  C   UNL     1      29.066  48.251  41.444  1.00  0.00     0.007 A 
HETATM   18  C   UNL     1      29.354  47.392  40.381  1.00  0.00    -0.062 A 
HETATM   19  C   UNL     1      28.273  46.584  39.728  1.00  0.00     0.048 C 
HETATM   20  C   UNL     1      30.663  47.334  39.895  1.00  0.00     0.007 A 
HETATM   21  C   UNL     1      31.670  48.114  40.471  1.00  0.00     0.012 A 
ENDBRANCH   1  15
BRANCH  10  22
HETATM   22  C   UNL     1      31.527  51.831  40.610  1.00  0.00    -0.005 A 
HETATM   23  C   UNL     1      30.410  52.583  41.020  1.00  0.00     0.012 A 
HETATM   24  C   UNL     1      29.418  52.962  40.111  1.00  0.00     0.007 A 
HETATM   25  C   UNL     1      29.511  52.598  38.765  1.00  0.00    -0.062 A 
HETATM   26  C   UNL     1      28.442  52.979  37.786  1.00  0.00     0.048 C 
HETATM   27  C   UNL     1      30.612  51.846  38.344  1.00  0.00     0.007 A 
HETATM   28  C   UNL     1      31.604  51.468  39.252  1.00  0.00     0.012 A 
ENDBRANCH  10  22
TORSDOF 2
ENDMDL
MODEL 2
REMARK VINA RESULT:      -8.7      0.028      4.530
REMARK  2 active torsions:
REMARK  status: ('A' for Active; 'I' for Inactive)
REMARK    1  A    between atoms: C_5  and  C_6 
REMARK    2  A    between atoms: C_15  and  C_16 
ROOT
HETATM    1  C   UNL     1      32.588  51.386  41.618  1.00  0.00     0.190 A 
HETATM    2  N   UNL     1      33.924  51.460  41.086  1.00  0.00    -0.308 N 
HETATM    3  C   UNL     1      34.638  50.311  41.327  1.00  0.00     0.320 A 
HETATM    4  O   UNL     1      35.814  50.146  41.058  1.00  0.00    -0.247 OA
HETATM    5  N   UNL     1      33.823  49.374  41.913  1.00  0.00    -0.308 N 
HETATM    6  N   UNL     1      32.553  52.160  42.833  1.00  0.00    -0.308 N 
HETATM    7  C   UNL     1      32.442  51.368  43.950  1.00  0.00     0.320 A 
HETATM    8  O   UNL     1      32.432  51.772  45.098  1.00  0.00    -0.247 OA
HETATM    9  N   UNL     1      32.338  50.051  43.574  1.00  0.00    -0.308 N 
HETATM   10  C   UNL     1      32.495  49.882  42.153  1.00  0.00     0.190 A 
HETATM   11  H   UNL     1      34.374  52.299  40.757  1.00  0.00     0.167 HD
HETATM   12  H   UNL     1      34.175  48.484  42.229  1.00  0.00     0.167 HD
HETATM   13  H   UNL     1      32.708  53.154  42.898  1.00  0.00     0.167 HD
HETATM   14  H   UNL     1      32.355  49.307  44.254  1.00  0.00     0.167 HD
ENDROOT
BRANCH   1  15
HETATM   15  C   UNL     1      31.540  51.843  40.614  1.00  0.00    -0.005 A 
HETATM   16  C   UNL     1      31.622  51.474  39.260  1.00  0.00     0.012 A 
HETATM   17  C   UNL     1      30.632  51.848  38.346  1.00  0.00     0.007 A 
HETATM   18  C   UNL     1      29.533  52.606  38.759  1.00  0.00    -0.062 A 
HETATM   19  C   UNL     1      28.447  52.977  37.795  1.00  0.00     0.048 C 
HETATM   20  C   UNL     1      29.432  52.971  40.104  1.00  0.00     0.007 A 
HETATM   21  C   UNL     1      30.421  52.595  41.018  1.00  0.00     0.012 A 
ENDBRANCH   1  15
BRANCH  10  22
HETATM   22  C   UNL     1      31.421  48.985  41.554  1.00  0.00    -0.005 A 
HETATM   23  C   UNL     1      31.704  48.124  40.478  1.00  0.00     0.012 A 
HETATM   24  C   UNL     1      30.706  47.340  39.894  1.00  0.00     0.007 A 
HETATM   25  C   UNL     1      29.391  47.397  40.367  1.00  0.00    -0.062 A 
HETATM   26  C   UNL     1      28.307  46.578  39.734  1.00  0.00     0.048 C 
HETATM   27  C   UNL     1      29.094  48.252  41.432  1.00  0.00     0.007 A 
HETATM   28  C   UNL     1      30.092  49.035  42.016  1.00  0.00     0.012 A 
ENDBRANCH  10  22
TORSDOF 2
ENDMDL
MODEL 3
REMARK VINA RESULT:      -8.2     11.212     13.638
REMARK  2 active torsions:
REMARK  status: ('A' for Active; 'I' for Inactive)
REMARK    1  A    between atoms: C_5  and  C_6 
REMARK    2  A    between atoms: C_15  and  C_16 
ROOT
HETATM    1  C   UNL     1      25.734  44.187  49.910  1.00  0.00     0.190 A 
HETATM    2  N   UNL     1      24.325  43.997  49.679  1.00  0.00    -0.308 N 
HETATM    3  C   UNL     1      23.739  43.244  50.667  1.00  0.00     0.320 A 
HETATM    4  O   UNL     1      22.581  42.868  50.669  1.00  0.00    -0.247 OA
HETATM    5  N   UNL     1      24.656  42.986  51.657  1.00  0.00    -0.308 N 
HETATM    6  N   UNL     1      26.450  43.299  49.030  1.00  0.00    -0.308 N 
HETATM    7  C   UNL     1      27.047  42.265  49.709  1.00  0.00     0.320 A 
HETATM    8  O   UNL     1      27.676  41.359  49.194  1.00  0.00    -0.247 OA
HETATM    9  N   UNL     1      26.832  42.413  51.057  1.00  0.00    -0.308 N 
HETATM   10  C   UNL     1      25.958  43.520  51.346  1.00  0.00     0.190 A 
HETATM   11  H   UNL     1      23.844  44.199  48.817  1.00  0.00     0.167 HD
HETATM   12  H   UNL     1      24.440  42.391  52.441  1.00  0.00     0.167 HD
HETATM   13  H   UNL     1      26.436  43.337  48.022  1.00  0.00     0.167 HD
HETATM   14  H   UNL     1      27.101  41.698  51.714  1.00  0.00     0.167 HD
ENDROOT
BRANCH   1  15
HETATM   15  C   UNL     1      26.158  45.638  49.732  1.00  0.00    -0.005 A 
HETATM   16  C   UNL     1      27.496  45.975  49.460  1.00  0.00     0.012 A 
HETATM   17  C   UNL     1      27.879  47.303  49.242  1.00  0.00     0.007 A 
HETATM   18  C   UNL     1      26.936  48.332  49.296  1.00  0.00    -0.062 A 
HETATM   19  C   UNL     1      27.329  49.753  49.025  1.00  0.00     0.048 C 
HETATM   20  C   UNL     1      25.601  48.011  49.556  1.00  0.00     0.007 A 
HETATM   21  C   UNL     1      25.217  46.684  49.770  1.00  0.00     0.012 A 
ENDBRANCH   1  15
BRANCH  10  22
HETATM   22  C   UNL     1      26.495  44.407  52.460  1.00  0.00    -0.005 A 
HETATM   23  C   UNL     1      27.795  44.235  52.969  1.00  0.00     0.012 A 
HETATM   24  C   UNL     1      28.268  45.015  54.028  1.00  0.00     0.007 A 
HETATM   25  C   UNL     1      27.454  45.989  54.612  1.00  0.00    -0.062 A 
HETATM   26  C   UNL     1      27.942  46.816  55.763  1.00  0.00     0.048 C 
HETATM   27  C   UNL     1      26.157  46.168  54.120  1.00  0.00     0.007 A 
HETATM   28  C   UNL     1      25.685  45.389  53.061  1.00  0.00     0.012 A 
ENDBRANCH  10  22
TORSDOF 2
ENDMDL
MODEL 4
REMARK VINA RESULT:      -8.1     12.000     14.050
REMARK  2 active torsions:
REMARK  status: ('A' for Active; 'I' for Inactive)
REMARK    1  A    between atoms: C_5  and  C_6 
REMARK    2  A    between atoms: C_15  and  C_16 
ROOT
HETATM    1  C   UNL     1      19.009  48.383  48.816  1.00  0.00     0.190 A 
HETATM    2  N   UNL     1      17.969  48.983  48.020  1.00  0.00    -0.308 N 
HETATM    3  C   UNL     1      18.013  50.355  48.064  1.00  0.00     0.320 A 
HETATM    4  O   UNL     1      17.199  51.100  47.551  1.00  0.00    -0.247 OA
HETATM    5  N   UNL     1      19.118  50.759  48.773  1.00  0.00    -0.308 N 
HETATM    6  N   UNL     1      18.412  47.910  50.038  1.00  0.00    -0.308 N 
HETATM    7  C   UNL     1      18.785  48.663  51.124  1.00  0.00     0.320 A 
HETATM    8  O   UNL     1      18.390  48.496  52.263  1.00  0.00    -0.247 OA
HETATM    9  N   UNL     1      19.679  49.629  50.731  1.00  0.00    -0.308 N 
HETATM   10  C   UNL     1      19.863  49.644  49.303  1.00  0.00     0.190 A 
HETATM   11  H   UNL     1      17.176  48.495  47.635  1.00  0.00     0.167 HD
HETATM   12  H   UNL     1      19.295  51.730  48.977  1.00  0.00     0.167 HD
HETATM   13  H   UNL     1      17.709  47.190  50.106  1.00  0.00     0.167 HD
HETATM   14  H   UNL     1      19.988  50.349  51.365  1.00  0.00     0.167 HD
ENDROOT
BRANCH   1  15
HETATM   15  C   UNL     1      19.744  47.279  48.069  1.00  0.00    -0.005 A 
HETATM   16  C   UNL     1      20.144  47.449  46.731  1.00  0.00     0.012 A 
HETATM   17  C   UNL     1      20.868  46.458  46.060  1.00  0.00     0.007 A 
HETATM   18  C   UNL     1      21.207  45.267  46.705  1.00  0.00    -0.062 A 
HETATM   19  C   UNL     1      22.016  44.216  46.007  1.00  0.00     0.048 C 
HETATM   20  C   UNL     1      20.825  45.087  48.038  1.00  0.00     0.007 A 
HETATM   21  C   UNL     1      20.105  46.079  48.710  1.00  0.00     0.012 A 
ENDBRANCH   1  15
BRANCH  10  22
HETATM   22  C   UNL     1      21.332  49.696  48.909  1.00  0.00    -0.005 A 
HETATM   23  C   UNL     1      22.273  48.820  49.479  1.00  0.00     0.012 A 
HETATM   24  C   UNL     1      23.631  48.904  49.156  1.00  0.00     0.007 A 
HETATM   25  C   UNL     1      24.088  49.869  48.255  1.00  0.00    -0.062 A 
HETATM   26  C   UNL     1      25.544  49.984  47.918  1.00  0.00     0.048 C 
HETATM   27  C   UNL     1      23.164  50.750  47.684  1.00  0.00     0.007 A 
HETATM   28  C   UNL     1      21.808  50.666  48.006  1.00  0.00     0.012 A 
ENDBRANCH  10  22
TORSDOF 2
ENDMDL
MODEL 5
REMARK VINA RESULT:      -8.1     12.018     14.361
REMARK  2 active torsions:
REMARK  status: ('A' for Active; 'I' for Inactive)
REMARK    1  A    between atoms: C_5  and  C_6 
REMARK    2  A    between atoms: C_15  and  C_16 
ROOT
HETATM    1  C   UNL     1      19.843  49.653  49.308  1.00  0.00     0.190 A 
HETATM    2  N   UNL     1      19.668  49.638  50.737  1.00  0.00    -0.308 N 
HETATM    3  C   UNL     1      18.779  48.670  51.136  1.00  0.00     0.320 A 
HETATM    4  O   UNL     1      18.390  48.502  52.277  1.00  0.00    -0.247 OA
HETATM    5  N   UNL     1      18.398  47.917  50.052  1.00  0.00    -0.308 N 
HETATM    6  N   UNL     1      19.095  50.767  48.783  1.00  0.00    -0.308 N 
HETATM    7  C   UNL     1      17.985  50.362  48.083  1.00  0.00     0.320 A 
HETATM    8  O   UNL     1      17.167  51.107  47.574  1.00  0.00    -0.247 OA
HETATM    9  N   UNL     1      17.942  48.990  48.037  1.00  0.00    -0.308 N 
HETATM   10  C   UNL     1      18.987  48.392  48.825  1.00  0.00     0.190 A 
HETATM   11  H   UNL     1      19.982  50.356  51.369  1.00  0.00     0.167 HD
HETATM   12  H   UNL     1      17.697  47.196  50.124  1.00  0.00     0.167 HD
HETATM   13  H   UNL     1      19.272  51.738  48.987  1.00  0.00     0.167 HD
HETATM   14  H   UNL     1      17.146  48.501  47.658  1.00  0.00     0.167 HD
ENDROOT
BRANCH   1  15
HETATM   15  C   UNL     1      21.311  49.705  48.905  1.00  0.00    -0.005 A 
HETATM   16  C   UNL     1      21.780  50.670  47.996  1.00  0.00     0.012 A 
HETATM   17  C   UNL     1      23.136  50.755  47.667  1.00  0.00     0.007 A 
HETATM   18  C   UNL     1      24.061  49.874  48.232  1.00  0.00    -0.062 A 
HETATM   19  C   UNL     1      25.522  49.983  47.915  1.00  0.00     0.048 C 
HETATM   20  C   UNL     1      23.612  48.917  49.145  1.00  0.00     0.007 A 
HETATM   21  C   UNL     1      22.256  48.833  49.477  1.00  0.00     0.012 A 
ENDBRANCH   1  15
BRANCH  10  22
HETATM   22  C   UNL     1      19.719  47.287  48.076  1.00  0.00    -0.005 A 
HETATM   23  C   UNL     1      20.083  46.088  48.715  1.00  0.00     0.012 A 
HETATM   24  C   UNL     1      20.802  45.096  48.041  1.00  0.00     0.007 A 
HETATM   25  C   UNL     1      21.180  45.276  46.707  1.00  0.00    -0.062 A 
HETATM   26  C   UNL     1      21.970  44.230  45.980  1.00  0.00     0.048 C 
HETATM   27  C   UNL     1      20.829  46.465  46.061  1.00  0.00     0.007 A 
HETATM   28  C   UNL     1      20.110  47.456  46.734  1.00  0.00     0.012 A 
ENDBRANCH  10  22
TORSDOF 2
ENDMDL
MODEL 6
REMARK VINA RESULT:      -7.8     13.125     15.240
REMARK  2 active torsions:
REMARK  status: ('A' for Active; 'I' for Inactive)
REMARK    1  A    between atoms: C_5  and  C_6 
REMARK    2  A    between atoms: C_15  and  C_16 
ROOT
HETATM    1  C   UNL     1      19.257  49.876  49.420  1.00  0.00     0.190 A 
HETATM    2  N   UNL     1      20.496  50.608  49.470  1.00  0.00    -0.308 N 
HETATM    3  C   UNL     1      21.586  49.772  49.504  1.00  0.00     0.320 A 
HETATM    4  O   UNL     1      22.742  50.131  49.633  1.00  0.00    -0.247 OA
HETATM    5  N   UNL     1      21.174  48.469  49.365  1.00  0.00    -0.308 N 
HETATM    6  N   UNL     1      18.671  49.909  50.736  1.00  0.00    -0.308 N 
HETATM    7  C   UNL     1      18.722  48.685  51.358  1.00  0.00     0.320 A 
HETATM    8  O   UNL     1      18.331  48.456  52.488  1.00  0.00    -0.247 OA
HETATM    9  N   UNL     1      19.274  47.758  50.508  1.00  0.00    -0.308 N 
HETATM   10  C   UNL     1      19.739  48.357  49.285  1.00  0.00     0.190 A 
HETATM   11  H   UNL     1      20.583  51.592  49.662  1.00  0.00     0.167 HD
HETATM   12  H   UNL     1      21.818  47.697  49.431  1.00  0.00     0.167 HD
HETATM   13  H   UNL     1      18.359  50.738  51.217  1.00  0.00     0.167 HD
HETATM   14  H   UNL     1      19.494  46.825  50.819  1.00  0.00     0.167 HD
ENDROOT
BRANCH   1  15
HETATM   15  C   UNL     1      18.311  50.413  48.355  1.00  0.00    -0.005 A 
HETATM   16  C   UNL     1      16.916  50.326  48.513  1.00  0.00     0.012 A 
HETATM   17  C   UNL     1      16.044  50.867  47.563  1.00  0.00     0.007 A 
HETATM   18  C   UNL     1      16.542  51.506  46.425  1.00  0.00    -0.062 A 
HETATM   19  C   UNL     1      15.616  52.124  45.421  1.00  0.00     0.048 C 
HETATM   20  C   UNL     1      17.926  51.609  46.259  1.00  0.00     0.007 A 
HETATM   21  C   UNL     1      18.797  51.071  47.211  1.00  0.00     0.012 A 
ENDBRANCH   1  15
BRANCH  10  22
HETATM   22  C   UNL     1      19.292  47.582  48.053  1.00  0.00    -0.005 A 
HETATM   23  C   UNL     1      20.028  47.628  46.855  1.00  0.00     0.012 A 
HETATM   24  C   UNL     1      19.589  46.959  45.709  1.00  0.00     0.007 A 
HETATM   25  C   UNL     1      18.398  46.227  45.726  1.00  0.00    -0.062 A 
HETATM   26  C   UNL     1      17.905  45.524  44.497  1.00  0.00     0.048 C 
HETATM   27  C   UNL     1      17.654  46.177  46.909  1.00  0.00     0.007 A 
HETATM   28  C   UNL     1      18.093  46.845  48.054  1.00  0.00     0.012 A 
ENDBRANCH  10  22
TORSDOF 2
ENDMDL
MODEL 7
REMARK VINA RESULT:      -7.8     13.107     14.685
REMARK  2 active torsions:
REMARK  status: ('A' for Active; 'I' for Inactive)
REMARK    1  A    between atoms: C_5  and  C_6 
REMARK    2  A    between atoms: C_15  and  C_16 
ROOT
HETATM    1  C   UNL     1      19.750  48.345  49.257  1.00  0.00     0.190 A 
HETATM    2  N   UNL     1      19.280  47.758  50.485  1.00  0.00    -0.308 N 
HETATM    3  C   UNL     1      18.722  48.693  51.322  1.00  0.00     0.320 A 
HETATM    4  O   UNL     1      18.325  48.475  52.452  1.00  0.00    -0.247 OA
HETATM    5  N   UNL     1      18.673  49.911  50.688  1.00  0.00    -0.308 N 
HETATM    6  N   UNL     1      21.184  48.459  49.343  1.00  0.00    -0.308 N 
HETATM    7  C   UNL     1      21.594  49.764  49.472  1.00  0.00     0.320 A 
HETATM    8  O   UNL     1      22.749  50.127  49.603  1.00  0.00    -0.247 OA
HETATM    9  N   UNL     1      20.503  50.598  49.423  1.00  0.00    -0.308 N 
HETATM   10  C   UNL     1      19.266  49.864  49.375  1.00  0.00     0.190 A 
HETATM   11  H   UNL     1      19.498  46.828  50.806  1.00  0.00     0.167 HD
HETATM   12  H   UNL     1      18.358  50.744  51.158  1.00  0.00     0.167 HD
HETATM   13  H   UNL     1      21.829  47.688  49.421  1.00  0.00     0.167 HD
HETATM   14  H   UNL     1      20.588  51.585  49.607  1.00  0.00     0.167 HD
ENDROOT
BRANCH   1  15
HETATM   15  C   UNL     1      19.309  47.556  48.033  1.00  0.00    -0.005 A 
HETATM   16  C   UNL     1      18.120  46.804  48.044  1.00  0.00     0.012 A 
HETATM   17  C   UNL     1      17.684  46.123  46.903  1.00  0.00     0.007 A 
HETATM   18  C   UNL     1      18.426  46.169  45.721  1.00  0.00    -0.062 A 
HETATM   19  C   UNL     1      17.946  45.475  44.482  1.00  0.00     0.048 C 
HETATM   20  C   UNL     1      19.604  46.920  45.691  1.00  0.00     0.007 A 
HETATM   21  C   UNL     1      20.038  47.604  46.830  1.00  0.00     0.012 A 
ENDBRANCH   1  15
BRANCH  10  22
HETATM   22  C   UNL     1      18.323  50.389  48.301  1.00  0.00    -0.005 A 
HETATM   23  C   UNL     1      18.811  51.056  47.163  1.00  0.00     0.012 A 
HETATM   24  C   UNL     1      17.942  51.584  46.204  1.00  0.00     0.007 A 
HETATM   25  C   UNL     1      16.558  51.464  46.357  1.00  0.00    -0.062 A 
HETATM   26  C   UNL     1      15.615  52.047  45.348  1.00  0.00     0.048 C 
HETATM   27  C   UNL     1      16.058  50.809  47.486  1.00  0.00     0.007 A 
HETATM   28  C   UNL     1      16.927  50.280  48.444  1.00  0.00     0.012 A 
ENDBRANCH  10  22
TORSDOF 2
ENDMDL
MODEL 8
REMARK VINA RESULT:      -7.7      4.972      6.556
REMARK  2 active torsions:
REMARK  status: ('A' for Active; 'I' for Inactive)
REMARK    1  A    between atoms: C_5  and  C_6 
REMARK    2  A    between atoms: C_15  and  C_16 
ROOT
HETATM    1  C   UNL     1      27.001  48.081  38.986  1.00  0.00     0.190 A 
HETATM    2  N   UNL     1      26.865  47.608  37.633  1.00  0.00    -0.308 N 
HETATM    3  C   UNL     1      26.144  48.479  36.853  1.00  0.00     0.320 A 
HETATM    4  O   UNL     1      25.813  48.280  35.699  1.00  0.00    -0.247 OA
HETATM    5  N   UNL     1      25.856  49.614  37.573  1.00  0.00    -0.308 N 
HETATM    6  N   UNL     1      26.079  47.340  39.808  1.00  0.00    -0.308 N 
HETATM    7  C   UNL     1      25.027  48.113  40.235  1.00  0.00     0.320 A 
HETATM    8  O   UNL     1      24.092  47.717  40.908  1.00  0.00    -0.247 OA
HETATM    9  N   UNL     1      25.194  49.404  39.795  1.00  0.00    -0.308 N 
HETATM   10  C   UNL     1      26.336  49.534  38.930  1.00  0.00     0.190 A 
HETATM   11  H   UNL     1      27.080  46.676  37.318  1.00  0.00     0.167 HD
HETATM   12  H   UNL     1      25.277  50.349  37.200  1.00  0.00     0.167 HD
HETATM   13  H   UNL     1      26.109  46.345  39.971  1.00  0.00     0.167 HD
HETATM   14  H   UNL     1      24.473  50.098  39.916  1.00  0.00     0.167 HD
ENDROOT
BRANCH   1  15
HETATM   15  C   UNL     1      28.433  47.979  39.493  1.00  0.00    -0.005 A 
HETATM   16  C   UNL     1      29.519  47.950  38.599  1.00  0.00     0.012 A 
HETATM   17  C   UNL     1      30.837  47.912  39.063  1.00  0.00     0.007 A 
HETATM   18  C   UNL     1      31.108  47.895  40.433  1.00  0.00    -0.062 A 
HETATM   19  C   UNL     1      32.519  47.894  40.940  1.00  0.00     0.048 C 
HETATM   20  C   UNL     1      30.040  47.934  41.334  1.00  0.00     0.007 A 
HETATM   21  C   UNL     1      28.722  47.976  40.870  1.00  0.00     0.012 A 
ENDBRANCH   1  15
BRANCH  10  22
HETATM   22  C   UNL     1      27.210  50.725  39.300  1.00  0.00    -0.005 A 
HETATM   23  C   UNL     1      27.984  51.392  38.332  1.00  0.00     0.012 A 
HETATM   24  C   UNL     1      28.826  52.451  38.682  1.00  0.00     0.007 A 
HETATM   25  C   UNL     1      28.923  52.872  40.011  1.00  0.00    -0.062 A 
HETATM   26  C   UNL     1      29.841  53.991  40.402  1.00  0.00     0.048 C 
HETATM   27  C   UNL     1      28.165  52.215  40.984  1.00  0.00     0.007 A 
HETATM   28  C   UNL     1      27.322  51.157  40.634  1.00  0.00     0.012 A 
ENDBRANCH  10  22
TORSDOF 2
ENDMDL
MODEL 9
REMARK VINA RESULT:      -7.4     24.107     26.429
REMARK  2 active torsions:
REMARK  status: ('A' for Active; 'I' for Inactive)
REMARK    1  A    between atoms: C_5  and  C_6 
REMARK    2  A    between atoms: C_15  and  C_16 
ROOT
HETATM    1  C   UNL     1      38.341  44.770  65.534  1.00  0.00     0.190 A 
HETATM    2  N   UNL     1      37.824  44.866  66.875  1.00  0.00    -0.308 N 
HETATM    3  C   UNL     1      36.657  44.157  67.028  1.00  0.00     0.320 A 
HETATM    4  O   UNL     1      35.973  44.140  68.035  1.00  0.00    -0.247 OA
HETATM    5  N   UNL     1      36.382  43.464  65.874  1.00  0.00    -0.308 N 
HETATM    6  N   UNL     1      38.035  46.003  64.854  1.00  0.00    -0.308 N 
HETATM    7  C   UNL     1      37.066  45.840  63.894  1.00  0.00     0.320 A 
HETATM    8  O   UNL     1      36.601  46.732  63.208  1.00  0.00    -0.247 OA
HETATM    9  N   UNL     1      36.705  44.516  63.822  1.00  0.00    -0.308 N 
HETATM   10  C   UNL     1      37.350  43.726  64.838  1.00  0.00     0.190 A 
HETATM   11  H   UNL     1      38.137  45.519  67.574  1.00  0.00     0.167 HD
HETATM   12  H   UNL     1      35.533  42.934  65.760  1.00  0.00     0.167 HD
HETATM   13  H   UNL     1      38.385  46.914  65.107  1.00  0.00     0.167 HD
HETATM   14  H   UNL     1      35.932  44.212  63.251  1.00  0.00     0.167 HD
ENDROOT
BRANCH   1  15
HETATM   15  C   UNL     1      39.829  44.454  65.510  1.00  0.00    -0.005 A 
HETATM   16  C   UNL     1      40.655  44.926  64.473  1.00  0.00     0.012 A 
HETATM   17  C   UNL     1      42.032  44.684  64.477  1.00  0.00     0.007 A 
HETATM   18  C   UNL     1      42.623  43.958  65.513  1.00  0.00    -0.062 A 
HETATM   19  C   UNL     1      44.104  43.727  65.546  1.00  0.00     0.048 C 
HETATM   20  C   UNL     1      41.817  43.491  66.556  1.00  0.00     0.007 A 
HETATM   21  C   UNL     1      40.441  43.736  66.554  1.00  0.00     0.012 A 
ENDBRANCH   1  15
BRANCH  10  22
HETATM   22  C   UNL     1      37.954  42.445  64.280  1.00  0.00    -0.005 A 
HETATM   23  C   UNL     1      38.051  41.281  65.064  1.00  0.00     0.012 A 
HETATM   24  C   UNL     1      38.653  40.121  64.569  1.00  0.00     0.007 A 
HETATM   25  C   UNL     1      39.180  40.092  63.274  1.00  0.00    -0.062 A 
HETATM   26  C   UNL     1      39.849  38.862  62.740  1.00  0.00     0.048 C 
HETATM   27  C   UNL     1      39.095  41.243  62.486  1.00  0.00     0.007 A 
HETATM   28  C   UNL     1      38.492  42.402  62.980  1.00  0.00     0.012 A 
ENDBRANCH  10  22
TORSDOF 2
ENDMDL
MODEL 10
REMARK VINA RESULT:      -7.3     24.103     26.376
REMARK  2 active torsions:
REMARK  status: ('A' for Active; 'I' for Inactive)
REMARK    1  A    between atoms: C_5  and  C_6 
REMARK    2  A    between atoms: C_15  and  C_16 
ROOT
HETATM    1  C   UNL     1      37.295  43.733  64.851  1.00  0.00     0.190 A 
HETATM    2  N   UNL     1      36.689  44.525  63.811  1.00  0.00    -0.308 N 
HETATM    3  C   UNL     1      37.045  45.849  63.899  1.00  0.00     0.320 A 
HETATM    4  O   UNL     1      36.608  46.741  63.197  1.00  0.00    -0.247 OA
HETATM    5  N   UNL     1      37.974  46.012  64.898  1.00  0.00    -0.308 N 
HETATM    6  N   UNL     1      36.288  43.468  65.847  1.00  0.00    -0.308 N 
HETATM    7  C   UNL     1      36.514  44.160  67.012  1.00  0.00     0.320 A 
HETATM    8  O   UNL     1      35.791  44.142  67.991  1.00  0.00    -0.247 OA
HETATM    9  N   UNL     1      37.686  44.870  66.906  1.00  0.00    -0.308 N 
HETATM   10  C   UNL     1      38.255  44.778  65.588  1.00  0.00     0.190 A 
HETATM   11  H   UNL     1      35.942  44.221  63.209  1.00  0.00     0.167 HD
HETATM   12  H   UNL     1      38.314  46.922  65.166  1.00  0.00     0.167 HD
HETATM   13  H   UNL     1      35.443  42.938  65.699  1.00  0.00     0.167 HD
HETATM   14  H   UNL     1      37.969  45.525  67.618  1.00  0.00     0.167 HD
ENDROOT
BRANCH   1  15
HETATM   15  C   UNL     1      37.922  42.455  64.314  1.00  0.00    -0.005 A 
HETATM   16  C   UNL     1      38.500  42.414  63.032  1.00  0.00     0.012 A 
HETATM   17  C   UNL     1      39.126  41.257  62.557  1.00  0.00     0.007 A 
HETATM   18  C   UNL     1      39.187  40.106  63.347  1.00  0.00    -0.062 A 
HETATM   19  C   UNL     1      39.890  38.875  62.862  1.00  0.00     0.048 C 
HETATM   20  C   UNL     1      38.626  40.136  64.627  1.00  0.00     0.007 A 
HETATM   21  C   UNL     1      38.004  41.293  65.103  1.00  0.00     0.012 A 
ENDBRANCH   1  15
BRANCH  10  22
HETATM   22  C   UNL     1      39.744  44.465  65.620  1.00  0.00    -0.005 A 
HETATM   23  C   UNL     1      40.607  44.910  64.602  1.00  0.00     0.012 A 
HETATM   24  C   UNL     1      41.965  44.578  64.604  1.00  0.00     0.007 A 
HETATM   25  C   UNL     1      42.500  43.787  65.625  1.00  0.00    -0.062 A 
HETATM   26  C   UNL     1      43.949  43.405  65.627  1.00  0.00     0.048 C 
HETATM   27  C   UNL     1      41.654  43.334  66.641  1.00  0.00     0.007 A 
HETATM   28  C   UNL     1      40.297  43.666  66.639  1.00  0.00     0.012 A 
ENDBRANCH  10  22
TORSDOF 2
ENDMDL
