MODEL 1
REMARK VINA RESULT:      -9.3      0.000      0.000
REMARK  9 active torsions:
REMARK  status: ('A' for Active; 'I' for Inactive)
REMARK    1  A    between atoms: C_2  and  O_3 
REMARK    2  A    between atoms: O_3  and  C_4 
REMARK    3  A    between atoms: C_7  and  N_8 
REMARK    4  A    between atoms: C_12  and  N_13 
REMARK       I    between atoms: N_13  and  C_14 
REMARK       I    between atoms: C_14  and  N_15 
REMARK    5  A    between atoms: N_15  and  C_16 
REMARK    6  A    between atoms: C_16  and  C_17 
REMARK    7  A    between atoms: C_17  and  C_18 
REMARK    8  A    between atoms: C_21  and  S_22 
REMARK    9  A    between atoms: S_22  and  N_23 
ROOT
HETATM    1  N   UNL     1      25.614  47.458  49.692  1.00  0.00    -0.336 N 
HETATM    2  C   UNL     1      24.758  48.411  49.258  1.00  0.00     0.316 C 
HETATM    3  N   UNL     1      23.511  48.010  48.906  1.00  0.00    -0.343 N 
HETATM    4  O   UNL     1      25.153  49.570  49.176  1.00  0.00    -0.248 OA
HETATM    5  H   UNL     1      26.528  47.863  49.867  1.00  0.00     0.164 HD
HETATM    6  H   UNL     1      23.132  47.220  49.404  1.00  0.00     0.164 HD
ENDROOT
BRANCH   1   7
HETATM    7  C   UNL     1      25.505  46.003  49.814  1.00  0.00     0.113 C 
HETATM    8  C   UNL     1      24.416  45.527  50.762  1.00  0.00     0.130 C 
HETATM    9  C   UNL     1      25.158  45.011  51.970  1.00  0.00     0.226 C 
HETATM   10  N   UNL     1      26.529  44.959  51.675  1.00  0.00    -0.316 N 
HETATM   11  O   UNL     1      24.585  44.685  53.000  1.00  0.00    -0.273 OA
HETATM   12  C   UNL     1      26.776  45.315  50.294  1.00  0.00     0.157 C 
BRANCH  10  13
HETATM   13  C   UNL     1      27.552  44.414  52.507  1.00  0.00     0.037 A 
HETATM   14  C   UNL     1      28.462  43.457  52.041  1.00  0.00     0.032 A 
HETATM   15  C   UNL     1      29.495  42.967  52.854  1.00  0.00     0.039 A 
HETATM   16  C   UNL     1      29.635  43.424  54.160  1.00  0.00     0.068 A 
HETATM   17  C   UNL     1      28.710  44.336  54.658  1.00  0.00     0.039 A 
HETATM   18  C   UNL     1      27.688  44.833  53.840  1.00  0.00     0.032 A 
BRANCH  16  19
HETATM   19  O   UNL     1      30.606  43.030  55.037  1.00  0.00    -0.352 OA
BRANCH  19  20
HETATM   20  C   UNL     1      31.013  44.020  55.985  1.00  0.00     0.171 C 
HETATM   21  C   UNL     1      31.631  43.301  57.171  1.00  0.00     0.034 C 
ENDBRANCH  19  20
ENDBRANCH  16  19
ENDBRANCH  10  13
ENDBRANCH   1   7
BRANCH   3  22
HETATM   22  C   UNL     1      22.529  48.960  48.405  1.00  0.00     0.129 C 
BRANCH  22  23
HETATM   23  C   UNL     1      22.117  50.045  49.413  1.00  0.00     0.058 C 
BRANCH  23  24
HETATM   24  C   UNL     1      20.690  50.558  49.382  1.00  0.00    -0.057 A 
HETATM   25  C   UNL     1      19.644  50.000  50.127  1.00  0.00     0.009 A 
HETATM   26  C   UNL     1      18.348  50.514  50.040  1.00  0.00     0.025 A 
HETATM   27  C   UNL     1      18.093  51.613  49.218  1.00  0.00     0.074 A 
HETATM   28  C   UNL     1      19.119  52.194  48.474  1.00  0.00     0.025 A 
HETATM   29  C   UNL     1      20.409  51.664  48.557  1.00  0.00     0.009 A 
BRANCH  27  30
HETATM   30  S   UNL     1      16.452  52.255  49.116  1.00  0.00     0.239 S 
HETATM   31  O   UNL     1      15.505  51.164  49.147  1.00  0.00    -0.206 OA
HETATM   32  O   UNL     1      16.340  53.404  49.982  1.00  0.00    -0.206 OA
BRANCH  30  33
HETATM   33  N   UNL     1      16.392  52.844  47.543  1.00  0.00    -0.225 NA
HETATM   34  H   UNL     1      15.477  52.644  47.138  1.00  0.00     0.136 HD
HETATM   35  H   UNL     1      16.642  53.833  47.537  1.00  0.00     0.136 HD
ENDBRANCH  30  33
ENDBRANCH  27  30
ENDBRANCH  23  24
ENDBRANCH  22  23
ENDBRANCH   3  22
TORSDOF 9
ENDMDL
MODEL 2
REMARK VINA RESULT:      -9.1      4.032     11.856
REMARK  9 active torsions:
REMARK  status: ('A' for Active; 'I' for Inactive)
REMARK    1  A    between atoms: C_2  and  O_3 
REMARK    2  A    between atoms: O_3  and  C_4 
REMARK    3  A    between atoms: C_7  and  N_8 
REMARK    4  A    between atoms: C_12  and  N_13 
REMARK       I    between atoms: N_13  and  C_14 
REMARK       I    between atoms: C_14  and  N_15 
REMARK    5  A    between atoms: N_15  and  C_16 
REMARK    6  A    between atoms: C_16  and  C_17 
REMARK    7  A    between atoms: C_17  and  C_18 
REMARK    8  A    between atoms: C_21  and  S_22 
REMARK    9  A    between atoms: S_22  and  N_23 
ROOT
HETATM    1  N   UNL     1      24.635  45.258  51.391  1.00  0.00    -0.336 N 
HETATM    2  C   UNL     1      25.336  44.366  52.129  1.00  0.00     0.316 C 
HETATM    3  N   UNL     1      26.417  43.791  51.545  1.00  0.00    -0.343 N 
HETATM    4  O   UNL     1      24.948  44.102  53.262  1.00  0.00    -0.248 OA
HETATM    5  H   UNL     1      23.820  45.574  51.906  1.00  0.00     0.164 HD
HETATM    6  H   UNL     1      26.916  44.350  50.870  1.00  0.00     0.164 HD
ENDROOT
BRANCH   1   7
HETATM    7  C   UNL     1      24.758  45.718  50.006  1.00  0.00     0.113 C 
HETATM    8  C   UNL     1      25.919  46.666  49.755  1.00  0.00     0.130 C 
HETATM    9  C   UNL     1      25.276  48.017  49.556  1.00  0.00     0.226 C 
HETATM   10  N   UNL     1      23.886  47.849  49.457  1.00  0.00    -0.316 N 
HETATM   11  O   UNL     1      25.929  49.048  49.478  1.00  0.00    -0.273 OA
HETATM   12  C   UNL     1      23.530  46.446  49.475  1.00  0.00     0.157 C 
BRANCH  10  13
HETATM   13  C   UNL     1      22.933  48.865  49.145  1.00  0.00     0.037 A 
HETATM   14  C   UNL     1      21.574  48.580  48.957  1.00  0.00     0.032 A 
HETATM   15  C   UNL     1      20.639  49.594  48.701  1.00  0.00     0.039 A 
HETATM   16  C   UNL     1      21.049  50.921  48.622  1.00  0.00     0.068 A 
HETATM   17  C   UNL     1      22.401  51.218  48.755  1.00  0.00     0.039 A 
HETATM   18  C   UNL     1      23.330  50.205  49.023  1.00  0.00     0.032 A 
BRANCH  16  19
HETATM   19  O   UNL     1      20.229  51.989  48.392  1.00  0.00    -0.352 OA
BRANCH  19  20
HETATM   20  C   UNL     1      18.831  51.693  48.356  1.00  0.00     0.171 C 
HETATM   21  C   UNL     1      18.185  52.348  49.563  1.00  0.00     0.034 C 
ENDBRANCH  19  20
ENDBRANCH  16  19
ENDBRANCH  10  13
ENDBRANCH   1   7
BRANCH   3  22
HETATM   22  C   UNL     1      27.217  42.803  52.252  1.00  0.00     0.129 C 
BRANCH  22  23
HETATM   23  C   UNL     1      28.690  43.196  52.449  1.00  0.00     0.058 C 
BRANCH  23  24
HETATM   24  C   UNL     1      29.113  43.769  53.787  1.00  0.00    -0.057 A 
HETATM   25  C   UNL     1      28.435  44.804  54.443  1.00  0.00     0.009 A 
HETATM   26  C   UNL     1      28.888  45.294  55.670  1.00  0.00     0.025 A 
HETATM   27  C   UNL     1      30.018  44.732  56.265  1.00  0.00     0.074 A 
HETATM   28  C   UNL     1      30.706  43.694  55.638  1.00  0.00     0.025 A 
HETATM   29  C   UNL     1      30.253  43.219  54.405  1.00  0.00     0.009 A 
BRANCH  27  30
HETATM   30  S   UNL     1      30.582  45.359  57.816  1.00  0.00     0.239 S 
HETATM   31  O   UNL     1      31.262  46.617  57.609  1.00  0.00    -0.206 OA
HETATM   32  O   UNL     1      29.538  45.195  58.798  1.00  0.00    -0.206 OA
BRANCH  30  33
HETATM   33  N   UNL     1      31.792  44.268  58.229  1.00  0.00    -0.225 NA
HETATM   34  H   UNL     1      32.679  44.574  57.829  1.00  0.00     0.136 HD
HETATM   35  H   UNL     1      31.812  44.145  59.241  1.00  0.00     0.136 HD
ENDBRANCH  30  33
ENDBRANCH  27  30
ENDBRANCH  23  24
ENDBRANCH  22  23
ENDBRANCH   3  22
TORSDOF 9
ENDMDL
MODEL 3
REMARK VINA RESULT:      -8.9      1.830      2.257
REMARK  9 active torsions:
REMARK  status: ('A' for Active; 'I' for Inactive)
REMARK    1  A    between atoms: C_2  and  O_3 
REMARK    2  A    between atoms: O_3  and  C_4 
REMARK    3  A    between atoms: C_7  and  N_8 
REMARK    4  A    between atoms: C_12  and  N_13 
REMARK       I    between atoms: N_13  and  C_14 
REMARK       I    between atoms: C_14  and  N_15 
REMARK    5  A    between atoms: N_15  and  C_16 
REMARK    6  A    between atoms: C_16  and  C_17 
REMARK    7  A    between atoms: C_17  and  C_18 
REMARK    8  A    between atoms: C_21  and  S_22 
REMARK    9  A    between atoms: S_22  and  N_23 
ROOT
HETATM    1  N   UNL     1      24.937  46.333  50.107  1.00  0.00    -0.336 N 
HETATM    2  C   UNL     1      24.784  47.660  49.890  1.00  0.00     0.316 C 
HETATM    3  N   UNL     1      25.636  48.247  49.013  1.00  0.00    -0.343 N 
HETATM    4  O   UNL     1      23.914  48.264  50.509  1.00  0.00    -0.248 OA
HETATM    5  H   UNL     1      24.289  46.019  50.822  1.00  0.00     0.164 HD
HETATM    6  H   UNL     1      25.968  47.673  48.253  1.00  0.00     0.164 HD
ENDROOT
BRANCH   1   7
HETATM    7  C   UNL     1      25.911  45.352  49.626  1.00  0.00     0.113 C 
HETATM    8  C   UNL     1      25.398  43.922  49.574  1.00  0.00     0.130 C 
HETATM    9  C   UNL     1      26.096  43.222  50.715  1.00  0.00     0.226 C 
HETATM   10  N   UNL     1      27.090  44.069  51.229  1.00  0.00    -0.316 N 
HETATM   11  O   UNL     1      25.805  42.087  51.062  1.00  0.00    -0.273 OA
HETATM   12  C   UNL     1      27.192  45.283  50.447  1.00  0.00     0.157 C 
BRANCH  10  13
HETATM   13  C   UNL     1      28.050  43.734  52.230  1.00  0.00     0.037 A 
HETATM   14  C   UNL     1      28.983  42.705  52.053  1.00  0.00     0.032 A 
HETATM   15  C   UNL     1      29.955  42.419  53.025  1.00  0.00     0.039 A 
HETATM   16  C   UNL     1      30.008  43.158  54.201  1.00  0.00     0.068 A 
HETATM   17  C   UNL     1      29.057  44.150  54.417  1.00  0.00     0.039 A 
HETATM   18  C   UNL     1      28.097  44.442  53.441  1.00  0.00     0.032 A 
BRANCH  16  19
HETATM   19  O   UNL     1      30.914  42.980  55.208  1.00  0.00    -0.352 OA
BRANCH  19  20
HETATM   20  C   UNL     1      30.782  43.872  56.316  1.00  0.00     0.171 C 
HETATM   21  C   UNL     1      31.889  43.552  57.306  1.00  0.00     0.034 C 
ENDBRANCH  19  20
ENDBRANCH  16  19
ENDBRANCH  10  13
ENDBRANCH   1   7
BRANCH   3  22
HETATM   22  C   UNL     1      25.563  49.673  48.734  1.00  0.00     0.129 C 
BRANCH  22  23
HETATM   23  C   UNL     1      24.506  50.065  47.688  1.00  0.00     0.058 C 
BRANCH  23  24
HETATM   24  C   UNL     1      23.060  50.179  48.128  1.00  0.00    -0.057 A 
HETATM   25  C   UNL     1      22.564  51.223  48.920  1.00  0.00     0.009 A 
HETATM   26  C   UNL     1      21.221  51.259  49.301  1.00  0.00     0.025 A 
HETATM   27  C   UNL     1      20.352  50.255  48.869  1.00  0.00     0.074 A 
HETATM   28  C   UNL     1      20.818  49.211  48.072  1.00  0.00     0.025 A 
HETATM   29  C   UNL     1      22.165  49.177  47.707  1.00  0.00     0.009 A 
BRANCH  27  30
HETATM   30  S   UNL     1      18.657  50.311  49.357  1.00  0.00     0.239 S 
HETATM   31  O   UNL     1      17.845  49.658  48.355  1.00  0.00    -0.206 OA
HETATM   32  O   UNL     1      18.560  49.995  50.761  1.00  0.00    -0.206 OA
BRANCH  30  33
HETATM   33  N   UNL     1      18.295  51.947  49.218  1.00  0.00    -0.225 NA
HETATM   34  H   UNL     1      18.345  52.387  50.137  1.00  0.00     0.136 HD
HETATM   35  H   UNL     1      18.902  52.375  48.518  1.00  0.00     0.136 HD
ENDBRANCH  30  33
ENDBRANCH  27  30
ENDBRANCH  23  24
ENDBRANCH  22  23
ENDBRANCH   3  22
TORSDOF 9
ENDMDL
MODEL 4
REMARK VINA RESULT:      -8.9      3.089      4.086
REMARK  9 active torsions:
REMARK  status: ('A' for Active; 'I' for Inactive)
REMARK    1  A    between atoms: C_2  and  O_3 
REMARK    2  A    between atoms: O_3  and  C_4 
REMARK    3  A    between atoms: C_7  and  N_8 
REMARK    4  A    between atoms: C_12  and  N_13 
REMARK       I    between atoms: N_13  and  C_14 
REMARK       I    between atoms: C_14  and  N_15 
REMARK    5  A    between atoms: N_15  and  C_16 
REMARK    6  A    between atoms: C_16  and  C_17 
REMARK    7  A    between atoms: C_17  and  C_18 
REMARK    8  A    between atoms: C_21  and  S_22 
REMARK    9  A    between atoms: S_22  and  N_23 
ROOT
HETATM    1  N   UNL     1      26.693  46.971  50.087  1.00  0.00    -0.336 N 
HETATM    2  C   UNL     1      26.650  48.212  49.550  1.00  0.00     0.316 C 
HETATM    3  N   UNL     1      25.437  48.678  49.162  1.00  0.00    -0.343 N 
HETATM    4  O   UNL     1      27.698  48.836  49.414  1.00  0.00    -0.248 OA
HETATM    5  H   UNL     1      27.654  46.708  50.281  1.00  0.00     0.164 HD
HETATM    6  H   UNL     1      24.640  48.358  49.691  1.00  0.00     0.164 HD
ENDROOT
BRANCH   1   7
HETATM    7  C   UNL     1      25.674  45.942  50.295  1.00  0.00     0.113 C 
HETATM    8  C   UNL     1      25.375  45.634  51.753  1.00  0.00     0.130 C 
HETATM    9  C   UNL     1      25.992  44.277  51.994  1.00  0.00     0.226 C 
HETATM   10  N   UNL     1      26.394  43.736  50.764  1.00  0.00    -0.316 N 
HETATM   11  O   UNL     1      26.070  43.782  53.110  1.00  0.00    -0.273 OA
HETATM   12  C   UNL     1      26.003  44.594  49.666  1.00  0.00     0.157 C 
BRANCH  10  13
HETATM   13  C   UNL     1      26.909  42.423  50.547  1.00  0.00     0.037 A 
HETATM   14  C   UNL     1      27.889  41.860  51.375  1.00  0.00     0.032 A 
HETATM   15  C   UNL     1      28.351  40.549  51.181  1.00  0.00     0.039 A 
HETATM   16  C   UNL     1      27.841  39.773  50.146  1.00  0.00     0.068 A 
HETATM   17  C   UNL     1      26.905  40.331  49.283  1.00  0.00     0.039 A 
HETATM   18  C   UNL     1      26.437  41.635  49.485  1.00  0.00     0.032 A 
BRANCH  16  19
HETATM   19  O   UNL     1      28.203  38.484  49.871  1.00  0.00    -0.352 OA
BRANCH  19  20
HETATM   20  C   UNL     1      29.608  38.221  49.911  1.00  0.00     0.171 C 
HETATM   21  C   UNL     1      29.866  37.243  51.043  1.00  0.00     0.034 C 
ENDBRANCH  19  20
ENDBRANCH  16  19
ENDBRANCH  10  13
ENDBRANCH   1   7
BRANCH   3  22
HETATM   22  C   UNL     1      25.295  49.992  48.553  1.00  0.00     0.129 C 
BRANCH  22  23
HETATM   23  C   UNL     1      24.027  50.168  47.702  1.00  0.00     0.058 C 
BRANCH  23  24
HETATM   24  C   UNL     1      22.680  49.908  48.349  1.00  0.00    -0.057 A 
HETATM   25  C   UNL     1      22.017  48.676  48.303  1.00  0.00     0.009 A 
HETATM   26  C   UNL     1      20.770  48.509  48.910  1.00  0.00     0.025 A 
HETATM   27  C   UNL     1      20.185  49.576  49.594  1.00  0.00     0.074 A 
HETATM   28  C   UNL     1      20.829  50.810  49.664  1.00  0.00     0.025 A 
HETATM   29  C   UNL     1      22.069  50.971  49.042  1.00  0.00     0.009 A 
BRANCH  27  30
HETATM   30  S   UNL     1      18.609  49.353  50.357  1.00  0.00     0.239 S 
HETATM   31  O   UNL     1      17.913  50.619  50.406  1.00  0.00    -0.206 OA
HETATM   32  O   UNL     1      18.000  48.153  49.839  1.00  0.00    -0.206 OA
BRANCH  30  33
HETATM   33  N   UNL     1      19.025  49.019  51.952  1.00  0.00    -0.225 NA
HETATM   34  H   UNL     1      18.206  49.132  52.549  1.00  0.00     0.136 HD
HETATM   35  H   UNL     1      19.455  48.096  52.007  1.00  0.00     0.136 HD
ENDBRANCH  30  33
ENDBRANCH  27  30
ENDBRANCH  23  24
ENDBRANCH  22  23
ENDBRANCH   3  22
TORSDOF 9
ENDMDL
MODEL 5
REMARK VINA RESULT:      -8.8      7.529     11.087
REMARK  9 active torsions:
REMARK  status: ('A' for Active; 'I' for Inactive)
REMARK    1  A    between atoms: C_2  and  O_3 
REMARK    2  A    between atoms: O_3  and  C_4 
REMARK    3  A    between atoms: C_7  and  N_8 
REMARK    4  A    between atoms: C_12  and  N_13 
REMARK       I    between atoms: N_13  and  C_14 
REMARK       I    between atoms: C_14  and  N_15 
REMARK    5  A    between atoms: N_15  and  C_16 
REMARK    6  A    between atoms: C_16  and  C_17 
REMARK    7  A    between atoms: C_17  and  C_18 
REMARK    8  A    between atoms: C_21  and  S_22 
REMARK    9  A    between atoms: S_22  and  N_23 
ROOT
HETATM    1  N   UNL     1      25.396  41.674  48.533  1.00  0.00    -0.336 N 
HETATM    2  C   UNL     1      25.239  40.842  47.477  1.00  0.00     0.316 C 
HETATM    3  N   UNL     1      24.550  39.693  47.690  1.00  0.00    -0.343 N 
HETATM    4  O   UNL     1      25.744  41.148  46.402  1.00  0.00    -0.248 OA
HETATM    5  H   UNL     1      25.974  42.466  48.271  1.00  0.00     0.164 HD
HETATM    6  H   UNL     1      23.820  39.726  48.385  1.00  0.00     0.164 HD
ENDROOT
BRANCH   1   7
HETATM    7  C   UNL     1      25.018  41.573  49.944  1.00  0.00     0.113 C 
HETATM    8  C   UNL     1      24.290  42.789  50.493  1.00  0.00     0.130 C 
HETATM    9  C   UNL     1      25.297  43.467  51.390  1.00  0.00     0.226 C 
HETATM   10  N   UNL     1      26.407  42.623  51.548  1.00  0.00    -0.316 N 
HETATM   11  O   UNL     1      25.096  44.567  51.885  1.00  0.00    -0.273 OA
HETATM   12  C   UNL     1      26.189  41.351  50.893  1.00  0.00     0.157 C 
BRANCH  10  13
HETATM   13  C   UNL     1      27.519  42.844  52.415  1.00  0.00     0.037 A 
HETATM   14  C   UNL     1      27.361  43.317  53.724  1.00  0.00     0.032 A 
HETATM   15  C   UNL     1      28.458  43.482  54.583  1.00  0.00     0.039 A 
HETATM   16  C   UNL     1      29.743  43.181  54.144  1.00  0.00     0.068 A 
HETATM   17  C   UNL     1      29.925  42.759  52.831  1.00  0.00     0.039 A 
HETATM   18  C   UNL     1      28.827  42.583  51.980  1.00  0.00     0.032 A 
BRANCH  16  19
HETATM   19  O   UNL     1      30.881  43.288  54.893  1.00  0.00    -0.352 OA
BRANCH  19  20
HETATM   20  C   UNL     1      30.743  44.017  56.115  1.00  0.00     0.171 C 
HETATM   21  C   UNL     1      31.605  43.336  57.162  1.00  0.00     0.034 C 
ENDBRANCH  19  20
ENDBRANCH  16  19
ENDBRANCH  10  13
ENDBRANCH   1   7
BRANCH   3  22
HETATM   22  C   UNL     1      24.352  38.726  46.622  1.00  0.00     0.129 C 
BRANCH  22  23
HETATM   23  C   UNL     1      25.377  37.580  46.598  1.00  0.00     0.058 C 
BRANCH  23  24
HETATM   24  C   UNL     1      26.549  37.639  47.559  1.00  0.00    -0.057 A 
HETATM   25  C   UNL     1      27.767  38.266  47.267  1.00  0.00     0.009 A 
HETATM   26  C   UNL     1      28.811  38.270  48.194  1.00  0.00     0.025 A 
HETATM   27  C   UNL     1      28.635  37.663  49.439  1.00  0.00     0.074 A 
HETATM   28  C   UNL     1      27.429  37.041  49.758  1.00  0.00     0.025 A 
HETATM   29  C   UNL     1      26.395  37.030  48.819  1.00  0.00     0.009 A 
BRANCH  27  30
HETATM   30  S   UNL     1      29.961  37.675  50.603  1.00  0.00     0.239 S 
HETATM   31  O   UNL     1      29.895  36.487  51.423  1.00  0.00    -0.206 OA
HETATM   32  O   UNL     1      31.171  38.089  49.934  1.00  0.00    -0.206 OA
BRANCH  30  33
HETATM   33  N   UNL     1      29.533  38.940  51.625  1.00  0.00    -0.225 NA
HETATM   34  H   UNL     1      29.069  39.672  51.087  1.00  0.00     0.136 HD
HETATM   35  H   UNL     1      28.980  38.580  52.402  1.00  0.00     0.136 HD
ENDBRANCH  30  33
ENDBRANCH  27  30
ENDBRANCH  23  24
ENDBRANCH  22  23
ENDBRANCH   3  22
TORSDOF 9
ENDMDL
MODEL 6
REMARK VINA RESULT:      -8.7      2.189      3.232
REMARK  9 active torsions:
REMARK  status: ('A' for Active; 'I' for Inactive)
REMARK    1  A    between atoms: C_2  and  O_3 
REMARK    2  A    between atoms: O_3  and  C_4 
REMARK    3  A    between atoms: C_7  and  N_8 
REMARK    4  A    between atoms: C_12  and  N_13 
REMARK       I    between atoms: N_13  and  C_14 
REMARK       I    between atoms: C_14  and  N_15 
REMARK    5  A    between atoms: N_15  and  C_16 
REMARK    6  A    between atoms: C_16  and  C_17 
REMARK    7  A    between atoms: C_17  and  C_18 
REMARK    8  A    between atoms: C_21  and  S_22 
REMARK    9  A    between atoms: S_22  and  N_23 
ROOT
HETATM    1  N   UNL     1      23.241  47.792  48.624  1.00  0.00    -0.336 N 
HETATM    2  C   UNL     1      21.898  47.913  48.515  1.00  0.00     0.316 C 
HETATM    3  N   UNL     1      21.260  48.630  49.473  1.00  0.00    -0.343 N 
HETATM    4  O   UNL     1      21.326  47.351  47.586  1.00  0.00    -0.248 OA
HETATM    5  H   UNL     1      23.598  47.188  47.892  1.00  0.00     0.164 HD
HETATM    6  H   UNL     1      21.776  49.392  49.886  1.00  0.00     0.164 HD
ENDROOT
BRANCH   1   7
HETATM    7  C   UNL     1      24.201  48.237  49.636  1.00  0.00     0.113 C 
HETATM    8  C   UNL     1      25.550  48.665  49.084  1.00  0.00     0.130 C 
HETATM    9  C   UNL     1      26.497  47.558  49.481  1.00  0.00     0.226 C 
HETATM   10  N   UNL     1      25.840  46.697  50.374  1.00  0.00    -0.316 N 
HETATM   11  O   UNL     1      27.647  47.501  49.070  1.00  0.00    -0.273 OA
HETATM   12  C   UNL     1      24.521  47.195  50.700  1.00  0.00     0.157 C 
BRANCH  10  13
HETATM   13  C   UNL     1      26.426  45.600  51.074  1.00  0.00     0.037 A 
HETATM   14  C   UNL     1      26.524  45.573  52.471  1.00  0.00     0.032 A 
HETATM   15  C   UNL     1      27.056  44.466  53.150  1.00  0.00     0.039 A 
HETATM   16  C   UNL     1      27.508  43.360  52.438  1.00  0.00     0.068 A 
HETATM   17  C   UNL     1      27.466  43.389  51.049  1.00  0.00     0.039 A 
HETATM   18  C   UNL     1      26.923  44.489  50.374  1.00  0.00     0.032 A 
BRANCH  16  19
HETATM   19  O   UNL     1      28.031  42.224  52.990  1.00  0.00    -0.352 OA
BRANCH  19  20
HETATM   20  C   UNL     1      29.031  42.433  53.990  1.00  0.00     0.171 C 
HETATM   21  C   UNL     1      30.323  42.805  53.286  1.00  0.00     0.034 C 
ENDBRANCH  19  20
ENDBRANCH  16  19
ENDBRANCH  10  13
ENDBRANCH   1   7
BRANCH   3  22
HETATM   22  C   UNL     1      19.815  48.795  49.452  1.00  0.00     0.129 C 
BRANCH  22  23
HETATM   23  C   UNL     1      19.305  49.848  48.454  1.00  0.00     0.058 C 
BRANCH  23  24
HETATM   24  C   UNL     1      18.127  50.714  48.855  1.00  0.00    -0.057 A 
HETATM   25  C   UNL     1      16.797  50.426  48.521  1.00  0.00     0.009 A 
HETATM   26  C   UNL     1      15.760  51.275  48.911  1.00  0.00     0.025 A 
HETATM   27  C   UNL     1      16.044  52.415  49.666  1.00  0.00     0.074 A 
HETATM   28  C   UNL     1      17.358  52.718  50.021  1.00  0.00     0.025 A 
HETATM   29  C   UNL     1      18.390  51.870  49.614  1.00  0.00     0.009 A 
BRANCH  27  30
HETATM   30  S   UNL     1      14.725  53.480  50.154  1.00  0.00     0.239 S 
HETATM   31  O   UNL     1      14.370  54.345  49.052  1.00  0.00    -0.206 OA
HETATM   32  O   UNL     1      13.745  52.713  50.884  1.00  0.00    -0.206 OA
BRANCH  30  33
HETATM   33  N   UNL     1      15.469  54.484  51.279  1.00  0.00    -0.225 NA
HETATM   34  H   UNL     1      15.049  55.413  51.238  1.00  0.00     0.136 HD
HETATM   35  H   UNL     1      15.433  54.051  52.202  1.00  0.00     0.136 HD
ENDBRANCH  30  33
ENDBRANCH  27  30
ENDBRANCH  23  24
ENDBRANCH  22  23
ENDBRANCH   3  22
TORSDOF 9
ENDMDL
MODEL 7
REMARK VINA RESULT:      -8.6      3.053      4.076
REMARK  9 active torsions:
REMARK  status: ('A' for Active; 'I' for Inactive)
REMARK    1  A    between atoms: C_2  and  O_3 
REMARK    2  A    between atoms: O_3  and  C_4 
REMARK    3  A    between atoms: C_7  and  N_8 
REMARK    4  A    between atoms: C_12  and  N_13 
REMARK       I    between atoms: N_13  and  C_14 
REMARK       I    between atoms: C_14  and  N_15 
REMARK    5  A    between atoms: N_15  and  C_16 
REMARK    6  A    between atoms: C_16  and  C_17 
REMARK    7  A    between atoms: C_17  and  C_18 
REMARK    8  A    between atoms: C_21  and  S_22 
REMARK    9  A    between atoms: S_22  and  N_23 
ROOT
HETATM    1  N   UNL     1      24.593  43.021  50.406  1.00  0.00    -0.336 N 
HETATM    2  C   UNL     1      23.427  43.257  49.761  1.00  0.00     0.316 C 
HETATM    3  N   UNL     1      23.506  43.743  48.497  1.00  0.00    -0.343 N 
HETATM    4  O   UNL     1      22.372  43.050  50.350  1.00  0.00    -0.248 OA
HETATM    5  H   UNL     1      24.411  42.719  51.358  1.00  0.00     0.164 HD
HETATM    6  H   UNL     1      24.305  43.458  47.952  1.00  0.00     0.164 HD
ENDROOT
BRANCH   1   7
HETATM    7  C   UNL     1      25.994  43.246  50.044  1.00  0.00     0.113 C 
HETATM    8  C   UNL     1      26.790  41.979  49.778  1.00  0.00     0.130 C 
HETATM    9  C   UNL     1      27.704  41.841  50.971  1.00  0.00     0.226 C 
HETATM   10  N   UNL     1      27.634  43.016  51.735  1.00  0.00    -0.316 N 
HETATM   11  O   UNL     1      28.386  40.845  51.161  1.00  0.00    -0.273 OA
HETATM   12  C   UNL     1      26.799  44.006  51.091  1.00  0.00     0.157 C 
BRANCH  10  13
HETATM   13  C   UNL     1      28.436  43.332  52.873  1.00  0.00     0.037 A 
HETATM   14  C   UNL     1      29.670  42.714  53.110  1.00  0.00     0.032 A 
HETATM   15  C   UNL     1      30.472  43.070  54.206  1.00  0.00     0.039 A 
HETATM   16  C   UNL     1      30.048  44.052  55.094  1.00  0.00     0.068 A 
HETATM   17  C   UNL     1      28.802  44.640  54.904  1.00  0.00     0.039 A 
HETATM   18  C   UNL     1      28.010  44.292  53.804  1.00  0.00     0.032 A 
BRANCH  16  19
HETATM   19  O   UNL     1      30.748  44.489  56.183  1.00  0.00    -0.352 OA
BRANCH  19  20
HETATM   20  C   UNL     1      30.297  45.723  56.746  1.00  0.00     0.171 C 
HETATM   21  C   UNL     1      30.201  45.541  58.250  1.00  0.00     0.034 C 
ENDBRANCH  19  20
ENDBRANCH  16  19
ENDBRANCH  10  13
ENDBRANCH   1   7
BRANCH   3  22
HETATM   22  C   UNL     1      22.306  44.049  47.733  1.00  0.00     0.129 C 
BRANCH  22  23
HETATM   23  C   UNL     1      22.377  45.358  46.929  1.00  0.00     0.058 C 
BRANCH  23  24
HETATM   24  C   UNL     1      21.914  46.641  47.592  1.00  0.00    -0.057 A 
HETATM   25  C   UNL     1      20.668  47.236  47.357  1.00  0.00     0.009 A 
HETATM   26  C   UNL     1      20.311  48.427  47.993  1.00  0.00     0.025 A 
HETATM   27  C   UNL     1      21.195  49.023  48.893  1.00  0.00     0.074 A 
HETATM   28  C   UNL     1      22.437  48.446  49.153  1.00  0.00     0.025 A 
HETATM   29  C   UNL     1      22.791  47.261  48.502  1.00  0.00     0.009 A 
BRANCH  27  30
HETATM   30  S   UNL     1      20.732  50.528  49.691  1.00  0.00     0.239 S 
HETATM   31  O   UNL     1      20.739  51.606  48.728  1.00  0.00    -0.206 OA
HETATM   32  O   UNL     1      19.612  50.274  50.563  1.00  0.00    -0.206 OA
BRANCH  30  33
HETATM   33  N   UNL     1      22.050  50.825  50.692  1.00  0.00    -0.225 NA
HETATM   34  H   UNL     1      21.970  51.760  51.093  1.00  0.00     0.136 HD
HETATM   35  H   UNL     1      22.129  50.081  51.385  1.00  0.00     0.136 HD
ENDBRANCH  30  33
ENDBRANCH  27  30
ENDBRANCH  23  24
ENDBRANCH  22  23
ENDBRANCH   3  22
TORSDOF 9
ENDMDL
MODEL 8
REMARK VINA RESULT:      -8.5      7.583     14.205
REMARK  9 active torsions:
REMARK  status: ('A' for Active; 'I' for Inactive)
REMARK    1  A    between atoms: C_2  and  O_3 
REMARK    2  A    between atoms: O_3  and  C_4 
REMARK    3  A    between atoms: C_7  and  N_8 
REMARK    4  A    between atoms: C_12  and  N_13 
REMARK       I    between atoms: N_13  and  C_14 
REMARK       I    between atoms: C_14  and  N_15 
REMARK    5  A    between atoms: N_15  and  C_16 
REMARK    6  A    between atoms: C_16  and  C_17 
REMARK    7  A    between atoms: C_17  and  C_18 
REMARK    8  A    between atoms: C_21  and  S_22 
REMARK    9  A    between atoms: S_22  and  N_23 
ROOT
HETATM    1  N   UNL     1      15.621  53.484  50.772  1.00  0.00    -0.336 N 
HETATM    2  C   UNL     1      16.063  52.554  49.894  1.00  0.00     0.316 C 
HETATM    3  N   UNL     1      15.540  52.585  48.643  1.00  0.00    -0.343 N 
HETATM    4  O   UNL     1      16.881  51.722  50.274  1.00  0.00    -0.248 OA
HETATM    5  H   UNL     1      16.034  53.326  51.686  1.00  0.00     0.164 HD
HETATM    6  H   UNL     1      15.273  53.489  48.287  1.00  0.00     0.164 HD
ENDROOT
BRANCH   1   7
HETATM    7  C   UNL     1      14.603  54.533  50.682  1.00  0.00     0.113 C 
HETATM    8  C   UNL     1      15.036  55.770  49.913  1.00  0.00     0.130 C 
HETATM    9  C   UNL     1      15.232  56.830  50.970  1.00  0.00     0.226 C 
HETATM   10  N   UNL     1      14.738  56.350  52.193  1.00  0.00    -0.316 N 
HETATM   11  O   UNL     1      15.727  57.920  50.720  1.00  0.00    -0.273 OA
HETATM   12  C   UNL     1      14.117  55.053  52.029  1.00  0.00     0.157 C 
BRANCH  10  13
HETATM   13  C   UNL     1      14.626  57.091  53.407  1.00  0.00     0.037 A 
HETATM   14  C   UNL     1      15.650  57.930  53.866  1.00  0.00     0.032 A 
HETATM   15  C   UNL     1      15.507  58.692  55.036  1.00  0.00     0.039 A 
HETATM   16  C   UNL     1      14.332  58.624  55.777  1.00  0.00     0.068 A 
HETATM   17  C   UNL     1      13.325  57.758  55.365  1.00  0.00     0.039 A 
HETATM   18  C   UNL     1      13.465  57.009  54.191  1.00  0.00     0.032 A 
BRANCH  16  19
HETATM   19  O   UNL     1      14.076  59.327  56.920  1.00  0.00    -0.352 OA
BRANCH  19  20
HETATM   20  C   UNL     1      14.130  60.750  56.789  1.00  0.00     0.171 C 
HETATM   21  C   UNL     1      15.159  61.270  57.776  1.00  0.00     0.034 C 
ENDBRANCH  19  20
ENDBRANCH  16  19
ENDBRANCH  10  13
ENDBRANCH   1   7
BRANCH   3  22
HETATM   22  C   UNL     1      15.937  51.610  47.638  1.00  0.00     0.129 C 
BRANCH  22  23
HETATM   23  C   UNL     1      17.196  51.990  46.841  1.00  0.00     0.058 C 
BRANCH  23  24
HETATM   24  C   UNL     1      18.542  51.503  47.341  1.00  0.00    -0.057 A 
HETATM   25  C   UNL     1      19.346  52.216  48.239  1.00  0.00     0.009 A 
HETATM   26  C   UNL     1      20.584  51.715  48.648  1.00  0.00     0.025 A 
HETATM   27  C   UNL     1      21.018  50.474  48.177  1.00  0.00     0.074 A 
HETATM   28  C   UNL     1      20.232  49.739  47.291  1.00  0.00     0.025 A 
HETATM   29  C   UNL     1      19.002  50.256  46.877  1.00  0.00     0.009 A 
BRANCH  27  30
HETATM   30  S   UNL     1      22.583  49.850  48.701  1.00  0.00     0.239 S 
HETATM   31  O   UNL     1      23.127  50.711  49.727  1.00  0.00    -0.206 OA
HETATM   32  O   UNL     1      22.491  48.419  48.859  1.00  0.00    -0.206 OA
BRANCH  30  33
HETATM   33  N   UNL     1      23.548  50.113  47.350  1.00  0.00    -0.225 NA
HETATM   34  H   UNL     1      23.983  49.236  47.065  1.00  0.00     0.136 HD
HETATM   35  H   UNL     1      22.997  50.561  46.617  1.00  0.00     0.136 HD
ENDBRANCH  30  33
ENDBRANCH  27  30
ENDBRANCH  23  24
ENDBRANCH  22  23
ENDBRANCH   3  22
TORSDOF 9
ENDMDL
MODEL 9
REMARK VINA RESULT:      -8.2      2.875      3.719
REMARK  9 active torsions:
REMARK  status: ('A' for Active; 'I' for Inactive)
REMARK    1  A    between atoms: C_2  and  O_3 
REMARK    2  A    between atoms: O_3  and  C_4 
REMARK    3  A    between atoms: C_7  and  N_8 
REMARK    4  A    between atoms: C_12  and  N_13 
REMARK       I    between atoms: N_13  and  C_14 
REMARK       I    between atoms: C_14  and  N_15 
REMARK    5  A    between atoms: N_15  and  C_16 
REMARK    6  A    between atoms: C_16  and  C_17 
REMARK    7  A    between atoms: C_17  and  C_18 
REMARK    8  A    between atoms: C_21  and  S_22 
REMARK    9  A    between atoms: S_22  and  N_23 
ROOT
HETATM    1  N   UNL     1      24.614  43.608  49.656  1.00  0.00    -0.336 N 
HETATM    2  C   UNL     1      24.100  43.541  48.406  1.00  0.00     0.316 C 
HETATM    3  N   UNL     1      23.147  44.449  48.078  1.00  0.00    -0.343 N 
HETATM    4  O   UNL     1      24.493  42.658  47.651  1.00  0.00    -0.248 OA
HETATM    5  H   UNL     1      25.268  42.847  49.806  1.00  0.00     0.164 HD
HETATM    6  H   UNL     1      23.213  45.353  48.519  1.00  0.00     0.164 HD
ENDROOT
BRANCH   1   7
HETATM    7  C   UNL     1      24.307  44.450  50.814  1.00  0.00     0.113 C 
HETATM    8  C   UNL     1      24.544  45.936  50.596  1.00  0.00     0.130 C 
HETATM    9  C   UNL     1      25.782  46.249  51.402  1.00  0.00     0.226 C 
HETATM   10  N   UNL     1      26.099  45.138  52.199  1.00  0.00    -0.316 N 
HETATM   11  O   UNL     1      26.348  47.331  51.338  1.00  0.00    -0.273 OA
HETATM   12  C   UNL     1      25.096  44.103  52.070  1.00  0.00     0.157 C 
BRANCH  10  13
HETATM   13  C   UNL     1      27.123  45.076  53.191  1.00  0.00     0.037 A 
HETATM   14  C   UNL     1      27.151  45.944  54.290  1.00  0.00     0.032 A 
HETATM   15  C   UNL     1      28.135  45.839  55.285  1.00  0.00     0.039 A 
HETATM   16  C   UNL     1      29.119  44.861  55.196  1.00  0.00     0.068 A 
HETATM   17  C   UNL     1      29.139  44.023  54.086  1.00  0.00     0.039 A 
HETATM   18  C   UNL     1      28.148  44.122  53.101  1.00  0.00     0.032 A 
BRANCH  16  19
HETATM   19  O   UNL     1      30.116  44.656  56.108  1.00  0.00    -0.352 OA
BRANCH  19  20
HETATM   20  C   UNL     1      30.889  43.469  55.914  1.00  0.00     0.171 C 
HETATM   21  C   UNL     1      31.800  43.306  57.117  1.00  0.00     0.034 C 
ENDBRANCH  19  20
ENDBRANCH  16  19
ENDBRANCH  10  13
ENDBRANCH   1   7
BRANCH   3  22
HETATM   22  C   UNL     1      22.520  44.439  46.765  1.00  0.00     0.129 C 
BRANCH  22  23
HETATM   23  C   UNL     1      21.055  44.907  46.753  1.00  0.00     0.058 C 
BRANCH  23  24
HETATM   24  C   UNL     1      20.683  46.142  47.551  1.00  0.00    -0.057 A 
HETATM   25  C   UNL     1      19.680  46.168  48.528  1.00  0.00     0.009 A 
HETATM   26  C   UNL     1      19.380  47.345  49.216  1.00  0.00     0.025 A 
HETATM   27  C   UNL     1      20.103  48.508  48.948  1.00  0.00     0.074 A 
HETATM   28  C   UNL     1      21.114  48.507  47.987  1.00  0.00     0.025 A 
HETATM   29  C   UNL     1      21.398  47.328  47.294  1.00  0.00     0.009 A 
BRANCH  27  30
HETATM   30  S   UNL     1      19.715  49.990  49.824  1.00  0.00     0.239 S 
HETATM   31  O   UNL     1      20.938  50.666  50.194  1.00  0.00    -0.206 OA
HETATM   32  O   UNL     1      18.629  50.663  49.155  1.00  0.00    -0.206 OA
BRANCH  30  33
HETATM   33  N   UNL     1      19.085  49.401  51.267  1.00  0.00    -0.225 NA
HETATM   34  H   UNL     1      18.079  49.264  51.170  1.00  0.00     0.136 HD
HETATM   35  H   UNL     1      19.594  48.562  51.547  1.00  0.00     0.136 HD
ENDBRANCH  30  33
ENDBRANCH  27  30
ENDBRANCH  23  24
ENDBRANCH  22  23
ENDBRANCH   3  22
TORSDOF 9
ENDMDL
MODEL 10
REMARK VINA RESULT:      -8.1      4.039     12.741
REMARK  9 active torsions:
REMARK  status: ('A' for Active; 'I' for Inactive)
REMARK    1  A    between atoms: C_2  and  O_3 
REMARK    2  A    between atoms: O_3  and  C_4 
REMARK    3  A    between atoms: C_7  and  N_8 
REMARK    4  A    between atoms: C_12  and  N_13 
REMARK       I    between atoms: N_13  and  C_14 
REMARK       I    between atoms: C_14  and  N_15 
REMARK    5  A    between atoms: N_15  and  C_16 
REMARK    6  A    between atoms: C_16  and  C_17 
REMARK    7  A    between atoms: C_17  and  C_18 
REMARK    8  A    between atoms: C_21  and  S_22 
REMARK    9  A    between atoms: S_22  and  N_23 
ROOT
HETATM    1  N   UNL     1      22.184  49.056  49.004  1.00  0.00    -0.336 N 
HETATM    2  C   UNL     1      23.378  48.524  49.353  1.00  0.00     0.316 C 
HETATM    3  N   UNL     1      23.424  47.184  49.556  1.00  0.00    -0.343 N 
HETATM    4  O   UNL     1      24.341  49.271  49.495  1.00  0.00    -0.248 OA
HETATM    5  H   UNL     1      22.257  50.066  48.939  1.00  0.00     0.164 HD
HETATM    6  H   UNL     1      22.792  46.621  49.007  1.00  0.00     0.164 HD
ENDROOT
BRANCH   1   7
HETATM    7  C   UNL     1      20.846  48.482  48.850  1.00  0.00     0.113 C 
HETATM    8  C   UNL     1      20.361  48.383  47.413  1.00  0.00     0.130 C 
HETATM    9  C   UNL     1      19.305  49.454  47.289  1.00  0.00     0.226 C 
HETATM   10  N   UNL     1      19.022  49.964  48.565  1.00  0.00    -0.316 N 
HETATM   11  O   UNL     1      18.803  49.757  46.216  1.00  0.00    -0.273 OA
HETATM   12  C   UNL     1      19.749  49.240  49.586  1.00  0.00     0.157 C 
BRANCH  10  13
HETATM   13  C   UNL     1      17.997  50.902  48.892  1.00  0.00     0.037 A 
HETATM   14  C   UNL     1      16.638  50.616  48.710  1.00  0.00     0.032 A 
HETATM   15  C   UNL     1      15.638  51.528  49.082  1.00  0.00     0.039 A 
HETATM   16  C   UNL     1      15.982  52.754  49.641  1.00  0.00     0.068 A 
HETATM   17  C   UNL     1      17.327  53.077  49.783  1.00  0.00     0.039 A 
HETATM   18  C   UNL     1      18.323  52.160  49.422  1.00  0.00     0.032 A 
BRANCH  16  19
HETATM   19  O   UNL     1      15.099  53.711  50.053  1.00  0.00    -0.352 OA
BRANCH  19  20
HETATM   20  C   UNL     1      13.893  53.219  50.643  1.00  0.00     0.171 C 
HETATM   21  C   UNL     1      12.746  54.080  50.144  1.00  0.00     0.034 C 
ENDBRANCH  19  20
ENDBRANCH  16  19
ENDBRANCH  10  13
ENDBRANCH   1   7
BRANCH   3  22
HETATM   22  C   UNL     1      24.658  46.526  49.957  1.00  0.00     0.129 C 
BRANCH  22  23
HETATM   23  C   UNL     1      24.800  45.077  49.462  1.00  0.00     0.058 C 
BRANCH  23  24
HETATM   24  C   UNL     1      25.750  44.151  50.196  1.00  0.00    -0.057 A 
HETATM   25  C   UNL     1      26.539  44.545  51.284  1.00  0.00     0.009 A 
HETATM   26  C   UNL     1      27.405  43.643  51.907  1.00  0.00     0.025 A 
HETATM   27  C   UNL     1      27.470  42.324  51.457  1.00  0.00     0.074 A 
HETATM   28  C   UNL     1      26.688  41.903  50.382  1.00  0.00     0.025 A 
HETATM   29  C   UNL     1      25.835  42.816  49.757  1.00  0.00     0.009 A 
BRANCH  27  30
HETATM   30  S   UNL     1      28.568  41.193  52.251  1.00  0.00     0.239 S 
HETATM   31  O   UNL     1      28.801  40.059  51.386  1.00  0.00    -0.206 OA
HETATM   32  O   UNL     1      29.642  41.933  52.867  1.00  0.00    -0.206 OA
BRANCH  30  33
HETATM   33  N   UNL     1      27.624  40.598  53.510  1.00  0.00    -0.225 NA
HETATM   34  H   UNL     1      27.501  41.324  54.216  1.00  0.00     0.136 HD
HETATM   35  H   UNL     1      26.750  40.227  53.137  1.00  0.00     0.136 HD
ENDBRANCH  30  33
ENDBRANCH  27  30
ENDBRANCH  23  24
ENDBRANCH  22  23
ENDBRANCH   3  22
TORSDOF 9
ENDMDL
