MODEL 1
REMARK VINA RESULT:      -9.9      0.000      0.000
REMARK  6 active torsions:
REMARK  status: ('A' for Active; 'I' for Inactive)
REMARK    1  A    between atoms: C_4  and  O_5 
REMARK    2  A    between atoms: O_5  and  C_6 
REMARK    3  A    between atoms: C_6  and  C_7 
REMARK       I    between atoms: C_7  and  N_8 
REMARK    4  A    between atoms: N_8  and  C_9 
REMARK    5  A    between atoms: C_16  and  C_17 
REMARK       I    between atoms: C_17  and  N_18 
REMARK    6  A    between atoms: C_23  and  C_24 
ROOT
HETATM    1  C   UNL     1      25.906  46.829  53.234  1.00  0.00     0.246 C 
HETATM    2  N   UNL     1      26.003  46.517  51.888  1.00  0.00    -0.325 N 
HETATM    3  O   UNL     1      25.501  47.884  53.712  1.00  0.00    -0.271 OA
HETATM    4  H   UNL     1      26.227  45.548  51.682  1.00  0.00     0.169 HD
ENDROOT
BRANCH   2   5
HETATM    5  C   UNL     1      25.810  47.385  50.792  1.00  0.00     0.035 A 
HETATM    6  C   UNL     1      24.551  47.665  50.242  1.00  0.00     0.046 A 
HETATM    7  C   UNL     1      24.437  48.588  49.179  1.00  0.00     0.030 A 
HETATM    8  C   UNL     1      25.588  49.198  48.696  1.00  0.00     0.063 A 
HETATM    9  C   UNL     1      23.373  49.127  48.393  1.00  0.00     0.156 A 
HETATM   10  N   UNL     1      25.166  50.025  47.693  1.00  0.00    -0.277 N 
HETATM   11  C   UNL     1      26.860  48.940  49.215  1.00  0.00     0.034 A 
HETATM   12  H   UNL     1      25.737  50.632  47.116  1.00  0.00     0.189 HD
HETATM   13  N   UNL     1      23.839  50.010  47.479  1.00  0.00    -0.168 NA
HETATM   14  C   UNL     1      26.944  48.024  50.273  1.00  0.00     0.032 A 
BRANCH   9  15
HETATM   15  C   UNL     1      21.939  48.823  48.500  1.00  0.00     0.270 C 
HETATM   16  N   UNL     1      21.337  49.354  49.609  1.00  0.00    -0.365 N 
HETATM   17  H   UNL     1      21.898  49.897  50.254  1.00  0.00     0.159 HD
HETATM   18  H   UNL     1      20.354  49.196  49.766  1.00  0.00     0.159 HD
HETATM   19  O   UNL     1      21.301  48.154  47.695  1.00  0.00    -0.266 OA
ENDBRANCH   9  15
ENDBRANCH   2   5
BRANCH   1  20
HETATM   20  C   UNL     1      26.484  45.744  54.141  1.00  0.00     0.278 C 
BRANCH  20  21
HETATM   21  O   UNL     1      27.675  46.167  54.806  1.00  0.00    -0.342 OA
BRANCH  21  22
HETATM   22  C   UNL     1      28.632  45.179  54.841  1.00  0.00     0.076 A 
HETATM   23  C   UNL     1      28.679  44.188  53.848  1.00  0.00     0.044 A 
HETATM   24  C   UNL     1      29.662  43.192  53.868  1.00  0.00    -0.059 A 
HETATM   25  C   UNL     1      29.730  42.151  52.790  1.00  0.00     0.048 C 
HETATM   26  C   UNL     1      30.578  43.172  54.919  1.00  0.00     0.007 A 
HETATM   27  C   UNL     1      30.513  44.133  55.930  1.00  0.00     0.011 A 
HETATM   28  C   UNL     1      29.537  45.150  55.915  1.00  0.00    -0.021 A 
BRANCH  28  29
HETATM   29  C   UNL     1      29.556  46.166  57.048  1.00  0.00     0.013 C 
HETATM   30  C   UNL     1      28.228  46.208  57.806  1.00  0.00     0.015 C 
HETATM   31  C   UNL     1      30.741  45.979  57.997  1.00  0.00     0.015 C 
ENDBRANCH  28  29
ENDBRANCH  21  22
ENDBRANCH  20  21
ENDBRANCH   1  20
TORSDOF 6
ENDMDL
MODEL 2
REMARK VINA RESULT:      -9.7      1.401      3.176
REMARK  6 active torsions:
REMARK  status: ('A' for Active; 'I' for Inactive)
REMARK    1  A    between atoms: C_4  and  O_5 
REMARK    2  A    between atoms: O_5  and  C_6 
REMARK    3  A    between atoms: C_6  and  C_7 
REMARK       I    between atoms: C_7  and  N_8 
REMARK    4  A    between atoms: N_8  and  C_9 
REMARK    5  A    between atoms: C_16  and  C_17 
REMARK       I    between atoms: C_17  and  N_18 
REMARK    6  A    between atoms: C_23  and  C_24 
ROOT
HETATM    1  C   UNL     1      25.797  46.815  53.233  1.00  0.00     0.246 C 
HETATM    2  N   UNL     1      25.841  46.491  51.887  1.00  0.00    -0.325 N 
HETATM    3  O   UNL     1      25.479  47.898  53.713  1.00  0.00    -0.271 OA
HETATM    4  H   UNL     1      25.990  45.508  51.682  1.00  0.00     0.169 HD
ENDROOT
BRANCH   2   5
HETATM    5  C   UNL     1      25.685  47.366  50.790  1.00  0.00     0.035 A 
HETATM    6  C   UNL     1      24.441  47.680  50.223  1.00  0.00     0.046 A 
HETATM    7  C   UNL     1      24.366  48.608  49.161  1.00  0.00     0.030 A 
HETATM    8  C   UNL     1      25.539  49.189  48.696  1.00  0.00     0.063 A 
HETATM    9  C   UNL     1      23.327  49.175  48.363  1.00  0.00     0.156 A 
HETATM   10  N   UNL     1      25.151  50.028  47.690  1.00  0.00    -0.277 N 
HETATM   11  C   UNL     1      26.796  48.897  49.231  1.00  0.00     0.034 A 
HETATM   12  H   UNL     1      25.746  50.621  47.121  1.00  0.00     0.189 HD
HETATM   13  N   UNL     1      23.828  50.048  47.457  1.00  0.00    -0.168 NA
HETATM   14  C   UNL     1      26.842  47.977  50.288  1.00  0.00     0.032 A 
BRANCH   9  15
HETATM   15  C   UNL     1      21.884  48.907  48.449  1.00  0.00     0.270 C 
HETATM   16  N   UNL     1      21.292  49.403  49.579  1.00  0.00    -0.365 N 
HETATM   17  H   UNL     1      21.865  49.899  50.252  1.00  0.00     0.159 HD
HETATM   18  H   UNL     1      20.303  49.266  49.724  1.00  0.00     0.159 HD
HETATM   19  O   UNL     1      21.232  48.297  47.610  1.00  0.00    -0.266 OA
ENDBRANCH   9  15
ENDBRANCH   2   5
BRANCH   1  20
HETATM   20  C   UNL     1      26.316  45.695  54.133  1.00  0.00     0.278 C 
BRANCH  20  21
HETATM   21  O   UNL     1      26.306  44.425  53.481  1.00  0.00    -0.342 OA
BRANCH  21  22
HETATM   22  C   UNL     1      27.552  43.839  53.461  1.00  0.00     0.076 A 
HETATM   23  C   UNL     1      28.489  44.106  54.471  1.00  0.00     0.044 A 
HETATM   24  C   UNL     1      29.749  43.499  54.467  1.00  0.00    -0.059 A 
HETATM   25  C   UNL     1      30.738  43.762  55.564  1.00  0.00     0.048 C 
HETATM   26  C   UNL     1      30.082  42.647  53.414  1.00  0.00     0.007 A 
HETATM   27  C   UNL     1      29.168  42.407  52.386  1.00  0.00     0.011 A 
HETATM   28  C   UNL     1      27.890  43.001  52.384  1.00  0.00    -0.021 A 
BRANCH  28  29
HETATM   29  C   UNL     1      26.954  42.664  51.233  1.00  0.00     0.013 C 
HETATM   30  C   UNL     1      27.045  43.686  50.099  1.00  0.00     0.015 C 
HETATM   31  C   UNL     1      27.130  41.235  50.720  1.00  0.00     0.015 C 
ENDBRANCH  28  29
ENDBRANCH  21  22
ENDBRANCH  20  21
ENDBRANCH   1  20
TORSDOF 6
ENDMDL
MODEL 3
REMARK VINA RESULT:      -9.3      5.093      8.087
REMARK  6 active torsions:
REMARK  status: ('A' for Active; 'I' for Inactive)
REMARK    1  A    between atoms: C_4  and  O_5 
REMARK    2  A    between atoms: O_5  and  C_6 
REMARK    3  A    between atoms: C_6  and  C_7 
REMARK       I    between atoms: C_7  and  N_8 
REMARK    4  A    between atoms: N_8  and  C_9 
REMARK    5  A    between atoms: C_16  and  C_17 
REMARK       I    between atoms: C_17  and  N_18 
REMARK    6  A    between atoms: C_23  and  C_24 
ROOT
HETATM    1  C   UNL     1      26.368  43.283  51.368  1.00  0.00     0.246 C 
HETATM    2  N   UNL     1      25.998  41.977  51.091  1.00  0.00    -0.325 N 
HETATM    3  O   UNL     1      27.140  43.978  50.714  1.00  0.00    -0.271 OA
HETATM    4  H   UNL     1      25.243  41.609  51.661  1.00  0.00     0.169 HD
ENDROOT
BRANCH   2   5
HETATM    5  C   UNL     1      26.540  41.125  50.104  1.00  0.00     0.035 A 
HETATM    6  C   UNL     1      27.477  40.119  50.382  1.00  0.00     0.046 A 
HETATM    7  C   UNL     1      27.930  39.273  49.346  1.00  0.00     0.030 A 
HETATM    8  C   UNL     1      27.435  39.464  48.062  1.00  0.00     0.063 A 
HETATM    9  C   UNL     1      28.830  38.170  49.238  1.00  0.00     0.156 A 
HETATM   10  N   UNL     1      28.044  38.510  47.296  1.00  0.00    -0.277 N 
HETATM   11  C   UNL     1      26.506  40.458  47.745  1.00  0.00     0.034 A 
HETATM   12  H   UNL     1      27.919  38.349  46.302  1.00  0.00     0.189 HD
HETATM   13  N   UNL     1      28.892  37.712  47.966  1.00  0.00    -0.168 NA
HETATM   14  C   UNL     1      26.070  41.281  48.794  1.00  0.00     0.032 A 
BRANCH   9  15
HETATM   15  C   UNL     1      29.619  37.550  50.313  1.00  0.00     0.270 C 
HETATM   16  N   UNL     1      28.962  36.553  50.983  1.00  0.00    -0.365 N 
HETATM   17  H   UNL     1      28.015  36.322  50.706  1.00  0.00     0.159 HD
HETATM   18  H   UNL     1      29.425  36.072  51.738  1.00  0.00     0.159 HD
HETATM   19  O   UNL     1      30.763  37.868  50.617  1.00  0.00    -0.266 OA
ENDBRANCH   9  15
ENDBRANCH   2   5
BRANCH   1  20
HETATM   20  C   UNL     1      25.803  43.794  52.692  1.00  0.00     0.278 C 
BRANCH  20  21
HETATM   21  O   UNL     1      26.643  43.471  53.802  1.00  0.00    -0.342 OA
BRANCH  21  22
HETATM   22  C   UNL     1      27.258  44.582  54.331  1.00  0.00     0.076 A 
HETATM   23  C   UNL     1      26.558  45.790  54.480  1.00  0.00     0.044 A 
HETATM   24  C   UNL     1      27.173  46.917  55.035  1.00  0.00    -0.059 A 
HETATM   25  C   UNL     1      26.414  48.198  55.222  1.00  0.00     0.048 C 
HETATM   26  C   UNL     1      28.515  46.838  55.405  1.00  0.00     0.007 A 
HETATM   27  C   UNL     1      29.228  45.651  55.224  1.00  0.00     0.011 A 
HETATM   28  C   UNL     1      28.618  44.504  54.679  1.00  0.00    -0.021 A 
BRANCH  28  29
HETATM   29  C   UNL     1      29.467  43.249  54.538  1.00  0.00     0.013 C 
HETATM   30  C   UNL     1      29.929  43.025  53.097  1.00  0.00     0.015 C 
HETATM   31  C   UNL     1      30.640  43.210  55.519  1.00  0.00     0.015 C 
ENDBRANCH  28  29
ENDBRANCH  21  22
ENDBRANCH  20  21
ENDBRANCH   1  20
TORSDOF 6
ENDMDL
MODEL 4
REMARK VINA RESULT:      -9.3      1.872      3.505
REMARK  6 active torsions:
REMARK  status: ('A' for Active; 'I' for Inactive)
REMARK    1  A    between atoms: C_4  and  O_5 
REMARK    2  A    between atoms: O_5  and  C_6 
REMARK    3  A    between atoms: C_6  and  C_7 
REMARK       I    between atoms: C_7  and  N_8 
REMARK    4  A    between atoms: N_8  and  C_9 
REMARK    5  A    between atoms: C_16  and  C_17 
REMARK       I    between atoms: C_17  and  N_18 
REMARK    6  A    between atoms: C_23  and  C_24 
ROOT
HETATM    1  C   UNL     1      25.666  44.846  53.556  1.00  0.00     0.246 C 
HETATM    2  N   UNL     1      25.922  45.513  52.369  1.00  0.00    -0.325 N 
HETATM    3  O   UNL     1      24.653  44.212  53.833  1.00  0.00    -0.271 OA
HETATM    4  H   UNL     1      26.869  45.864  52.264  1.00  0.00     0.169 HD
ENDROOT
BRANCH   2   5
HETATM    5  C   UNL     1      25.026  45.735  51.301  1.00  0.00     0.035 A 
HETATM    6  C   UNL     1      24.799  46.998  50.734  1.00  0.00     0.046 A 
HETATM    7  C   UNL     1      23.926  47.127  49.632  1.00  0.00     0.030 A 
HETATM    8  C   UNL     1      23.303  45.989  49.134  1.00  0.00     0.063 A 
HETATM    9  C   UNL     1      23.466  48.195  48.803  1.00  0.00     0.156 A 
HETATM   10  N   UNL     1      22.540  46.424  48.087  1.00  0.00    -0.277 N 
HETATM   11  C   UNL     1      23.500  44.716  49.676  1.00  0.00     0.034 A 
HETATM   12  H   UNL     1      21.946  45.864  47.485  1.00  0.00     0.189 HD
HETATM   13  N   UNL     1      22.610  47.746  47.856  1.00  0.00    -0.168 NA
HETATM   14  C   UNL     1      24.376  44.616  50.766  1.00  0.00     0.032 A 
BRANCH   9  15
HETATM   15  C   UNL     1      23.829  49.617  48.893  1.00  0.00     0.270 C 
HETATM   16  N   UNL     1      24.790  50.006  47.998  1.00  0.00    -0.365 N 
HETATM   17  H   UNL     1      25.171  49.314  47.363  1.00  0.00     0.159 HD
HETATM   18  H   UNL     1      25.102  50.964  47.988  1.00  0.00     0.159 HD
HETATM   19  O   UNL     1      23.342  50.417  49.684  1.00  0.00    -0.266 OA
ENDBRANCH   9  15
ENDBRANCH   2   5
BRANCH   1  20
HETATM   20  C   UNL     1      26.751  45.066  54.609  1.00  0.00     0.278 C 
BRANCH  20  21
HETATM   21  O   UNL     1      28.059  45.123  54.038  1.00  0.00    -0.342 OA
BRANCH  21  22
HETATM   22  C   UNL     1      29.038  44.775  54.942  1.00  0.00     0.076 A 
HETATM   23  C   UNL     1      29.342  45.609  56.029  1.00  0.00     0.044 A 
HETATM   24  C   UNL     1      30.323  45.252  56.961  1.00  0.00    -0.059 A 
HETATM   25  C   UNL     1      30.626  46.130  58.139  1.00  0.00     0.048 C 
HETATM   26  C   UNL     1      31.029  44.064  56.773  1.00  0.00     0.007 A 
HETATM   27  C   UNL     1      30.757  43.249  55.672  1.00  0.00     0.011 A 
HETATM   28  C   UNL     1      29.763  43.590  54.733  1.00  0.00    -0.021 A 
BRANCH  28  29
HETATM   29  C   UNL     1      29.522  42.630  53.577  1.00  0.00     0.013 C 
HETATM   30  C   UNL     1      28.304  41.735  53.815  1.00  0.00     0.015 C 
HETATM   31  C   UNL     1      29.446  43.336  52.223  1.00  0.00     0.015 C 
ENDBRANCH  28  29
ENDBRANCH  21  22
ENDBRANCH  20  21
ENDBRANCH   1  20
TORSDOF 6
ENDMDL
MODEL 5
REMARK VINA RESULT:      -9.0      2.207      3.348
REMARK  6 active torsions:
REMARK  status: ('A' for Active; 'I' for Inactive)
REMARK    1  A    between atoms: C_4  and  O_5 
REMARK    2  A    between atoms: O_5  and  C_6 
REMARK    3  A    between atoms: C_6  and  C_7 
REMARK       I    between atoms: C_7  and  N_8 
REMARK    4  A    between atoms: N_8  and  C_9 
REMARK    5  A    between atoms: C_16  and  C_17 
REMARK       I    between atoms: C_17  and  N_18 
REMARK    6  A    between atoms: C_23  and  C_24 
ROOT
HETATM    1  C   UNL     1      26.772  44.544  51.011  1.00  0.00     0.246 C 
HETATM    2  N   UNL     1      25.514  45.044  51.309  1.00  0.00    -0.325 N 
HETATM    3  O   UNL     1      27.338  44.595  49.923  1.00  0.00    -0.271 OA
HETATM    4  H   UNL     1      25.267  45.037  52.294  1.00  0.00     0.169 HD
ENDROOT
BRANCH   2   5
HETATM    5  C   UNL     1      24.565  45.568  50.405  1.00  0.00     0.035 A 
HETATM    6  C   UNL     1      24.513  46.920  50.038  1.00  0.00     0.046 A 
HETATM    7  C   UNL     1      23.566  47.355  49.086  1.00  0.00     0.030 A 
HETATM    8  C   UNL     1      22.696  46.423  48.533  1.00  0.00     0.063 A 
HETATM    9  C   UNL     1      23.224  48.596  48.467  1.00  0.00     0.156 A 
HETATM   10  N   UNL     1      21.917  47.129  47.660  1.00  0.00    -0.277 N 
HETATM   11  C   UNL     1      22.714  45.069  48.878  1.00  0.00     0.034 A 
HETATM   12  H   UNL     1      21.171  46.771  47.074  1.00  0.00     0.189 HD
HETATM   13  N   UNL     1      22.203  48.441  47.591  1.00  0.00    -0.168 NA
HETATM   14  C   UNL     1      23.667  44.664  49.822  1.00  0.00     0.032 A 
BRANCH   9  15
HETATM   15  C   UNL     1      23.847  49.908  48.688  1.00  0.00     0.270 C 
HETATM   16  N   UNL     1      24.969  50.128  47.934  1.00  0.00    -0.365 N 
HETATM   17  H   UNL     1      25.280  49.400  47.303  1.00  0.00     0.159 HD
HETATM   18  H   UNL     1      25.464  51.002  48.021  1.00  0.00     0.159 HD
HETATM   19  O   UNL     1      23.436  50.758  49.470  1.00  0.00    -0.266 OA
ENDBRANCH   9  15
ENDBRANCH   2   5
BRANCH   1  20
HETATM   20  C   UNL     1      27.398  43.775  52.172  1.00  0.00     0.278 C 
BRANCH  20  21
HETATM   21  O   UNL     1      26.887  44.191  53.439  1.00  0.00    -0.342 OA
BRANCH  21  22
HETATM   22  C   UNL     1      27.881  44.627  54.285  1.00  0.00     0.076 A 
HETATM   23  C   UNL     1      28.954  43.789  54.626  1.00  0.00     0.044 A 
HETATM   24  C   UNL     1      29.977  44.234  55.470  1.00  0.00    -0.059 A 
HETATM   25  C   UNL     1      31.139  43.348  55.810  1.00  0.00     0.048 C 
HETATM   26  C   UNL     1      29.897  45.519  56.006  1.00  0.00     0.007 A 
HETATM   27  C   UNL     1      28.813  46.344  55.701  1.00  0.00     0.011 A 
HETATM   28  C   UNL     1      27.782  45.914  54.841  1.00  0.00    -0.021 A 
BRANCH  28  29
HETATM   29  C   UNL     1      26.650  46.889  54.548  1.00  0.00     0.013 C 
HETATM   30  C   UNL     1      26.575  48.012  55.584  1.00  0.00     0.015 C 
HETATM   31  C   UNL     1      26.692  47.439  53.122  1.00  0.00     0.015 C 
ENDBRANCH  28  29
ENDBRANCH  21  22
ENDBRANCH  20  21
ENDBRANCH   1  20
TORSDOF 6
ENDMDL
MODEL 6
REMARK VINA RESULT:      -9.0      2.288      3.675
REMARK  6 active torsions:
REMARK  status: ('A' for Active; 'I' for Inactive)
REMARK    1  A    between atoms: C_4  and  O_5 
REMARK    2  A    between atoms: O_5  and  C_6 
REMARK    3  A    between atoms: C_6  and  C_7 
REMARK       I    between atoms: C_7  and  N_8 
REMARK    4  A    between atoms: N_8  and  C_9 
REMARK    5  A    between atoms: C_16  and  C_17 
REMARK       I    between atoms: C_17  and  N_18 
REMARK    6  A    between atoms: C_23  and  C_24 
ROOT
HETATM    1  C   UNL     1      25.475  44.535  51.262  1.00  0.00     0.246 C 
HETATM    2  N   UNL     1      25.411  45.190  50.043  1.00  0.00    -0.325 N 
HETATM    3  O   UNL     1      24.527  44.233  51.980  1.00  0.00    -0.271 OA
HETATM    4  H   UNL     1      26.284  45.231  49.526  1.00  0.00     0.169 HD
ENDROOT
BRANCH   2   5
HETATM    5  C   UNL     1      24.275  45.781  49.448  1.00  0.00     0.035 A 
HETATM    6  C   UNL     1      23.922  47.127  49.627  1.00  0.00     0.046 A 
HETATM    7  C   UNL     1      22.800  47.655  48.953  1.00  0.00     0.030 A 
HETATM    8  C   UNL     1      22.063  46.819  48.123  1.00  0.00     0.063 A 
HETATM    9  C   UNL     1      22.154  48.926  48.869  1.00  0.00     0.156 A 
HETATM   10  N   UNL     1      21.063  47.602  47.618  1.00  0.00    -0.277 N 
HETATM   11  C   UNL     1      22.381  45.473  47.924  1.00  0.00     0.034 A 
HETATM   12  H   UNL     1      20.333  47.325  46.971  1.00  0.00     0.189 HD
HETATM   13  N   UNL     1      21.083  48.877  48.044  1.00  0.00    -0.168 NA
HETATM   14  C   UNL     1      23.503  44.976  48.602  1.00  0.00     0.032 A 
BRANCH   9  15
HETATM   15  C   UNL     1      22.538  50.172  49.549  1.00  0.00     0.270 C 
HETATM   16  N   UNL     1      21.587  50.655  50.407  1.00  0.00    -0.365 N 
HETATM   17  H   UNL     1      20.719  50.143  50.510  1.00  0.00     0.159 HD
HETATM   18  H   UNL     1      21.764  51.507  50.917  1.00  0.00     0.159 HD
HETATM   19  O   UNL     1      23.601  50.760  49.388  1.00  0.00    -0.266 OA
ENDBRANCH   9  15
ENDBRANCH   2   5
BRANCH   1  20
HETATM   20  C   UNL     1      26.908  44.303  51.739  1.00  0.00     0.278 C 
BRANCH  20  21
HETATM   21  O   UNL     1      26.962  43.822  53.083  1.00  0.00    -0.342 OA
BRANCH  21  22
HETATM   22  C   UNL     1      27.470  44.760  53.953  1.00  0.00     0.076 A 
HETATM   23  C   UNL     1      26.803  45.977  54.167  1.00  0.00     0.044 A 
HETATM   24  C   UNL     1      27.304  46.926  55.064  1.00  0.00    -0.059 A 
HETATM   25  C   UNL     1      26.574  48.212  55.315  1.00  0.00     0.048 C 
HETATM   26  C   UNL     1      28.507  46.664  55.720  1.00  0.00     0.007 A 
HETATM   27  C   UNL     1      29.194  45.472  55.482  1.00  0.00     0.011 A 
HETATM   28  C   UNL     1      28.695  44.501  54.591  1.00  0.00    -0.021 A 
BRANCH  28  29
HETATM   29  C   UNL     1      29.501  43.223  54.410  1.00  0.00     0.013 C 
HETATM   30  C   UNL     1      30.072  43.097  52.997  1.00  0.00     0.015 C 
HETATM   31  C   UNL     1      30.586  43.048  55.474  1.00  0.00     0.015 C 
ENDBRANCH  28  29
ENDBRANCH  21  22
ENDBRANCH  20  21
ENDBRANCH   1  20
TORSDOF 6
ENDMDL
MODEL 7
REMARK VINA RESULT:      -9.0      1.886      3.397
REMARK  6 active torsions:
REMARK  status: ('A' for Active; 'I' for Inactive)
REMARK    1  A    between atoms: C_4  and  O_5 
REMARK    2  A    between atoms: O_5  and  C_6 
REMARK    3  A    between atoms: C_6  and  C_7 
REMARK       I    between atoms: C_7  and  N_8 
REMARK    4  A    between atoms: N_8  and  C_9 
REMARK    5  A    between atoms: C_16  and  C_17 
REMARK       I    between atoms: C_17  and  N_18 
REMARK    6  A    between atoms: C_23  and  C_24 
ROOT
HETATM    1  C   UNL     1      26.366  45.387  49.785  1.00  0.00     0.246 C 
HETATM    2  N   UNL     1      26.593  46.748  49.899  1.00  0.00    -0.325 N 
HETATM    3  O   UNL     1      25.517  44.845  49.085  1.00  0.00    -0.271 OA
HETATM    4  H   UNL     1      27.428  47.007  50.417  1.00  0.00     0.169 HD
ENDROOT
BRANCH   2   5
HETATM    5  C   UNL     1      25.810  47.795  49.366  1.00  0.00     0.035 A 
HETATM    6  C   UNL     1      24.407  47.783  49.359  1.00  0.00     0.046 A 
HETATM    7  C   UNL     1      23.697  48.894  48.855  1.00  0.00     0.030 A 
HETATM    8  C   UNL     1      24.412  49.982  48.370  1.00  0.00     0.063 A 
HETATM    9  C   UNL     1      22.324  49.252  48.697  1.00  0.00     0.156 A 
HETATM   10  N   UNL     1      23.468  50.883  47.964  1.00  0.00    -0.277 N 
HETATM   11  C   UNL     1      25.809  50.028  48.355  1.00  0.00     0.034 A 
HETATM   12  H   UNL     1      23.627  51.798  47.557  1.00  0.00     0.189 HD
HETATM   13  N   UNL     1      22.199  50.481  48.144  1.00  0.00    -0.168 NA
HETATM   14  C   UNL     1      26.489  48.913  48.866  1.00  0.00     0.032 A 
BRANCH   9  15
HETATM   15  C   UNL     1      21.143  48.456  49.064  1.00  0.00     0.270 C 
HETATM   16  N   UNL     1      20.372  49.021  50.044  1.00  0.00    -0.365 N 
HETATM   17  H   UNL     1      20.656  49.911  50.434  1.00  0.00     0.159 HD
HETATM   18  H   UNL     1      19.542  48.544  50.361  1.00  0.00     0.159 HD
HETATM   19  O   UNL     1      20.842  47.377  48.566  1.00  0.00    -0.266 OA
ENDBRANCH   9  15
ENDBRANCH   2   5
BRANCH   1  20
HETATM   20  C   UNL     1      27.221  44.558  50.741  1.00  0.00     0.278 C 
BRANCH  20  21
HETATM   21  O   UNL     1      26.532  44.238  51.951  1.00  0.00    -0.342 OA
BRANCH  21  22
HETATM   22  C   UNL     1      27.114  44.822  53.053  1.00  0.00     0.076 A 
HETATM   23  C   UNL     1      26.640  46.045  53.554  1.00  0.00     0.044 A 
HETATM   24  C   UNL     1      27.216  46.633  54.685  1.00  0.00    -0.059 A 
HETATM   25  C   UNL     1      26.689  47.924  55.238  1.00  0.00     0.048 C 
HETATM   26  C   UNL     1      28.303  46.005  55.291  1.00  0.00     0.007 A 
HETATM   27  C   UNL     1      28.804  44.808  54.774  1.00  0.00     0.011 A 
HETATM   28  C   UNL     1      28.225  44.196  53.644  1.00  0.00    -0.021 A 
BRANCH  28  29
HETATM   29  C   UNL     1      28.824  42.882  53.164  1.00  0.00     0.013 C 
HETATM   30  C   UNL     1      30.335  42.819  53.397  1.00  0.00     0.015 C 
HETATM   31  C   UNL     1      28.113  41.658  53.742  1.00  0.00     0.015 C 
ENDBRANCH  28  29
ENDBRANCH  21  22
ENDBRANCH  20  21
ENDBRANCH   1  20
TORSDOF 6
ENDMDL
MODEL 8
REMARK VINA RESULT:      -8.7      5.444      7.740
REMARK  6 active torsions:
REMARK  status: ('A' for Active; 'I' for Inactive)
REMARK    1  A    between atoms: C_4  and  O_5 
REMARK    2  A    between atoms: O_5  and  C_6 
REMARK    3  A    between atoms: C_6  and  C_7 
REMARK       I    between atoms: C_7  and  N_8 
REMARK    4  A    between atoms: N_8  and  C_9 
REMARK    5  A    between atoms: C_16  and  C_17 
REMARK       I    between atoms: C_17  and  N_18 
REMARK    6  A    between atoms: C_23  and  C_24 
ROOT
HETATM    1  C   UNL     1      27.994  41.574  52.246  1.00  0.00     0.246 C 
HETATM    2  N   UNL     1      28.661  40.375  52.053  1.00  0.00    -0.325 N 
HETATM    3  O   UNL     1      27.248  42.131  51.447  1.00  0.00    -0.271 OA
HETATM    4  H   UNL     1      29.122  39.997  52.875  1.00  0.00     0.169 HD
ENDROOT
BRANCH   2   5
HETATM    5  C   UNL     1      28.751  39.629  50.858  1.00  0.00     0.035 A 
HETATM    6  C   UNL     1      28.133  40.013  49.659  1.00  0.00     0.046 A 
HETATM    7  C   UNL     1      28.317  39.238  48.493  1.00  0.00     0.030 A 
HETATM    8  C   UNL     1      29.110  38.100  48.564  1.00  0.00     0.063 A 
HETATM    9  C   UNL     1      27.884  39.306  47.134  1.00  0.00     0.156 A 
HETATM   10  N   UNL     1      29.102  37.575  47.302  1.00  0.00    -0.277 N 
HETATM   11  C   UNL     1      29.737  37.682  49.740  1.00  0.00     0.034 A 
HETATM   12  H   UNL     1      29.579  36.740  46.981  1.00  0.00     0.189 HD
HETATM   13  N   UNL     1      28.375  38.272  46.412  1.00  0.00    -0.168 NA
HETATM   14  C   UNL     1      29.542  38.472  50.882  1.00  0.00     0.032 A 
BRANCH   9  15
HETATM   15  C   UNL     1      27.027  40.329  46.517  1.00  0.00     0.270 C 
HETATM   16  N   UNL     1      27.697  41.202  45.703  1.00  0.00    -0.365 N 
HETATM   17  H   UNL     1      28.697  41.089  45.587  1.00  0.00     0.159 HD
HETATM   18  H   UNL     1      27.189  41.939  45.238  1.00  0.00     0.159 HD
HETATM   19  O   UNL     1      25.818  40.430  46.693  1.00  0.00    -0.266 OA
ENDBRANCH   9  15
ENDBRANCH   2   5
BRANCH   1  20
HETATM   20  C   UNL     1      28.365  42.257  53.561  1.00  0.00     0.278 C 
BRANCH  20  21
HETATM   21  O   UNL     1      28.928  43.554  53.360  1.00  0.00    -0.342 OA
BRANCH  21  22
HETATM   22  C   UNL     1      29.403  44.102  54.530  1.00  0.00     0.076 A 
HETATM   23  C   UNL     1      30.427  43.473  55.255  1.00  0.00     0.044 A 
HETATM   24  C   UNL     1      30.928  44.036  56.434  1.00  0.00    -0.059 A 
HETATM   25  C   UNL     1      32.043  43.378  57.192  1.00  0.00     0.048 C 
HETATM   26  C   UNL     1      30.365  45.221  56.906  1.00  0.00     0.007 A 
HETATM   27  C   UNL     1      29.320  45.832  56.209  1.00  0.00     0.011 A 
HETATM   28  C   UNL     1      28.815  45.284  55.013  1.00  0.00    -0.021 A 
BRANCH  28  29
HETATM   29  C   UNL     1      27.690  46.030  54.311  1.00  0.00     0.013 C 
HETATM   30  C   UNL     1      26.338  45.338  54.494  1.00  0.00     0.015 C 
HETATM   31  C   UNL     1      27.624  47.508  54.697  1.00  0.00     0.015 C 
ENDBRANCH  28  29
ENDBRANCH  21  22
ENDBRANCH  20  21
ENDBRANCH   1  20
TORSDOF 6
ENDMDL
MODEL 9
REMARK VINA RESULT:      -8.7      4.500      6.404
REMARK  6 active torsions:
REMARK  status: ('A' for Active; 'I' for Inactive)
REMARK    1  A    between atoms: C_4  and  O_5 
REMARK    2  A    between atoms: O_5  and  C_6 
REMARK    3  A    between atoms: C_6  and  C_7 
REMARK       I    between atoms: C_7  and  N_8 
REMARK    4  A    between atoms: N_8  and  C_9 
REMARK    5  A    between atoms: C_16  and  C_17 
REMARK       I    between atoms: C_17  and  N_18 
REMARK    6  A    between atoms: C_23  and  C_24 
ROOT
HETATM    1  C   UNL     1      28.603  41.465  52.534  1.00  0.00     0.246 C 
HETATM    2  N   UNL     1      28.763  41.238  51.177  1.00  0.00    -0.325 N 
HETATM    3  O   UNL     1      27.663  41.094  53.231  1.00  0.00    -0.271 OA
HETATM    4  H   UNL     1      29.668  41.497  50.797  1.00  0.00     0.169 HD
ENDROOT
BRANCH   2   5
HETATM    5  C   UNL     1      27.821  40.679  50.286  1.00  0.00     0.035 A 
HETATM    6  C   UNL     1      26.662  41.349  49.867  1.00  0.00     0.046 A 
HETATM    7  C   UNL     1      25.798  40.741  48.930  1.00  0.00     0.030 A 
HETATM    8  C   UNL     1      26.118  39.478  48.446  1.00  0.00     0.063 A 
HETATM    9  C   UNL     1      24.580  41.093  48.274  1.00  0.00     0.156 A 
HETATM   10  N   UNL     1      25.116  39.163  47.571  1.00  0.00    -0.277 N 
HETATM   11  C   UNL     1      27.260  38.778  48.843  1.00  0.00     0.034 A 
HETATM   12  H   UNL     1      25.021  38.313  47.026  1.00  0.00     0.189 HD
HETATM   13  N   UNL     1      24.170  40.108  47.441  1.00  0.00    -0.168 NA
HETATM   14  C   UNL     1      28.103  39.407  49.770  1.00  0.00     0.032 A 
BRANCH   9  15
HETATM   15  C   UNL     1      23.812  42.338  48.422  1.00  0.00     0.270 C 
HETATM   16  N   UNL     1      24.160  43.318  47.531  1.00  0.00    -0.365 N 
HETATM   17  H   UNL     1      24.895  43.127  46.861  1.00  0.00     0.159 HD
HETATM   18  H   UNL     1      23.687  44.208  47.559  1.00  0.00     0.159 HD
HETATM   19  O   UNL     1      22.933  42.526  49.255  1.00  0.00    -0.266 OA
ENDBRANCH   9  15
ENDBRANCH   2   5
BRANCH   1  20
HETATM   20  C   UNL     1      29.689  42.366  53.120  1.00  0.00     0.278 C 
BRANCH  20  21
HETATM   21  O   UNL     1      29.222  43.694  53.360  1.00  0.00    -0.342 OA
BRANCH  21  22
HETATM   22  C   UNL     1      29.603  44.165  54.596  1.00  0.00     0.076 A 
HETATM   23  C   UNL     1      30.612  43.523  55.331  1.00  0.00     0.044 A 
HETATM   24  C   UNL     1      31.017  44.009  56.578  1.00  0.00    -0.059 A 
HETATM   25  C   UNL     1      32.116  43.340  57.349  1.00  0.00     0.048 C 
HETATM   26  C   UNL     1      30.372  45.126  57.107  1.00  0.00     0.007 A 
HETATM   27  C   UNL     1      29.341  45.747  56.398  1.00  0.00     0.011 A 
HETATM   28  C   UNL     1      28.932  45.277  55.134  1.00  0.00    -0.021 A 
BRANCH  28  29
HETATM   29  C   UNL     1      27.815  46.029  54.426  1.00  0.00     0.013 C 
HETATM   30  C   UNL     1      26.472  45.305  54.537  1.00  0.00     0.015 C 
HETATM   31  C   UNL     1      27.706  47.489  54.868  1.00  0.00     0.015 C 
ENDBRANCH  28  29
ENDBRANCH  21  22
ENDBRANCH  20  21
ENDBRANCH   1  20
TORSDOF 6
ENDMDL
MODEL 10
REMARK VINA RESULT:      -8.7      5.316      7.845
REMARK  6 active torsions:
REMARK  status: ('A' for Active; 'I' for Inactive)
REMARK    1  A    between atoms: C_4  and  O_5 
REMARK    2  A    between atoms: O_5  and  C_6 
REMARK    3  A    between atoms: C_6  and  C_7 
REMARK       I    between atoms: C_7  and  N_8 
REMARK    4  A    between atoms: N_8  and  C_9 
REMARK    5  A    between atoms: C_16  and  C_17 
REMARK       I    between atoms: C_17  and  N_18 
REMARK    6  A    between atoms: C_23  and  C_24 
ROOT
HETATM    1  C   UNL     1      26.610  42.999  51.206  1.00  0.00     0.246 C 
HETATM    2  N   UNL     1      26.454  41.647  51.462  1.00  0.00    -0.325 N 
HETATM    3  O   UNL     1      27.170  43.498  50.235  1.00  0.00    -0.271 OA
HETATM    4  H   UNL     1      25.842  41.420  52.241  1.00  0.00     0.169 HD
ENDROOT
BRANCH   2   5
HETATM    5  C   UNL     1      27.031  40.569  50.757  1.00  0.00     0.035 A 
HETATM    6  C   UNL     1      26.398  39.920  49.686  1.00  0.00     0.046 A 
HETATM    7  C   UNL     1      27.067  38.884  48.997  1.00  0.00     0.030 A 
HETATM    8  C   UNL     1      28.347  38.528  49.404  1.00  0.00     0.063 A 
HETATM    9  C   UNL     1      26.775  38.027  47.893  1.00  0.00     0.156 A 
HETATM   10  N   UNL     1      28.726  37.522  48.560  1.00  0.00    -0.277 N 
HETATM   11  C   UNL     1      29.007  39.148  50.467  1.00  0.00     0.034 A 
HETATM   12  H   UNL     1      29.607  37.019  48.560  1.00  0.00     0.189 HD
HETATM   13  N   UNL     1      27.807  37.190  47.637  1.00  0.00    -0.168 NA
HETATM   14  C   UNL     1      28.322  40.176  51.131  1.00  0.00     0.032 A 
BRANCH   9  15
HETATM   15  C   UNL     1      25.547  37.996  47.085  1.00  0.00     0.270 C 
HETATM   16  N   UNL     1      24.703  36.962  47.393  1.00  0.00    -0.365 N 
HETATM   17  H   UNL     1      24.972  36.316  48.125  1.00  0.00     0.159 HD
HETATM   18  H   UNL     1      23.836  36.860  46.888  1.00  0.00     0.159 HD
HETATM   19  O   UNL     1      25.267  38.799  46.203  1.00  0.00    -0.266 OA
ENDBRANCH   9  15
ENDBRANCH   2   5
BRANCH   1  20
HETATM   20  C   UNL     1      26.108  43.884  52.346  1.00  0.00     0.278 C 
BRANCH  20  21
HETATM   21  O   UNL     1      26.681  43.527  53.604  1.00  0.00    -0.342 OA
BRANCH  21  22
HETATM   22  C   UNL     1      27.284  44.597  54.225  1.00  0.00     0.076 A 
HETATM   23  C   UNL     1      26.596  45.808  54.400  1.00  0.00     0.044 A 
HETATM   24  C   UNL     1      27.197  46.893  55.047  1.00  0.00    -0.059 A 
HETATM   25  C   UNL     1      26.450  48.176  55.260  1.00  0.00     0.048 C 
HETATM   26  C   UNL     1      28.515  46.769  55.486  1.00  0.00     0.007 A 
HETATM   27  C   UNL     1      29.217  45.579  55.281  1.00  0.00     0.011 A 
HETATM   28  C   UNL     1      28.620  44.474  54.643  1.00  0.00    -0.021 A 
BRANCH  28  29
HETATM   29  C   UNL     1      29.455  43.212  54.483  1.00  0.00     0.013 C 
HETATM   30  C   UNL     1      29.922  43.009  53.040  1.00  0.00     0.015 C 
HETATM   31  C   UNL     1      30.622  43.141  55.468  1.00  0.00     0.015 C 
ENDBRANCH  28  29
ENDBRANCH  21  22
ENDBRANCH  20  21
ENDBRANCH   1  20
TORSDOF 6
ENDMDL
