MODEL 1
REMARK VINA RESULT:      -8.9      0.000      0.000
REMARK  7 active torsions:
REMARK  status: ('A' for Active; 'I' for Inactive)
REMARK    1  A    between atoms: C_8  and  C_9 
REMARK    2  A    between atoms: C_9  and  N_10 
REMARK    3  A    between atoms: C_14  and  C_15 
REMARK    4  A    between atoms: C_15  and  C_16 
REMARK    5  A    between atoms: C_16  and  C_17 
REMARK    6  A    between atoms: N_27  and  C_28 
REMARK    7  A    between atoms: C_28  and  C_29 
ROOT
HETATM    1  C   UNL     1      26.154  44.214  52.193  1.00  0.00     0.123 C 
HETATM    2  N   UNL     1      24.758  44.058  51.803  1.00  0.00    -0.324 N 
HETATM    3  C   UNL     1      24.532  42.825  51.222  1.00  0.00     0.326 C 
HETATM    4  O   UNL     1      23.407  42.409  51.014  1.00  0.00    -0.247 OA
HETATM    5  N   UNL     1      25.722  42.232  50.960  1.00  0.00    -0.268 N 
HETATM    6  C   UNL     1      26.748  43.006  51.427  1.00  0.00     0.257 C 
HETATM    7  O   UNL     1      27.940  42.787  51.280  1.00  0.00    -0.270 OA
HETATM    8  H   UNL     1      23.975  44.384  52.362  1.00  0.00     0.165 HD
ENDROOT
BRANCH   1   9
HETATM    9  C   UNL     1      26.768  45.563  51.694  1.00  0.00     0.027 C 
HETATM   10  C   UNL     1      25.981  46.827  52.083  1.00  0.00     0.035 C 
HETATM   11  C   UNL     1      24.727  47.077  51.253  1.00  0.00     0.235 C 
HETATM   12  N   UNL     1      25.033  47.064  49.779  1.00  0.00    -0.067 N 
HETATM   13  H   UNL     1      25.609  47.894  49.577  1.00  0.00     0.280 HD
HETATM   14  C   UNL     1      25.807  45.857  49.317  1.00  0.00     0.235 C 
HETATM   15  C   UNL     1      27.044  45.641  50.176  1.00  0.00     0.035 C 
BRANCH  12  16
HETATM   16  C   UNL     1      23.775  47.223  48.934  1.00  0.00     0.278 C 
BRANCH  16  17
HETATM   17  C   UNL     1      23.329  48.622  48.766  1.00  0.00     0.034 A 
HETATM   18  C   UNL     1      24.115  49.773  48.469  1.00  0.00     0.062 A 
HETATM   19  C   UNL     1      25.581  49.866  48.234  1.00  0.00     0.073 C 
HETATM   20  N   UNL     1      23.367  50.877  48.383  1.00  0.00    -0.176 NA
HETATM   21  N   UNL     1      22.117  50.471  48.685  1.00  0.00    -0.262 N 
HETATM   22  C   UNL     1      21.055  51.447  48.771  1.00  0.00     0.181 C 
HETATM   23  C   UNL     1      22.055  49.125  48.880  1.00  0.00     0.131 A 
HETATM   24 CL   UNL     1      20.583  48.342  49.210  1.00  0.00    -0.062 Cl
ENDBRANCH  16  17
ENDBRANCH  12  16
ENDBRANCH   1   9
BRANCH   1  25
HETATM   25  C   UNL     1      26.257  43.948  53.723  1.00  0.00     0.080 C 
BRANCH  25  26
HETATM   26  C   UNL     1      27.547  44.317  54.411  1.00  0.00    -0.052 A 
HETATM   27  C   UNL     1      28.663  43.476  54.368  1.00  0.00     0.049 A 
HETATM   28  C   UNL     1      29.845  43.853  55.004  1.00  0.00     0.116 A 
HETATM   29  F   UNL     1      30.901  43.031  54.956  1.00  0.00    -0.206 F 
HETATM   30  C   UNL     1      29.947  45.061  55.679  1.00  0.00     0.042 A 
HETATM   31  C   UNL     1      28.846  45.912  55.721  1.00  0.00     0.003 A 
HETATM   32  C   UNL     1      27.655  45.543  55.090  1.00  0.00     0.007 A 
ENDBRANCH  25  26
ENDBRANCH   1  25
BRANCH   5  33
HETATM   33  C   UNL     1      25.881  40.923  50.347  1.00  0.00     0.140 C 
BRANCH  33  34
HETATM   34  C   UNL     1      26.226  40.938  48.846  1.00  0.00    -0.004 C 
HETATM   35  C   UNL     1      27.514  40.179  48.529  1.00  0.00     0.011 C 
HETATM   36  C   UNL     1      25.081  40.434  47.970  1.00  0.00     0.011 C 
ENDBRANCH  33  34
ENDBRANCH   5  33
TORSDOF 7
ENDMDL
MODEL 2
REMARK VINA RESULT:      -8.4     12.033     14.266
REMARK  7 active torsions:
REMARK  status: ('A' for Active; 'I' for Inactive)
REMARK    1  A    between atoms: C_8  and  C_9 
REMARK    2  A    between atoms: C_9  and  N_10 
REMARK    3  A    between atoms: C_14  and  C_15 
REMARK    4  A    between atoms: C_15  and  C_16 
REMARK    5  A    between atoms: C_16  and  C_17 
REMARK    6  A    between atoms: N_27  and  C_28 
REMARK    7  A    between atoms: C_28  and  C_29 
ROOT
HETATM    1  C   UNL     1      30.541  51.959  40.126  1.00  0.00     0.123 C 
HETATM    2  N   UNL     1      30.892  51.255  38.900  1.00  0.00    -0.324 N 
HETATM    3  C   UNL     1      32.181  51.555  38.499  1.00  0.00     0.326 C 
HETATM    4  O   UNL     1      32.745  50.924  37.624  1.00  0.00    -0.247 OA
HETATM    5  N   UNL     1      32.639  52.604  39.225  1.00  0.00    -0.268 N 
HETATM    6  C   UNL     1      31.715  52.967  40.165  1.00  0.00     0.257 C 
HETATM    7  O   UNL     1      31.796  53.922  40.923  1.00  0.00    -0.270 OA
HETATM    8  H   UNL     1      30.628  50.295  38.703  1.00  0.00     0.165 HD
ENDROOT
BRANCH   1   9
HETATM    9  C   UNL     1      29.163  52.693  40.022  1.00  0.00     0.027 C 
HETATM   10  C   UNL     1      28.212  52.477  41.213  1.00  0.00     0.035 C 
HETATM   11  C   UNL     1      27.505  51.126  41.227  1.00  0.00     0.235 C 
HETATM   12  N   UNL     1      26.805  50.860  39.921  1.00  0.00    -0.067 N 
HETATM   13  H   UNL     1      26.022  51.526  39.850  1.00  0.00     0.280 HD
HETATM   14  C   UNL     1      27.670  51.053  38.702  1.00  0.00     0.235 C 
HETATM   15  C   UNL     1      28.360  52.409  38.733  1.00  0.00     0.035 C 
BRANCH  12  16
HETATM   16  C   UNL     1      26.170  49.476  39.886  1.00  0.00     0.278 C 
BRANCH  16  17
HETATM   17  C   UNL     1      27.026  48.429  39.291  1.00  0.00     0.034 A 
HETATM   18  C   UNL     1      26.966  47.875  37.980  1.00  0.00     0.062 A 
HETATM   19  C   UNL     1      26.042  48.215  36.865  1.00  0.00     0.073 C 
HETATM   20  N   UNL     1      27.909  46.947  37.788  1.00  0.00    -0.176 NA
HETATM   21  N   UNL     1      28.538  46.844  38.976  1.00  0.00    -0.262 N 
HETATM   22  C   UNL     1      29.573  45.851  39.148  1.00  0.00     0.181 C 
HETATM   23  C   UNL     1      28.060  47.742  39.882  1.00  0.00     0.131 A 
HETATM   24 CL   UNL     1      28.723  47.869  41.442  1.00  0.00    -0.062 Cl
ENDBRANCH  16  17
ENDBRANCH  12  16
ENDBRANCH   1   9
BRANCH   1  25
HETATM   25  C   UNL     1      30.687  50.960  41.311  1.00  0.00     0.080 C 
BRANCH  25  26
HETATM   26  C   UNL     1      31.732  51.262  42.355  1.00  0.00    -0.052 A 
HETATM   27  C   UNL     1      33.078  50.939  42.156  1.00  0.00     0.049 A 
HETATM   28  C   UNL     1      34.021  51.245  43.136  1.00  0.00     0.116 A 
HETATM   29  F   UNL     1      35.304  50.922  42.929  1.00  0.00    -0.206 F 
HETATM   30  C   UNL     1      33.655  51.877  44.316  1.00  0.00     0.042 A 
HETATM   31  C   UNL     1      32.319  52.213  44.522  1.00  0.00     0.003 A 
HETATM   32  C   UNL     1      31.365  51.909  43.548  1.00  0.00     0.007 A 
ENDBRANCH  25  26
ENDBRANCH   1  25
BRANCH   5  33
HETATM   33  C   UNL     1      33.957  53.201  39.081  1.00  0.00     0.140 C 
BRANCH  33  34
HETATM   34  C   UNL     1      35.065  52.561  39.939  1.00  0.00    -0.004 C 
HETATM   35  C   UNL     1      35.622  51.279  39.323  1.00  0.00     0.011 C 
HETATM   36  C   UNL     1      36.199  53.533  40.263  1.00  0.00     0.011 C 
ENDBRANCH  33  34
ENDBRANCH   5  33
TORSDOF 7
ENDMDL
MODEL 3
REMARK VINA RESULT:      -8.2      6.872      9.934
REMARK  7 active torsions:
REMARK  status: ('A' for Active; 'I' for Inactive)
REMARK    1  A    between atoms: C_8  and  C_9 
REMARK    2  A    between atoms: C_9  and  N_10 
REMARK    3  A    between atoms: C_14  and  C_15 
REMARK    4  A    between atoms: C_15  and  C_16 
REMARK    5  A    between atoms: C_16  and  C_17 
REMARK    6  A    between atoms: N_27  and  C_28 
REMARK    7  A    between atoms: C_28  and  C_29 
ROOT
HETATM    1  C   UNL     1      19.117  49.781  48.435  1.00  0.00     0.123 C 
HETATM    2  N   UNL     1      17.854  49.341  49.013  1.00  0.00    -0.324 N 
HETATM    3  C   UNL     1      17.568  48.034  48.665  1.00  0.00     0.326 C 
HETATM    4  O   UNL     1      16.675  47.405  49.204  1.00  0.00    -0.247 OA
HETATM    5  N   UNL     1      18.420  47.638  47.688  1.00  0.00    -0.268 N 
HETATM    6  C   UNL     1      19.329  48.626  47.426  1.00  0.00     0.257 C 
HETATM    7  O   UNL     1      20.179  48.608  46.548  1.00  0.00    -0.270 OA
HETATM    8  H   UNL     1      17.548  49.578  49.952  1.00  0.00     0.165 HD
ENDROOT
BRANCH   1   9
HETATM    9  C   UNL     1      18.994  51.159  47.706  1.00  0.00     0.027 C 
HETATM   10  C   UNL     1      19.005  52.393  48.627  1.00  0.00     0.035 C 
HETATM   11  C   UNL     1      17.694  52.650  49.362  1.00  0.00     0.235 C 
HETATM   12  N   UNL     1      16.531  52.699  48.407  1.00  0.00    -0.067 N 
HETATM   13  H   UNL     1      16.640  53.547  47.832  1.00  0.00     0.280 HD
HETATM   14  C   UNL     1      16.451  51.526  47.466  1.00  0.00     0.235 C 
HETATM   15  C   UNL     1      17.780  51.301  46.761  1.00  0.00     0.035 C 
BRANCH  12  16
HETATM   16  C   UNL     1      15.203  52.867  49.134  1.00  0.00     0.278 C 
BRANCH  16  17
HETATM   17  C   UNL     1      14.619  54.220  49.030  1.00  0.00     0.034 A 
HETATM   18  C   UNL     1      14.021  54.842  47.896  1.00  0.00     0.062 A 
HETATM   19  C   UNL     1      13.811  54.288  46.531  1.00  0.00     0.073 C 
HETATM   20  N   UNL     1      13.594  56.077  48.174  1.00  0.00    -0.176 NA
HETATM   21  N   UNL     1      13.965  56.292  49.452  1.00  0.00    -0.262 N 
HETATM   22  C   UNL     1      13.731  57.585  50.053  1.00  0.00     0.181 C 
HETATM   23  C   UNL     1      14.544  55.189  50.002  1.00  0.00     0.131 A 
HETATM   24 CL   UNL     1      15.047  55.166  51.626  1.00  0.00    -0.062 Cl
ENDBRANCH  16  17
ENDBRANCH  12  16
ENDBRANCH   1   9
BRANCH   1  25
HETATM   25  C   UNL     1      20.206  49.696  49.543  1.00  0.00     0.080 C 
BRANCH  25  26
HETATM   26  C   UNL     1      21.649  49.702  49.106  1.00  0.00    -0.052 A 
HETATM   27  C   UNL     1      22.475  48.590  49.299  1.00  0.00     0.049 A 
HETATM   28  C   UNL     1      23.802  48.624  48.871  1.00  0.00     0.116 A 
HETATM   29  F   UNL     1      24.578  47.551  49.070  1.00  0.00    -0.206 F 
HETATM   30  C   UNL     1      24.328  49.744  48.243  1.00  0.00     0.042 A 
HETATM   31  C   UNL     1      23.514  50.854  48.037  1.00  0.00     0.003 A 
HETATM   32  C   UNL     1      22.184  50.833  48.464  1.00  0.00     0.007 A 
ENDBRANCH  25  26
ENDBRANCH   1  25
BRANCH   5  33
HETATM   33  C   UNL     1      18.421  46.323  47.069  1.00  0.00     0.140 C 
BRANCH  33  34
HETATM   34  C   UNL     1      19.718  45.512  47.250  1.00  0.00    -0.004 C 
HETATM   35  C   UNL     1      20.112  45.348  48.717  1.00  0.00     0.011 C 
HETATM   36  C   UNL     1      19.668  44.152  46.555  1.00  0.00     0.011 C 
ENDBRANCH  33  34
ENDBRANCH   5  33
TORSDOF 7
ENDMDL
MODEL 4
REMARK VINA RESULT:      -8.1      2.551      4.646
REMARK  7 active torsions:
REMARK  status: ('A' for Active; 'I' for Inactive)
REMARK    1  A    between atoms: C_8  and  C_9 
REMARK    2  A    between atoms: C_9  and  N_10 
REMARK    3  A    between atoms: C_14  and  C_15 
REMARK    4  A    between atoms: C_15  and  C_16 
REMARK    5  A    between atoms: C_16  and  C_17 
REMARK    6  A    between atoms: N_27  and  C_28 
REMARK    7  A    between atoms: C_28  and  C_29 
ROOT
HETATM    1  C   UNL     1      25.517  44.322  50.617  1.00  0.00     0.123 C 
HETATM    2  N   UNL     1      25.222  45.683  50.189  1.00  0.00    -0.324 N 
HETATM    3  C   UNL     1      25.314  46.573  51.242  1.00  0.00     0.326 C 
HETATM    4  O   UNL     1      25.312  47.778  51.067  1.00  0.00    -0.247 OA
HETATM    5  N   UNL     1      25.405  45.880  52.403  1.00  0.00    -0.268 N 
HETATM    6  C   UNL     1      25.456  44.538  52.149  1.00  0.00     0.257 C 
HETATM    7  O   UNL     1      25.463  43.646  52.984  1.00  0.00    -0.270 OA
HETATM    8  H   UNL     1      25.531  46.078  49.306  1.00  0.00     0.165 HD
ENDROOT
BRANCH   1   9
HETATM    9  C   UNL     1      24.435  43.297  50.142  1.00  0.00     0.027 C 
HETATM   10  C   UNL     1      24.486  42.931  48.648  1.00  0.00     0.035 C 
HETATM   11  C   UNL     1      23.911  43.990  47.714  1.00  0.00     0.235 C 
HETATM   12  N   UNL     1      22.518  44.386  48.126  1.00  0.00    -0.067 N 
HETATM   13  H   UNL     1      21.905  43.575  47.957  1.00  0.00     0.280 HD
HETATM   14  C   UNL     1      22.382  44.756  49.580  1.00  0.00     0.235 C 
HETATM   15  C   UNL     1      22.975  43.677  50.474  1.00  0.00     0.035 C 
BRANCH  12  16
HETATM   16  C   UNL     1      21.963  45.507  47.256  1.00  0.00     0.278 C 
BRANCH  16  17
HETATM   17  C   UNL     1      21.226  46.548  48.003  1.00  0.00     0.034 A 
HETATM   18  C   UNL     1      21.716  47.781  48.521  1.00  0.00     0.062 A 
HETATM   19  C   UNL     1      23.087  48.352  48.431  1.00  0.00     0.073 C 
HETATM   20  N   UNL     1      20.757  48.477  49.139  1.00  0.00    -0.176 NA
HETATM   21  N   UNL     1      19.667  47.685  49.087  1.00  0.00    -0.262 N 
HETATM   22  C   UNL     1      18.453  48.102  49.750  1.00  0.00     0.181 C 
HETATM   23  C   UNL     1      19.905  46.544  48.383  1.00  0.00     0.131 A 
HETATM   24 CL   UNL     1      18.680  45.398  48.109  1.00  0.00    -0.062 Cl
ENDBRANCH  16  17
ENDBRANCH  12  16
ENDBRANCH   1   9
BRANCH   1  25
HETATM   25  C   UNL     1      26.983  43.998  50.205  1.00  0.00     0.080 C 
BRANCH  25  26
HETATM   26  C   UNL     1      27.775  43.083  51.105  1.00  0.00    -0.052 A 
HETATM   27  C   UNL     1      28.751  43.581  51.975  1.00  0.00     0.049 A 
HETATM   28  C   UNL     1      29.456  42.709  52.803  1.00  0.00     0.116 A 
HETATM   29  F   UNL     1      30.391  43.204  53.625  1.00  0.00    -0.206 F 
HETATM   30  C   UNL     1      29.206  41.344  52.793  1.00  0.00     0.042 A 
HETATM   31  C   UNL     1      28.230  40.837  51.939  1.00  0.00     0.003 A 
HETATM   32  C   UNL     1      27.519  41.701  51.103  1.00  0.00     0.007 A 
ENDBRANCH  25  26
ENDBRANCH   1  25
BRANCH   5  33
HETATM   33  C   UNL     1      25.517  46.481  53.722  1.00  0.00     0.140 C 
BRANCH  33  34
HETATM   34  C   UNL     1      26.940  46.902  54.134  1.00  0.00    -0.004 C 
HETATM   35  C   UNL     1      26.948  48.076  55.112  1.00  0.00     0.011 C 
HETATM   36  C   UNL     1      27.764  45.740  54.688  1.00  0.00     0.011 C 
ENDBRANCH  33  34
ENDBRANCH   5  33
TORSDOF 7
ENDMDL
MODEL 5
REMARK VINA RESULT:      -8.1     11.577     14.274
REMARK  7 active torsions:
REMARK  status: ('A' for Active; 'I' for Inactive)
REMARK    1  A    between atoms: C_8  and  C_9 
REMARK    2  A    between atoms: C_9  and  N_10 
REMARK    3  A    between atoms: C_14  and  C_15 
REMARK    4  A    between atoms: C_15  and  C_16 
REMARK    5  A    between atoms: C_16  and  C_17 
REMARK    6  A    between atoms: N_27  and  C_28 
REMARK    7  A    between atoms: C_28  and  C_29 
ROOT
HETATM    1  C   UNL     1      32.704  49.811  41.337  1.00  0.00     0.123 C 
HETATM    2  N   UNL     1      32.379  50.690  42.453  1.00  0.00    -0.324 N 
HETATM    3  C   UNL     1      33.501  51.351  42.917  1.00  0.00     0.326 C 
HETATM    4  O   UNL     1      33.422  52.280  43.699  1.00  0.00    -0.247 OA
HETATM    5  N   UNL     1      34.605  50.796  42.360  1.00  0.00    -0.268 N 
HETATM    6  C   UNL     1      34.247  49.825  41.467  1.00  0.00     0.257 C 
HETATM    7  O   UNL     1      35.008  49.089  40.859  1.00  0.00    -0.270 OA
HETATM    8  H   UNL     1      31.536  51.254  42.502  1.00  0.00     0.165 HD
ENDROOT
BRANCH   1   9
HETATM    9  C   UNL     1      32.129  48.369  41.523  1.00  0.00     0.027 C 
HETATM   10  C   UNL     1      31.526  47.733  40.257  1.00  0.00     0.035 C 
HETATM   11  C   UNL     1      30.141  48.251  39.883  1.00  0.00     0.235 C 
HETATM   12  N   UNL     1      29.187  48.153  41.043  1.00  0.00    -0.067 N 
HETATM   13  H   UNL     1      29.017  47.152  41.218  1.00  0.00     0.280 HD
HETATM   14  C   UNL     1      29.706  48.751  42.325  1.00  0.00     0.235 C 
HETATM   15  C   UNL     1      31.090  48.213  42.656  1.00  0.00     0.035 C 
BRANCH  12  16
HETATM   16  C   UNL     1      27.824  48.748  40.713  1.00  0.00     0.278 C 
BRANCH  16  17
HETATM   17  C   UNL     1      27.198  48.194  39.494  1.00  0.00     0.034 A 
HETATM   18  C   UNL     1      26.927  46.832  39.178  1.00  0.00     0.062 A 
HETATM   19  C   UNL     1      27.182  45.616  39.996  1.00  0.00     0.073 C 
HETATM   20  N   UNL     1      26.342  46.705  37.983  1.00  0.00    -0.176 NA
HETATM   21  N   UNL     1      26.291  47.959  37.489  1.00  0.00    -0.262 N 
HETATM   22  C   UNL     1      25.790  48.176  36.151  1.00  0.00     0.181 C 
HETATM   23  C   UNL     1      26.759  48.874  38.382  1.00  0.00     0.131 A 
HETATM   24 CL   UNL     1      26.747  50.538  38.038  1.00  0.00    -0.062 Cl
ENDBRANCH  16  17
ENDBRANCH  12  16
ENDBRANCH   1   9
BRANCH   1  25
HETATM   25  C   UNL     1      32.297  50.538  40.022  1.00  0.00     0.080 C 
BRANCH  25  26
HETATM   26  C   UNL     1      31.332  51.691  40.131  1.00  0.00    -0.052 A 
HETATM   27  C   UNL     1      31.771  52.984  40.434  1.00  0.00     0.049 A 
HETATM   28  C   UNL     1      30.854  54.031  40.514  1.00  0.00     0.116 A 
HETATM   29  F   UNL     1      31.294  55.261  40.811  1.00  0.00    -0.206 F 
HETATM   30  C   UNL     1      29.500  53.823  40.289  1.00  0.00     0.042 A 
HETATM   31  C   UNL     1      29.052  52.542  39.976  1.00  0.00     0.003 A 
HETATM   32  C   UNL     1      29.961  51.485  39.896  1.00  0.00     0.007 A 
ENDBRANCH  25  26
ENDBRANCH   1  25
BRANCH   5  33
HETATM   33  C   UNL     1      35.970  51.229  42.613  1.00  0.00     0.140 C 
BRANCH  33  34
HETATM   34  C   UNL     1      36.497  52.325  41.668  1.00  0.00    -0.004 C 
HETATM   35  C   UNL     1      37.202  53.457  42.414  1.00  0.00     0.011 C 
HETATM   36  C   UNL     1      37.397  51.773  40.564  1.00  0.00     0.011 C 
ENDBRANCH  33  34
ENDBRANCH   5  33
TORSDOF 7
ENDMDL
MODEL 6
REMARK VINA RESULT:      -8.1      7.453     10.606
REMARK  7 active torsions:
REMARK  status: ('A' for Active; 'I' for Inactive)
REMARK    1  A    between atoms: C_8  and  C_9 
REMARK    2  A    between atoms: C_9  and  N_10 
REMARK    3  A    between atoms: C_14  and  C_15 
REMARK    4  A    between atoms: C_15  and  C_16 
REMARK    5  A    between atoms: C_16  and  C_17 
REMARK    6  A    between atoms: N_27  and  C_28 
REMARK    7  A    between atoms: C_28  and  C_29 
ROOT
HETATM    1  C   UNL     1      18.459  50.035  48.316  1.00  0.00     0.123 C 
HETATM    2  N   UNL     1      17.121  49.659  48.756  1.00  0.00    -0.324 N 
HETATM    3  C   UNL     1      16.710  48.478  48.167  1.00  0.00     0.326 C 
HETATM    4  O   UNL     1      15.721  47.880  48.548  1.00  0.00    -0.247 OA
HETATM    5  N   UNL     1      17.569  48.158  47.168  1.00  0.00    -0.268 N 
HETATM    6  C   UNL     1      18.598  49.057  47.124  1.00  0.00     0.257 C 
HETATM    7  O   UNL     1      19.492  49.088  46.291  1.00  0.00    -0.270 OA
HETATM    8  H   UNL     1      16.789  49.764  49.710  1.00  0.00     0.165 HD
ENDROOT
BRANCH   1   9
HETATM    9  C   UNL     1      18.538  51.524  47.844  1.00  0.00     0.027 C 
HETATM   10  C   UNL     1      18.514  52.573  48.971  1.00  0.00     0.035 C 
HETATM   11  C   UNL     1      17.138  52.824  49.577  1.00  0.00     0.235 C 
HETATM   12  N   UNL     1      16.122  53.150  48.514  1.00  0.00    -0.067 N 
HETATM   13  H   UNL     1      16.371  54.070  48.122  1.00  0.00     0.280 HD
HETATM   14  C   UNL     1      16.085  52.170  47.370  1.00  0.00     0.235 C 
HETATM   15  C   UNL     1      17.478  51.944  46.802  1.00  0.00     0.035 C 
BRANCH  12  16
HETATM   16  C   UNL     1      14.724  53.317  49.095  1.00  0.00     0.278 C 
BRANCH  16  17
HETATM   17  C   UNL     1      14.314  54.722  49.300  1.00  0.00     0.034 A 
HETATM   18  C   UNL     1      13.882  55.670  48.328  1.00  0.00     0.062 A 
HETATM   19  C   UNL     1      13.711  55.490  46.862  1.00  0.00     0.073 C 
HETATM   20  N   UNL     1      13.584  56.849  48.882  1.00  0.00    -0.176 NA
HETATM   21  N   UNL     1      13.880  56.701  50.189  1.00  0.00    -0.262 N 
HETATM   22  C   UNL     1      13.757  57.834  51.078  1.00  0.00     0.181 C 
HETATM   23  C   UNL     1      14.281  55.432  50.477  1.00  0.00     0.131 A 
HETATM   24 CL   UNL     1      14.654  54.957  52.066  1.00  0.00    -0.062 Cl
ENDBRANCH  16  17
ENDBRANCH  12  16
ENDBRANCH   1   9
BRANCH   1  25
HETATM   25  C   UNL     1      19.463  49.624  49.432  1.00  0.00     0.080 C 
BRANCH  25  26
HETATM   26  C   UNL     1      20.933  49.658  49.097  1.00  0.00    -0.052 A 
HETATM   27  C   UNL     1      21.689  48.484  49.011  1.00  0.00     0.049 A 
HETATM   28  C   UNL     1      23.043  48.549  48.685  1.00  0.00     0.116 A 
HETATM   29  F   UNL     1      23.751  47.415  48.614  1.00  0.00    -0.206 F 
HETATM   30  C   UNL     1      23.666  49.764  48.432  1.00  0.00     0.042 A 
HETATM   31  C   UNL     1      22.922  50.938  48.504  1.00  0.00     0.003 A 
HETATM   32  C   UNL     1      21.565  50.885  48.832  1.00  0.00     0.007 A 
ENDBRANCH  25  26
ENDBRANCH   1  25
BRANCH   5  33
HETATM   33  C   UNL     1      17.457  46.981  46.322  1.00  0.00     0.140 C 
BRANCH  33  34
HETATM   34  C   UNL     1      17.731  45.638  47.025  1.00  0.00    -0.004 C 
HETATM   35  C   UNL     1      17.653  44.446  46.072  1.00  0.00     0.011 C 
HETATM   36  C   UNL     1      19.058  45.627  47.784  1.00  0.00     0.011 C 
ENDBRANCH  33  34
ENDBRANCH   5  33
TORSDOF 7
ENDMDL
MODEL 7
REMARK VINA RESULT:      -8.0     11.003     13.743
REMARK  7 active torsions:
REMARK  status: ('A' for Active; 'I' for Inactive)
REMARK    1  A    between atoms: C_8  and  C_9 
REMARK    2  A    between atoms: C_9  and  N_10 
REMARK    3  A    between atoms: C_14  and  C_15 
REMARK    4  A    between atoms: C_15  and  C_16 
REMARK    5  A    between atoms: C_16  and  C_17 
REMARK    6  A    between atoms: N_27  and  C_28 
REMARK    7  A    between atoms: C_28  and  C_29 
ROOT
HETATM    1  C   UNL     1      27.405  49.797  39.398  1.00  0.00     0.123 C 
HETATM    2  N   UNL     1      27.558  50.751  38.308  1.00  0.00    -0.324 N 
HETATM    3  C   UNL     1      28.153  51.921  38.742  1.00  0.00     0.326 C 
HETATM    4  O   UNL     1      28.560  52.763  37.963  1.00  0.00    -0.247 OA
HETATM    5  N   UNL     1      28.185  51.926  40.097  1.00  0.00    -0.268 N 
HETATM    6  C   UNL     1      27.697  50.746  40.586  1.00  0.00     0.257 C 
HETATM    7  O   UNL     1      27.523  50.471  41.763  1.00  0.00    -0.270 OA
HETATM    8  H   UNL     1      27.830  50.494  37.364  1.00  0.00     0.165 HD
ENDROOT
BRANCH   1   9
HETATM    9  C   UNL     1      25.958  49.208  39.481  1.00  0.00     0.027 C 
HETATM   10  C   UNL     1      25.791  48.004  40.425  1.00  0.00     0.035 C 
HETATM   11  C   UNL     1      26.311  46.683  39.870  1.00  0.00     0.235 C 
HETATM   12  N   UNL     1      25.726  46.390  38.514  1.00  0.00    -0.067 N 
HETATM   13  H   UNL     1      24.722  46.203  38.645  1.00  0.00     0.280 HD
HETATM   14  C   UNL     1      25.846  47.524  37.528  1.00  0.00     0.235 C 
HETATM   15  C   UNL     1      25.324  48.822  38.126  1.00  0.00     0.035 C 
BRANCH  12  16
HETATM   16  C   UNL     1      26.304  45.118  37.907  1.00  0.00     0.278 C 
BRANCH  16  17
HETATM   17  C   UNL     1      26.967  44.226  38.881  1.00  0.00     0.034 A 
HETATM   18  C   UNL     1      28.342  44.182  39.249  1.00  0.00     0.062 A 
HETATM   19  C   UNL     1      29.464  45.030  38.765  1.00  0.00     0.073 C 
HETATM   20  N   UNL     1      28.580  43.246  40.173  1.00  0.00    -0.176 NA
HETATM   21  N   UNL     1      27.392  42.637  40.361  1.00  0.00    -0.262 N 
HETATM   22  C   UNL     1      27.310  41.498  41.247  1.00  0.00     0.181 C 
HETATM   23  C   UNL     1      26.402  43.224  39.634  1.00  0.00     0.131 A 
HETATM   24 CL   UNL     1      24.790  42.693  39.737  1.00  0.00    -0.062 Cl
ENDBRANCH  16  17
ENDBRANCH  12  16
ENDBRANCH   1   9
BRANCH   1  25
HETATM   25  C   UNL     1      28.555  48.753  39.285  1.00  0.00     0.080 C 
BRANCH  25  26
HETATM   26  C   UNL     1      29.809  49.006  40.084  1.00  0.00    -0.052 A 
HETATM   27  C   UNL     1      29.944  48.542  41.396  1.00  0.00     0.049 A 
HETATM   28  C   UNL     1      31.122  48.781  42.102  1.00  0.00     0.116 A 
HETATM   29  F   UNL     1      31.230  48.333  43.359  1.00  0.00    -0.206 F 
HETATM   30  C   UNL     1      32.181  49.469  41.526  1.00  0.00     0.042 A 
HETATM   31  C   UNL     1      32.062  49.928  40.217  1.00  0.00     0.003 A 
HETATM   32  C   UNL     1      30.885  49.696  39.501  1.00  0.00     0.007 A 
ENDBRANCH  25  26
ENDBRANCH   1  25
BRANCH   5  33
HETATM   33  C   UNL     1      28.738  52.997  40.911  1.00  0.00     0.140 C 
BRANCH  33  34
HETATM   34  C   UNL     1      30.252  52.904  41.178  1.00  0.00    -0.004 C 
HETATM   35  C   UNL     1      31.010  54.147  40.713  1.00  0.00     0.011 C 
HETATM   36  C   UNL     1      30.577  52.598  42.639  1.00  0.00     0.011 C 
ENDBRANCH  33  34
ENDBRANCH   5  33
TORSDOF 7
ENDMDL
MODEL 8
REMARK VINA RESULT:      -7.9      7.594     10.754
REMARK  7 active torsions:
REMARK  status: ('A' for Active; 'I' for Inactive)
REMARK    1  A    between atoms: C_8  and  C_9 
REMARK    2  A    between atoms: C_9  and  N_10 
REMARK    3  A    between atoms: C_14  and  C_15 
REMARK    4  A    between atoms: C_15  and  C_16 
REMARK    5  A    between atoms: C_16  and  C_17 
REMARK    6  A    between atoms: N_27  and  C_28 
REMARK    7  A    between atoms: C_28  and  C_29 
ROOT
HETATM    1  C   UNL     1      18.347  49.946  48.196  1.00  0.00     0.123 C 
HETATM    2  N   UNL     1      17.005  49.624  48.665  1.00  0.00    -0.324 N 
HETATM    3  C   UNL     1      16.533  48.463  48.083  1.00  0.00     0.326 C 
HETATM    4  O   UNL     1      15.529  47.904  48.484  1.00  0.00    -0.247 OA
HETATM    5  N   UNL     1      17.356  48.110  47.065  1.00  0.00    -0.268 N 
HETATM    6  C   UNL     1      18.420  48.966  46.999  1.00  0.00     0.257 C 
HETATM    7  O   UNL     1      19.295  48.963  46.147  1.00  0.00    -0.270 OA
HETATM    8  H   UNL     1      16.699  49.740  49.626  1.00  0.00     0.165 HD
ENDROOT
BRANCH   1   9
HETATM    9  C   UNL     1      18.477  51.432  47.725  1.00  0.00     0.027 C 
HETATM   10  C   UNL     1      18.583  52.472  48.855  1.00  0.00     0.035 C 
HETATM   11  C   UNL     1      17.265  52.794  49.550  1.00  0.00     0.235 C 
HETATM   12  N   UNL     1      16.202  53.182  48.557  1.00  0.00    -0.067 N 
HETATM   13  H   UNL     1      16.475  54.090  48.153  1.00  0.00     0.280 HD
HETATM   14  C   UNL     1      16.037  52.214  47.414  1.00  0.00     0.235 C 
HETATM   15  C   UNL     1      17.376  51.916  46.756  1.00  0.00     0.035 C 
BRANCH  12  16
HETATM   16  C   UNL     1      14.855  53.420  49.228  1.00  0.00     0.278 C 
BRANCH  16  17
HETATM   17  C   UNL     1      14.459  54.842  49.307  1.00  0.00     0.034 A 
HETATM   18  C   UNL     1      14.463  55.701  50.444  1.00  0.00     0.062 A 
HETATM   19  C   UNL     1      14.883  55.399  51.838  1.00  0.00     0.073 C 
HETATM   20  N   UNL     1      14.044  56.933  50.138  1.00  0.00    -0.176 NA
HETATM   21  N   UNL     1      13.704  56.868  48.835  1.00  0.00    -0.262 N 
HETATM   22  C   UNL     1      13.118  58.024  48.195  1.00  0.00     0.181 C 
HETATM   23  C   UNL     1      13.976  55.645  48.301  1.00  0.00     0.131 A 
HETATM   24 CL   UNL     1      13.704  55.314  46.656  1.00  0.00    -0.062 Cl
ENDBRANCH  16  17
ENDBRANCH  12  16
ENDBRANCH   1   9
BRANCH   1  25
HETATM   25  C   UNL     1      19.358  49.492  49.289  1.00  0.00     0.080 C 
BRANCH  25  26
HETATM   26  C   UNL     1      20.807  49.368  48.893  1.00  0.00    -0.052 A 
HETATM   27  C   UNL     1      21.567  50.491  48.546  1.00  0.00     0.049 A 
HETATM   28  C   UNL     1      22.909  50.344  48.197  1.00  0.00     0.116 A 
HETATM   29  F   UNL     1      23.617  51.429  47.863  1.00  0.00    -0.206 F 
HETATM   30  C   UNL     1      23.520  49.097  48.193  1.00  0.00     0.042 A 
HETATM   31  C   UNL     1      22.778  47.974  48.546  1.00  0.00     0.003 A 
HETATM   32  C   UNL     1      21.431  48.109  48.894  1.00  0.00     0.007 A 
ENDBRANCH  25  26
ENDBRANCH   1  25
BRANCH   5  33
HETATM   33  C   UNL     1      17.177  46.941  46.219  1.00  0.00     0.140 C 
BRANCH  33  34
HETATM   34  C   UNL     1      18.149  45.778  46.492  1.00  0.00    -0.004 C 
HETATM   35  C   UNL     1      18.405  45.560  47.983  1.00  0.00     0.011 C 
HETATM   36  C   UNL     1      17.711  44.472  45.831  1.00  0.00     0.011 C 
ENDBRANCH  33  34
ENDBRANCH   5  33
TORSDOF 7
ENDMDL
MODEL 9
REMARK VINA RESULT:      -7.7     11.530     13.329
REMARK  7 active torsions:
REMARK  status: ('A' for Active; 'I' for Inactive)
REMARK    1  A    between atoms: C_8  and  C_9 
REMARK    2  A    between atoms: C_9  and  N_10 
REMARK    3  A    between atoms: C_14  and  C_15 
REMARK    4  A    between atoms: C_15  and  C_16 
REMARK    5  A    between atoms: C_16  and  C_17 
REMARK    6  A    between atoms: N_27  and  C_28 
REMARK    7  A    between atoms: C_28  and  C_29 
ROOT
HETATM    1  C   UNL     1      28.024  49.097  39.798  1.00  0.00     0.123 C 
HETATM    2  N   UNL     1      28.281  48.468  41.087  1.00  0.00    -0.324 N 
HETATM    3  C   UNL     1      29.613  48.570  41.442  1.00  0.00     0.326 C 
HETATM    4  O   UNL     1      30.002  48.300  42.563  1.00  0.00    -0.247 OA
HETATM    5  N   UNL     1      30.325  49.001  40.372  1.00  0.00    -0.268 N 
HETATM    6  C   UNL     1      29.489  49.269  39.324  1.00  0.00     0.257 C 
HETATM    7  O   UNL     1      29.827  49.599  38.198  1.00  0.00    -0.270 OA
HETATM    8  H   UNL     1      27.652  48.531  41.882  1.00  0.00     0.165 HD
ENDROOT
BRANCH   1   9
HETATM    9  C   UNL     1      27.217  48.171  38.830  1.00  0.00     0.027 C 
HETATM   10  C   UNL     1      26.241  48.897  37.887  1.00  0.00     0.035 C 
HETATM   11  C   UNL     1      24.946  49.359  38.545  1.00  0.00     0.235 C 
HETATM   12  N   UNL     1      24.261  48.227  39.263  1.00  0.00    -0.067 N 
HETATM   13  H   UNL     1      23.929  47.564  38.548  1.00  0.00     0.280 HD
HETATM   14  C   UNL     1      25.153  47.460  40.206  1.00  0.00     0.235 C 
HETATM   15  C   UNL     1      26.434  47.026  39.511  1.00  0.00     0.035 C 
BRANCH  12  16
HETATM   16  C   UNL     1      23.012  48.692  40.001  1.00  0.00     0.278 C 
BRANCH  16  17
HETATM   17  C   UNL     1      22.021  49.378  39.146  1.00  0.00     0.034 A 
HETATM   18  C   UNL     1      21.456  50.676  39.310  1.00  0.00     0.062 A 
HETATM   19  C   UNL     1      21.728  51.683  40.370  1.00  0.00     0.073 C 
HETATM   20  N   UNL     1      20.593  50.969  38.333  1.00  0.00    -0.176 NA
HETATM   21  N   UNL     1      20.539  49.857  37.574  1.00  0.00    -0.262 N 
HETATM   22  C   UNL     1      19.618  49.799  36.461  1.00  0.00     0.181 C 
HETATM   23  C   UNL     1      21.408  48.904  38.010  1.00  0.00     0.131 A 
HETATM   24 CL   UNL     1      21.589  47.424  37.192  1.00  0.00    -0.062 Cl
ENDBRANCH  16  17
ENDBRANCH  12  16
ENDBRANCH   1   9
BRANCH   1  25
HETATM   25  C   UNL     1      27.406  50.500  40.064  1.00  0.00     0.080 C 
BRANCH  25  26
HETATM   26  C   UNL     1      28.352  51.634  40.370  1.00  0.00    -0.052 A 
HETATM   27  C   UNL     1      28.884  51.815  41.651  1.00  0.00     0.049 A 
HETATM   28  C   UNL     1      29.767  52.865  41.897  1.00  0.00     0.116 A 
HETATM   29  F   UNL     1      30.261  53.025  43.132  1.00  0.00    -0.206 F 
HETATM   30  C   UNL     1      30.143  53.742  40.889  1.00  0.00     0.042 A 
HETATM   31  C   UNL     1      29.628  53.567  39.608  1.00  0.00     0.003 A 
HETATM   32  C   UNL     1      28.740  52.520  39.350  1.00  0.00     0.007 A 
ENDBRANCH  25  26
ENDBRANCH   1  25
BRANCH   5  33
HETATM   33  C   UNL     1      31.762  49.225  40.367  1.00  0.00     0.140 C 
BRANCH  33  34
HETATM   34  C   UNL     1      32.206  50.646  40.762  1.00  0.00    -0.004 C 
HETATM   35  C   UNL     1      33.096  50.662  42.004  1.00  0.00     0.011 C 
HETATM   36  C   UNL     1      32.879  51.397  39.613  1.00  0.00     0.011 C 
ENDBRANCH  33  34
ENDBRANCH   5  33
TORSDOF 7
ENDMDL
MODEL 10
REMARK VINA RESULT:      -7.7     17.706     20.303
REMARK  7 active torsions:
REMARK  status: ('A' for Active; 'I' for Inactive)
REMARK    1  A    between atoms: C_8  and  C_9 
REMARK    2  A    between atoms: C_9  and  N_10 
REMARK    3  A    between atoms: C_14  and  C_15 
REMARK    4  A    between atoms: C_15  and  C_16 
REMARK    5  A    between atoms: C_16  and  C_17 
REMARK    6  A    between atoms: N_27  and  C_28 
REMARK    7  A    between atoms: C_28  and  C_29 
ROOT
HETATM    1  C   UNL     1      39.430  42.786  63.968  1.00  0.00     0.123 C 
HETATM    2  N   UNL     1      39.571  43.182  65.364  1.00  0.00    -0.324 N 
HETATM    3  C   UNL     1      40.340  42.275  66.069  1.00  0.00     0.326 C 
HETATM    4  O   UNL     1      40.754  42.517  67.188  1.00  0.00    -0.247 OA
HETATM    5  N   UNL     1      40.522  41.164  65.314  1.00  0.00    -0.268 N 
HETATM    6  C   UNL     1      39.957  41.335  64.080  1.00  0.00     0.257 C 
HETATM    7  O   UNL     1      39.883  40.492  63.199  1.00  0.00    -0.270 OA
HETATM    8  H   UNL     1      39.707  44.141  65.669  1.00  0.00     0.165 HD
ENDROOT
BRANCH   1   9
HETATM    9  C   UNL     1      37.942  42.816  63.485  1.00  0.00     0.027 C 
HETATM   10  C   UNL     1      37.469  44.159  62.898  1.00  0.00     0.035 C 
HETATM   11  C   UNL     1      37.167  45.235  63.935  1.00  0.00     0.235 C 
HETATM   12  N   UNL     1      36.208  44.735  64.981  1.00  0.00    -0.067 N 
HETATM   13  H   UNL     1      35.295  44.598  64.522  1.00  0.00     0.280 HD
HETATM   14  C   UNL     1      36.598  43.419  65.604  1.00  0.00     0.235 C 
HETATM   15  C   UNL     1      36.897  42.379  64.535  1.00  0.00     0.035 C 
BRANCH  12  16
HETATM   16  C   UNL     1      35.965  45.769  66.074  1.00  0.00     0.278 C 
BRANCH  16  17
HETATM   17  C   UNL     1      37.145  46.598  66.398  1.00  0.00     0.034 A 
HETATM   18  C   UNL     1      38.142  46.370  67.390  1.00  0.00     0.062 A 
HETATM   19  C   UNL     1      38.268  45.234  68.342  1.00  0.00     0.073 C 
HETATM   20  N   UNL     1      39.069  47.333  67.393  1.00  0.00    -0.176 NA
HETATM   21  N   UNL     1      38.653  48.216  66.464  1.00  0.00    -0.262 N 
HETATM   22  C   UNL     1      39.390  49.443  66.269  1.00  0.00     0.181 C 
HETATM   23  C   UNL     1      37.529  47.787  65.826  1.00  0.00     0.131 A 
HETATM   24 CL   UNL     1      36.829  48.682  64.562  1.00  0.00    -0.062 Cl
ENDBRANCH  16  17
ENDBRANCH  12  16
ENDBRANCH   1   9
BRANCH   1  25
HETATM   25  C   UNL     1      40.432  43.630  63.128  1.00  0.00     0.080 C 
BRANCH  25  26
HETATM   26  C   UNL     1      41.257  44.662  63.854  1.00  0.00    -0.052 A 
HETATM   27  C   UNL     1      42.580  44.408  64.228  1.00  0.00     0.049 A 
HETATM   28  C   UNL     1      43.320  45.389  64.886  1.00  0.00     0.116 A 
HETATM   29  F   UNL     1      44.583  45.124  65.242  1.00  0.00    -0.206 F 
HETATM   30  C   UNL     1      42.772  46.631  65.176  1.00  0.00     0.042 A 
HETATM   31  C   UNL     1      41.459  46.901  64.800  1.00  0.00     0.003 A 
HETATM   32  C   UNL     1      40.708  45.924  64.142  1.00  0.00     0.007 A 
ENDBRANCH  25  26
ENDBRANCH   1  25
BRANCH   5  33
HETATM   33  C   UNL     1      41.280  39.994  65.726  1.00  0.00     0.140 C 
BRANCH  33  34
HETATM   34  C   UNL     1      40.479  38.935  66.507  1.00  0.00    -0.004 C 
HETATM   35  C   UNL     1      40.325  37.625  65.736  1.00  0.00     0.011 C 
HETATM   36  C   UNL     1      41.050  38.670  67.900  1.00  0.00     0.011 C 
ENDBRANCH  33  34
ENDBRANCH   5  33
TORSDOF 7
ENDMDL
