MODEL 1
REMARK VINA RESULT:      -9.3      0.000      0.000
REMARK  10 active torsions:
REMARK  status: ('A' for Active; 'I' for Inactive)
REMARK    1  A    between atoms: N_2  and  C_4 
REMARK    2  A    between atoms: C_4  and  C_5 
REMARK    3  A    between atoms: N_6  and  C_7 
REMARK    4  A    between atoms: C_11  and  N_12 
REMARK    5  A    between atoms: C_15  and  C_16 
REMARK       I    between atoms: C_16  and  N_17 
REMARK    6  A    between atoms: N_17  and  N_18 
REMARK    7  A    between atoms: C_19  and  C_20 
REMARK    8  A    between atoms: C_23  and  O_24 
REMARK    9  A    between atoms: O_24  and  C_25 
REMARK   10  A    between atoms: C_25  and  C_26 
ROOT
HETATM    1  C   UNL     1      22.984  44.672  49.007  1.00  0.00     0.293 C 
HETATM    2  N   UNL     1      22.966  44.554  50.388  1.00  0.00    -0.242 N 
HETATM    3  O   UNL     1      23.948  44.496  48.267  1.00  0.00    -0.264 OA
HETATM    4  H   UNL     1      22.057  44.567  50.850  1.00  0.00     0.192 HD
ENDROOT
BRANCH   1   5
HETATM    5  C   UNL     1      21.695  45.051  48.436  1.00  0.00     0.170 A 
HETATM    6  C   UNL     1      21.279  46.325  48.075  1.00  0.00     0.096 A 
HETATM    7  N   UNL     1      19.960  46.153  47.660  1.00  0.00    -0.215 N 
HETATM    8  N   UNL     1      19.670  44.827  47.672  1.00  0.00     0.012 NA
HETATM    9  N   UNL     1      20.698  44.160  48.168  1.00  0.00    -0.152 NA
BRANCH   6  10
HETATM   10  C   UNL     1      22.034  47.600  48.023  1.00  0.00     0.295 C 
BRANCH  10  11
HETATM   11  N   UNL     1      22.347  48.211  49.365  1.00  0.00    -0.073 N 
HETATM   12  C   UNL     1      21.774  49.600  49.473  1.00  0.00     0.269 C 
HETATM   13  H   UNL     1      21.848  47.649  50.070  1.00  0.00     0.279 HD
HETATM   14  C   UNL     1      23.811  48.212  49.704  1.00  0.00     0.269 C 
ENDBRANCH  10  11
ENDBRANCH   6  10
BRANCH   7  15
HETATM   15  C   UNL     1      19.002  47.140  47.329  1.00  0.00     0.225 A 
HETATM   16  N   UNL     1      18.744  47.415  46.046  1.00  0.00    -0.081 NA
HETATM   17  O   UNL     1      17.787  48.433  46.114  1.00  0.00    -0.103 OA
HETATM   18  N   UNL     1      17.510  48.774  47.429  1.00  0.00    -0.083 NA
HETATM   19  C   UNL     1      18.263  47.976  48.183  1.00  0.00     0.201 A 
BRANCH  19  20
HETATM   20  N   UNL     1      18.284  47.991  49.524  1.00  0.00    -0.379 N 
HETATM   21  H   UNL     1      17.418  48.061  50.051  1.00  0.00     0.158 HD
HETATM   22  H   UNL     1      19.130  48.100  50.080  1.00  0.00     0.158 HD
ENDBRANCH  19  20
ENDBRANCH   7  15
ENDBRANCH   1   5
BRANCH   2  23
HETATM   23  N   UNL     1      23.967  44.025  51.162  1.00  0.00    -0.184 NA
HETATM   24  C   UNL     1      24.732  44.830  51.830  1.00  0.00     0.150 C 
BRANCH  24  25
HETATM   25  C   UNL     1      25.884  44.344  52.615  1.00  0.00    -0.017 A 
HETATM   26  C   UNL     1      25.739  43.933  53.942  1.00  0.00     0.016 A 
HETATM   27  C   UNL     1      26.848  43.452  54.651  1.00  0.00     0.037 A 
HETATM   28  C   UNL     1      28.096  43.373  54.030  1.00  0.00     0.069 A 
HETATM   29  C   UNL     1      28.232  43.796  52.705  1.00  0.00     0.037 A 
HETATM   30  C   UNL     1      27.133  44.282  51.995  1.00  0.00     0.016 A 
BRANCH  28  31
HETATM   31  O   UNL     1      29.250  42.912  54.593  1.00  0.00    -0.347 OA
BRANCH  31  32
HETATM   32  C   UNL     1      30.392  43.766  54.549  1.00  0.00     0.219 C 
BRANCH  32  33
HETATM   33  C   UNL     1      30.523  44.425  55.894  1.00  0.00     0.026 A 
HETATM   34  C   UNL     1      29.841  45.603  56.233  1.00  0.00     0.045 A 
HETATM   35 CL   UNL     1      28.811  46.414  55.106  1.00  0.00    -0.084 Cl
HETATM   36  C   UNL     1      29.975  46.167  57.508  1.00  0.00     0.024 A 
HETATM   37  C   UNL     1      30.785  45.558  58.466  1.00  0.00     0.005 A 
HETATM   38  C   UNL     1      31.460  44.383  58.147  1.00  0.00     0.043 A 
HETATM   39  C   UNL     1      31.322  43.830  56.876  1.00  0.00     0.126 A 
HETATM   40  F   UNL     1      31.984  42.697  56.600  1.00  0.00    -0.205 F 
ENDBRANCH  32  33
ENDBRANCH  31  32
ENDBRANCH  28  31
ENDBRANCH  24  25
ENDBRANCH   2  23
TORSDOF 10
ENDMDL
MODEL 2
REMARK VINA RESULT:      -9.0      1.533      2.041
REMARK  10 active torsions:
REMARK  status: ('A' for Active; 'I' for Inactive)
REMARK    1  A    between atoms: N_2  and  C_4 
REMARK    2  A    between atoms: C_4  and  C_5 
REMARK    3  A    between atoms: N_6  and  C_7 
REMARK    4  A    between atoms: C_11  and  N_12 
REMARK    5  A    between atoms: C_15  and  C_16 
REMARK       I    between atoms: C_16  and  N_17 
REMARK    6  A    between atoms: N_17  and  N_18 
REMARK    7  A    between atoms: C_19  and  C_20 
REMARK    8  A    between atoms: C_23  and  O_24 
REMARK    9  A    between atoms: O_24  and  C_25 
REMARK   10  A    between atoms: C_25  and  C_26 
ROOT
HETATM    1  C   UNL     1      23.095  47.383  49.119  1.00  0.00     0.293 C 
HETATM    2  N   UNL     1      23.356  46.125  49.638  1.00  0.00    -0.242 N 
HETATM    3  O   UNL     1      23.735  48.411  49.328  1.00  0.00    -0.264 OA
HETATM    4  H   UNL     1      22.841  45.337  49.246  1.00  0.00     0.192 HD
ENDROOT
BRANCH   1   5
HETATM    5  C   UNL     1      21.926  47.425  48.246  1.00  0.00     0.170 A 
HETATM    6  C   UNL     1      20.702  48.022  48.512  1.00  0.00     0.096 A 
HETATM    7  N   UNL     1      19.919  47.712  47.401  1.00  0.00    -0.215 N 
HETATM    8  N   UNL     1      20.692  47.067  46.490  1.00  0.00     0.012 NA
HETATM    9  N   UNL     1      21.892  46.862  47.004  1.00  0.00    -0.152 NA
BRANCH   6  10
HETATM   10  C   UNL     1      20.282  48.884  49.642  1.00  0.00     0.295 C 
BRANCH  10  11
HETATM   11  N   UNL     1      20.440  50.365  49.407  1.00  0.00    -0.073 N 
HETATM   12  C   UNL     1      21.552  50.930  50.251  1.00  0.00     0.269 C 
HETATM   13  H   UNL     1      20.748  50.479  48.429  1.00  0.00     0.279 HD
HETATM   14  C   UNL     1      19.173  51.149  49.602  1.00  0.00     0.269 C 
ENDBRANCH  10  11
ENDBRANCH   6  10
BRANCH   7  15
HETATM   15  C   UNL     1      18.535  47.937  47.205  1.00  0.00     0.225 A 
HETATM   16  N   UNL     1      18.128  48.945  46.427  1.00  0.00    -0.081 NA
HETATM   17  O   UNL     1      16.733  48.868  46.493  1.00  0.00    -0.103 OA
HETATM   18  N   UNL     1      16.326  47.839  47.329  1.00  0.00    -0.083 NA
HETATM   19  C   UNL     1      17.441  47.263  47.774  1.00  0.00     0.201 A 
BRANCH  19  20
HETATM   20  N   UNL     1      17.478  46.218  48.614  1.00  0.00    -0.379 N 
HETATM   21  H   UNL     1      17.878  46.319  49.542  1.00  0.00     0.158 HD
HETATM   22  H   UNL     1      17.277  45.258  48.339  1.00  0.00     0.158 HD
ENDBRANCH  19  20
ENDBRANCH   7  15
ENDBRANCH   1   5
BRANCH   2  23
HETATM   23  N   UNL     1      24.489  45.756  50.318  1.00  0.00    -0.184 NA
HETATM   24  C   UNL     1      24.432  44.741  51.123  1.00  0.00     0.150 C 
BRANCH  24  25
HETATM   25  C   UNL     1      25.583  44.337  51.954  1.00  0.00    -0.017 A 
HETATM   26  C   UNL     1      26.846  44.124  51.396  1.00  0.00     0.016 A 
HETATM   27  C   UNL     1      27.923  43.766  52.216  1.00  0.00     0.037 A 
HETATM   28  C   UNL     1      27.740  43.631  53.593  1.00  0.00     0.069 A 
HETATM   29  C   UNL     1      26.470  43.837  54.141  1.00  0.00     0.037 A 
HETATM   30  C   UNL     1      25.391  44.188  53.329  1.00  0.00     0.016 A 
BRANCH  28  31
HETATM   31  O   UNL     1      28.700  43.306  54.508  1.00  0.00    -0.347 OA
BRANCH  31  32
HETATM   32  C   UNL     1      29.928  44.031  54.460  1.00  0.00     0.219 C 
BRANCH  32  33
HETATM   33  C   UNL     1      30.201  44.560  55.841  1.00  0.00     0.026 A 
HETATM   34  C   UNL     1      29.542  45.680  56.369  1.00  0.00     0.045 A 
HETATM   35 CL   UNL     1      28.376  46.567  55.452  1.00  0.00    -0.084 Cl
HETATM   36  C   UNL     1      29.813  46.121  57.671  1.00  0.00     0.024 A 
HETATM   37  C   UNL     1      30.738  45.446  58.466  1.00  0.00     0.005 A 
HETATM   38  C   UNL     1      31.392  44.327  57.958  1.00  0.00     0.043 A 
HETATM   39  C   UNL     1      31.117  43.896  56.662  1.00  0.00     0.126 A 
HETATM   40  F   UNL     1      31.763  42.814  56.202  1.00  0.00    -0.205 F 
ENDBRANCH  32  33
ENDBRANCH  31  32
ENDBRANCH  28  31
ENDBRANCH  24  25
ENDBRANCH   2  23
TORSDOF 10
ENDMDL
MODEL 3
REMARK VINA RESULT:      -8.8      2.094      3.008
REMARK  10 active torsions:
REMARK  status: ('A' for Active; 'I' for Inactive)
REMARK    1  A    between atoms: N_2  and  C_4 
REMARK    2  A    between atoms: C_4  and  C_5 
REMARK    3  A    between atoms: N_6  and  C_7 
REMARK    4  A    between atoms: C_11  and  N_12 
REMARK    5  A    between atoms: C_15  and  C_16 
REMARK       I    between atoms: C_16  and  N_17 
REMARK    6  A    between atoms: N_17  and  N_18 
REMARK    7  A    between atoms: C_19  and  C_20 
REMARK    8  A    between atoms: C_23  and  O_24 
REMARK    9  A    between atoms: O_24  and  C_25 
REMARK   10  A    between atoms: C_25  and  C_26 
ROOT
HETATM    1  C   UNL     1      22.450  47.457  48.711  1.00  0.00     0.293 C 
HETATM    2  N   UNL     1      23.142  46.411  49.301  1.00  0.00    -0.242 N 
HETATM    3  O   UNL     1      22.425  48.626  49.086  1.00  0.00    -0.264 OA
HETATM    4  H   UNL     1      23.202  45.535  48.784  1.00  0.00     0.192 HD
ENDROOT
BRANCH   1   5
HETATM    5  C   UNL     1      21.690  47.061  47.529  1.00  0.00     0.170 A 
HETATM    6  C   UNL     1      20.357  47.336  47.258  1.00  0.00     0.096 A 
HETATM    7  N   UNL     1      20.107  46.678  46.055  1.00  0.00    -0.215 N 
HETATM    8  N   UNL     1      21.271  46.148  45.599  1.00  0.00     0.012 NA
HETATM    9  N   UNL     1      22.221  46.346  46.495  1.00  0.00    -0.152 NA
BRANCH   6  10
HETATM   10  C   UNL     1      19.391  48.199  47.979  1.00  0.00     0.295 C 
BRANCH  10  11
HETATM   11  N   UNL     1      18.705  47.546  49.152  1.00  0.00    -0.073 N 
HETATM   12  C   UNL     1      17.269  47.228  48.829  1.00  0.00     0.269 C 
HETATM   13  H   UNL     1      19.166  46.634  49.295  1.00  0.00     0.279 HD
HETATM   14  C   UNL     1      18.802  48.335  50.427  1.00  0.00     0.269 C 
ENDBRANCH  10  11
ENDBRANCH   6  10
BRANCH   7  15
HETATM   15  C   UNL     1      18.872  46.492  45.390  1.00  0.00     0.225 A 
HETATM   16  N   UNL     1      18.497  47.342  44.428  1.00  0.00    -0.081 NA
HETATM   17  O   UNL     1      17.244  46.862  44.034  1.00  0.00    -0.103 OA
HETATM   18  N   UNL     1      16.873  45.754  44.782  1.00  0.00    -0.083 NA
HETATM   19  C   UNL     1      17.879  45.525  45.624  1.00  0.00     0.201 A 
BRANCH  19  20
HETATM   20  N   UNL     1      17.909  44.531  46.524  1.00  0.00    -0.379 N 
HETATM   21  H   UNL     1      17.116  43.902  46.622  1.00  0.00     0.158 HD
HETATM   22  H   UNL     1      18.615  44.442  47.253  1.00  0.00     0.158 HD
ENDBRANCH  19  20
ENDBRANCH   7  15
ENDBRANCH   1   5
BRANCH   2  23
HETATM   23  N   UNL     1      24.083  46.530  50.292  1.00  0.00    -0.184 NA
HETATM   24  C   UNL     1      24.296  45.518  51.075  1.00  0.00     0.150 C 
BRANCH  24  25
HETATM   25  C   UNL     1      25.228  45.597  52.217  1.00  0.00    -0.017 A 
HETATM   26  C   UNL     1      25.794  46.811  52.613  1.00  0.00     0.016 A 
HETATM   27  C   UNL     1      26.655  46.855  53.718  1.00  0.00     0.037 A 
HETATM   28  C   UNL     1      26.940  45.689  54.430  1.00  0.00     0.069 A 
HETATM   29  C   UNL     1      26.375  44.477  54.020  1.00  0.00     0.037 A 
HETATM   30  C   UNL     1      25.523  44.425  52.917  1.00  0.00     0.016 A 
BRANCH  28  31
HETATM   31  O   UNL     1      27.742  45.590  55.530  1.00  0.00    -0.347 OA
BRANCH  31  32
HETATM   32  C   UNL     1      29.069  46.104  55.426  1.00  0.00     0.219 C 
BRANCH  32  33
HETATM   33  C   UNL     1      29.993  45.129  56.101  1.00  0.00     0.026 A 
HETATM   34  C   UNL     1      30.425  43.943  55.490  1.00  0.00     0.045 A 
HETATM   35 CL   UNL     1      29.898  43.491  53.906  1.00  0.00    -0.084 Cl
HETATM   36  C   UNL     1      31.306  43.077  56.150  1.00  0.00     0.024 A 
HETATM   37  C   UNL     1      31.774  43.387  57.426  1.00  0.00     0.005 A 
HETATM   38  C   UNL     1      31.360  44.564  58.042  1.00  0.00     0.043 A 
HETATM   39  C   UNL     1      30.483  45.420  57.378  1.00  0.00     0.126 A 
HETATM   40  F   UNL     1      30.106  46.548  57.997  1.00  0.00    -0.205 F 
ENDBRANCH  32  33
ENDBRANCH  31  32
ENDBRANCH  28  31
ENDBRANCH  24  25
ENDBRANCH   2  23
TORSDOF 10
ENDMDL
MODEL 4
REMARK VINA RESULT:      -8.7      2.431      4.022
REMARK  10 active torsions:
REMARK  status: ('A' for Active; 'I' for Inactive)
REMARK    1  A    between atoms: N_2  and  C_4 
REMARK    2  A    between atoms: C_4  and  C_5 
REMARK    3  A    between atoms: N_6  and  C_7 
REMARK    4  A    between atoms: C_11  and  N_12 
REMARK    5  A    between atoms: C_15  and  C_16 
REMARK       I    between atoms: C_16  and  N_17 
REMARK    6  A    between atoms: N_17  and  N_18 
REMARK    7  A    between atoms: C_19  and  C_20 
REMARK    8  A    between atoms: C_23  and  O_24 
REMARK    9  A    between atoms: O_24  and  C_25 
REMARK   10  A    between atoms: C_25  and  C_26 
ROOT
HETATM    1  C   UNL     1      22.554  49.751  48.323  1.00  0.00     0.293 C 
HETATM    2  N   UNL     1      22.793  49.233  49.586  1.00  0.00    -0.242 N 
HETATM    3  O   UNL     1      23.333  49.764  47.374  1.00  0.00    -0.264 OA
HETATM    4  H   UNL     1      21.998  49.144  50.217  1.00  0.00     0.192 HD
ENDROOT
BRANCH   1   5
HETATM    5  C   UNL     1      21.222  50.329  48.172  1.00  0.00     0.170 A 
HETATM    6  C   UNL     1      20.083  49.697  47.694  1.00  0.00     0.096 A 
HETATM    7  N   UNL     1      19.113  50.698  47.680  1.00  0.00    -0.215 N 
HETATM    8  N   UNL     1      19.639  51.821  48.233  1.00  0.00     0.012 NA
HETATM    9  N   UNL     1      20.917  51.617  48.502  1.00  0.00    -0.152 NA
BRANCH   6  10
HETATM   10  C   UNL     1      19.850  48.274  47.351  1.00  0.00     0.295 C 
BRANCH  10  11
HETATM   11  N   UNL     1      19.584  47.371  48.529  1.00  0.00    -0.073 N 
HETATM   12  C   UNL     1      18.662  46.242  48.147  1.00  0.00     0.269 C 
HETATM   13  H   UNL     1      20.482  46.926  48.770  1.00  0.00     0.279 HD
HETATM   14  C   UNL     1      19.067  48.091  49.742  1.00  0.00     0.269 C 
ENDBRANCH  10  11
ENDBRANCH   6  10
BRANCH   7  15
HETATM   15  C   UNL     1      17.804  50.653  47.142  1.00  0.00     0.225 A 
HETATM   16  N   UNL     1      17.625  50.389  45.844  1.00  0.00    -0.081 NA
HETATM   17  O   UNL     1      16.237  50.454  45.684  1.00  0.00    -0.103 OA
HETATM   18  N   UNL     1      15.610  50.785  46.876  1.00  0.00    -0.083 NA
HETATM   19  C   UNL     1      16.579  50.912  47.779  1.00  0.00     0.201 A 
BRANCH  19  20
HETATM   20  N   UNL     1      16.383  51.227  49.069  1.00  0.00    -0.379 N 
HETATM   21  H   UNL     1      17.174  51.433  49.673  1.00  0.00     0.158 HD
HETATM   22  H   UNL     1      15.494  51.120  49.554  1.00  0.00     0.158 HD
ENDBRANCH  19  20
ENDBRANCH   7  15
ENDBRANCH   1   5
BRANCH   2  23
HETATM   23  N   UNL     1      23.870  48.463  49.947  1.00  0.00    -0.184 NA
HETATM   24  C   UNL     1      23.813  47.182  49.755  1.00  0.00     0.150 C 
BRANCH  24  25
HETATM   25  C   UNL     1      24.893  46.277  50.196  1.00  0.00    -0.017 A 
HETATM   26  C   UNL     1      26.152  46.296  49.590  1.00  0.00     0.016 A 
HETATM   27  C   UNL     1      27.163  45.442  50.049  1.00  0.00     0.037 A 
HETATM   28  C   UNL     1      26.918  44.579  51.119  1.00  0.00     0.069 A 
HETATM   29  C   UNL     1      25.652  44.561  51.712  1.00  0.00     0.037 A 
HETATM   30  C   UNL     1      24.639  45.404  51.255  1.00  0.00     0.016 A 
BRANCH  28  31
HETATM   31  O   UNL     1      27.811  43.710  51.676  1.00  0.00    -0.347 OA
BRANCH  31  32
HETATM   32  C   UNL     1      27.493  43.169  52.957  1.00  0.00     0.219 C 
BRANCH  32  33
HETATM   33  C   UNL     1      28.542  43.638  53.927  1.00  0.00     0.026 A 
HETATM   34  C   UNL     1      28.378  44.773  54.734  1.00  0.00     0.045 A 
HETATM   35 CL   UNL     1      26.953  45.749  54.653  1.00  0.00    -0.084 Cl
HETATM   36  C   UNL     1      29.374  45.157  55.641  1.00  0.00     0.024 A 
HETATM   37  C   UNL     1      30.545  44.408  55.760  1.00  0.00     0.005 A 
HETATM   38  C   UNL     1      30.717  43.274  54.971  1.00  0.00     0.043 A 
HETATM   39  C   UNL     1      29.721  42.900  54.072  1.00  0.00     0.126 A 
HETATM   40  F   UNL     1      29.917  41.801  53.328  1.00  0.00    -0.205 F 
ENDBRANCH  32  33
ENDBRANCH  31  32
ENDBRANCH  28  31
ENDBRANCH  24  25
ENDBRANCH   2  23
TORSDOF 10
ENDMDL
MODEL 5
REMARK VINA RESULT:      -8.5      1.913      2.341
REMARK  10 active torsions:
REMARK  status: ('A' for Active; 'I' for Inactive)
REMARK    1  A    between atoms: N_2  and  C_4 
REMARK    2  A    between atoms: C_4  and  C_5 
REMARK    3  A    between atoms: N_6  and  C_7 
REMARK    4  A    between atoms: C_11  and  N_12 
REMARK    5  A    between atoms: C_15  and  C_16 
REMARK       I    between atoms: C_16  and  N_17 
REMARK    6  A    between atoms: N_17  and  N_18 
REMARK    7  A    between atoms: C_19  and  C_20 
REMARK    8  A    between atoms: C_23  and  O_24 
REMARK    9  A    between atoms: O_24  and  C_25 
REMARK   10  A    between atoms: C_25  and  C_26 
ROOT
HETATM    1  C   UNL     1      23.438  46.979  49.159  1.00  0.00     0.293 C 
HETATM    2  N   UNL     1      23.556  45.678  49.622  1.00  0.00    -0.242 N 
HETATM    3  O   UNL     1      24.154  47.932  49.454  1.00  0.00    -0.264 OA
HETATM    4  H   UNL     1      22.996  44.961  49.162  1.00  0.00     0.192 HD
ENDROOT
BRANCH   1   5
HETATM    5  C   UNL     1      22.326  47.170  48.232  1.00  0.00     0.170 A 
HETATM    6  C   UNL     1      21.180  47.924  48.441  1.00  0.00     0.096 A 
HETATM    7  N   UNL     1      20.416  47.715  47.294  1.00  0.00    -0.215 N 
HETATM    8  N   UNL     1      21.140  46.971  46.419  1.00  0.00     0.012 NA
HETATM    9  N   UNL     1      22.277  46.612  46.988  1.00  0.00    -0.152 NA
BRANCH   6  10
HETATM   10  C   UNL     1      20.824  48.838  49.552  1.00  0.00     0.295 C 
BRANCH  10  11
HETATM   11  N   UNL     1      20.842  50.304  49.201  1.00  0.00    -0.073 N 
HETATM   12  C   UNL     1      22.253  50.826  49.129  1.00  0.00     0.269 C 
HETATM   13  H   UNL     1      20.467  50.385  48.244  1.00  0.00     0.279 HD
HETATM   14  C   UNL     1      20.006  51.156  50.114  1.00  0.00     0.269 C 
ENDBRANCH  10  11
ENDBRANCH   6  10
BRANCH   7  15
HETATM   15  C   UNL     1      19.085  48.119  47.033  1.00  0.00     0.225 A 
HETATM   16  N   UNL     1      18.078  47.262  47.227  1.00  0.00    -0.081 NA
HETATM   17  O   UNL     1      16.947  47.993  46.848  1.00  0.00    -0.103 OA
HETATM   18  N   UNL     1      17.294  49.260  46.405  1.00  0.00    -0.083 NA
HETATM   19  C   UNL     1      18.618  49.339  46.516  1.00  0.00     0.201 A 
BRANCH  19  20
HETATM   20  N   UNL     1      19.348  50.416  46.187  1.00  0.00    -0.379 N 
HETATM   21  H   UNL     1      18.892  51.273  45.884  1.00  0.00     0.158 HD
HETATM   22  H   UNL     1      20.357  50.403  46.058  1.00  0.00     0.158 HD
ENDBRANCH  19  20
ENDBRANCH   7  15
ENDBRANCH   1   5
BRANCH   2  23
HETATM   23  N   UNL     1      24.613  45.174  50.336  1.00  0.00    -0.184 NA
HETATM   24  C   UNL     1      24.470  44.979  51.610  1.00  0.00     0.150 C 
BRANCH  24  25
HETATM   25  C   UNL     1      25.586  44.522  52.462  1.00  0.00    -0.017 A 
HETATM   26  C   UNL     1      25.384  44.164  53.797  1.00  0.00     0.016 A 
HETATM   27  C   UNL     1      26.459  43.710  54.571  1.00  0.00     0.037 A 
HETATM   28  C   UNL     1      27.732  43.605  54.007  1.00  0.00     0.069 A 
HETATM   29  C   UNL     1      27.926  43.974  52.673  1.00  0.00     0.037 A 
HETATM   30  C   UNL     1      26.860  44.434  51.898  1.00  0.00     0.016 A 
BRANCH  28  31
HETATM   31  O   UNL     1      28.860  43.164  54.637  1.00  0.00    -0.347 OA
BRANCH  31  32
HETATM   32  C   UNL     1      29.985  44.040  54.663  1.00  0.00     0.219 C 
BRANCH  32  33
HETATM   33  C   UNL     1      30.042  44.672  56.026  1.00  0.00     0.026 A 
HETATM   34  C   UNL     1      30.918  44.234  57.031  1.00  0.00     0.045 A 
HETATM   35 CL   UNL     1      31.989  42.900  56.787  1.00  0.00    -0.084 Cl
HETATM   36  C   UNL     1      30.951  44.871  58.278  1.00  0.00     0.024 A 
HETATM   37  C   UNL     1      30.117  45.958  58.537  1.00  0.00     0.005 A 
HETATM   38  C   UNL     1      29.250  46.408  57.546  1.00  0.00     0.043 A 
HETATM   39  C   UNL     1      29.222  45.769  56.309  1.00  0.00     0.126 A 
HETATM   40  F   UNL     1      28.377  46.229  55.375  1.00  0.00    -0.205 F 
ENDBRANCH  32  33
ENDBRANCH  31  32
ENDBRANCH  28  31
ENDBRANCH  24  25
ENDBRANCH   2  23
TORSDOF 10
ENDMDL
MODEL 6
REMARK VINA RESULT:      -8.4      2.024      3.217
REMARK  10 active torsions:
REMARK  status: ('A' for Active; 'I' for Inactive)
REMARK    1  A    between atoms: N_2  and  C_4 
REMARK    2  A    between atoms: C_4  and  C_5 
REMARK    3  A    between atoms: N_6  and  C_7 
REMARK    4  A    between atoms: C_11  and  N_12 
REMARK    5  A    between atoms: C_15  and  C_16 
REMARK       I    between atoms: C_16  and  N_17 
REMARK    6  A    between atoms: N_17  and  N_18 
REMARK    7  A    between atoms: C_19  and  C_20 
REMARK    8  A    between atoms: C_23  and  O_24 
REMARK    9  A    between atoms: O_24  and  C_25 
REMARK   10  A    between atoms: C_25  and  C_26 
ROOT
HETATM    1  C   UNL     1      21.802  47.866  47.896  1.00  0.00     0.293 C 
HETATM    2  N   UNL     1      22.046  46.877  48.836  1.00  0.00    -0.242 N 
HETATM    3  O   UNL     1      22.584  48.737  47.525  1.00  0.00    -0.264 OA
HETATM    4  H   UNL     1      21.362  46.126  48.920  1.00  0.00     0.192 HD
ENDROOT
BRANCH   1   5
HETATM    5  C   UNL     1      20.457  47.813  47.331  1.00  0.00     0.170 A 
HETATM    6  C   UNL     1      19.388  48.647  47.628  1.00  0.00     0.096 A 
HETATM    7  N   UNL     1      18.329  48.131  46.883  1.00  0.00    -0.215 N 
HETATM    8  N   UNL     1      18.797  47.121  46.106  1.00  0.00     0.012 NA
HETATM    9  N   UNL     1      20.068  46.902  46.393  1.00  0.00    -0.152 NA
BRANCH   6  10
HETATM   10  C   UNL     1      19.334  49.875  48.457  1.00  0.00     0.295 C 
BRANCH  10  11
HETATM   11  N   UNL     1      18.314  49.851  49.566  1.00  0.00    -0.073 N 
HETATM   12  C   UNL     1      17.829  51.241  49.885  1.00  0.00     0.269 C 
HETATM   13  H   UNL     1      17.492  49.347  49.203  1.00  0.00     0.279 HD
HETATM   14  C   UNL     1      18.788  49.156  50.811  1.00  0.00     0.269 C 
ENDBRANCH  10  11
ENDBRANCH   6  10
BRANCH   7  15
HETATM   15  C   UNL     1      16.963  48.497  46.919  1.00  0.00     0.225 A 
HETATM   16  N   UNL     1      16.080  47.716  47.552  1.00  0.00    -0.081 NA
HETATM   17  O   UNL     1      14.861  48.374  47.355  1.00  0.00    -0.103 OA
HETATM   18  N   UNL     1      15.025  49.515  46.585  1.00  0.00    -0.083 NA
HETATM   19  C   UNL     1      16.325  49.592  46.312  1.00  0.00     0.201 A 
BRANCH  19  20
HETATM   20  N   UNL     1      16.896  50.564  45.584  1.00  0.00    -0.379 N 
HETATM   21  H   UNL     1      16.447  50.902  44.737  1.00  0.00     0.158 HD
HETATM   22  H   UNL     1      17.849  50.895  45.722  1.00  0.00     0.158 HD
ENDBRANCH  19  20
ENDBRANCH   7  15
ENDBRANCH   1   5
BRANCH   2  23
HETATM   23  N   UNL     1      23.269  46.568  49.376  1.00  0.00    -0.184 NA
HETATM   24  C   UNL     1      23.599  45.321  49.503  1.00  0.00     0.150 C 
BRANCH  24  25
HETATM   25  C   UNL     1      24.858  44.907  50.153  1.00  0.00    -0.017 A 
HETATM   26  C   UNL     1      26.101  45.282  49.638  1.00  0.00     0.016 A 
HETATM   27  C   UNL     1      27.277  44.894  50.293  1.00  0.00     0.037 A 
HETATM   28  C   UNL     1      27.208  44.142  51.467  1.00  0.00     0.069 A 
HETATM   29  C   UNL     1      25.960  43.763  51.969  1.00  0.00     0.037 A 
HETATM   30  C   UNL     1      24.785  44.140  51.318  1.00  0.00     0.016 A 
BRANCH  28  31
HETATM   31  O   UNL     1      28.267  43.712  52.214  1.00  0.00    -0.347 OA
BRANCH  31  32
HETATM   32  C   UNL     1      27.996  43.245  53.535  1.00  0.00     0.219 C 
BRANCH  32  33
HETATM   33  C   UNL     1      28.801  44.080  54.491  1.00  0.00     0.026 A 
HETATM   34  C   UNL     1      28.332  45.288  55.027  1.00  0.00     0.045 A 
HETATM   35 CL   UNL     1      26.786  45.933  54.600  1.00  0.00    -0.084 Cl
HETATM   36  C   UNL     1      29.110  46.019  55.934  1.00  0.00     0.024 A 
HETATM   37  C   UNL     1      30.364  45.550  56.324  1.00  0.00     0.005 A 
HETATM   38  C   UNL     1      30.838  44.348  55.807  1.00  0.00     0.043 A 
HETATM   39  C   UNL     1      30.058  43.628  54.905  1.00  0.00     0.126 A 
HETATM   40  F   UNL     1      30.543  42.472  54.427  1.00  0.00    -0.205 F 
ENDBRANCH  32  33
ENDBRANCH  31  32
ENDBRANCH  28  31
ENDBRANCH  24  25
ENDBRANCH   2  23
TORSDOF 10
ENDMDL
MODEL 7
REMARK VINA RESULT:      -8.2      2.977      4.844
REMARK  10 active torsions:
REMARK  status: ('A' for Active; 'I' for Inactive)
REMARK    1  A    between atoms: N_2  and  C_4 
REMARK    2  A    between atoms: C_4  and  C_5 
REMARK    3  A    between atoms: N_6  and  C_7 
REMARK    4  A    between atoms: C_11  and  N_12 
REMARK    5  A    between atoms: C_15  and  C_16 
REMARK       I    between atoms: C_16  and  N_17 
REMARK    6  A    between atoms: N_17  and  N_18 
REMARK    7  A    between atoms: C_19  and  C_20 
REMARK    8  A    between atoms: C_23  and  O_24 
REMARK    9  A    between atoms: O_24  and  C_25 
REMARK   10  A    between atoms: C_25  and  C_26 
ROOT
HETATM    1  C   UNL     1      21.043  49.290  49.274  1.00  0.00     0.293 C 
HETATM    2  N   UNL     1      22.333  49.754  49.473  1.00  0.00    -0.242 N 
HETATM    3  O   UNL     1      20.653  48.132  49.388  1.00  0.00    -0.264 OA
HETATM    4  H   UNL     1      22.471  50.764  49.505  1.00  0.00     0.192 HD
ENDROOT
BRANCH   1   5
HETATM    5  C   UNL     1      20.099  50.335  48.888  1.00  0.00     0.170 A 
HETATM    6  C   UNL     1      18.717  50.231  48.808  1.00  0.00     0.096 A 
HETATM    7  N   UNL     1      18.304  51.471  48.325  1.00  0.00    -0.215 N 
HETATM    8  N   UNL     1      19.386  52.287  48.243  1.00  0.00     0.012 NA
HETATM    9  N   UNL     1      20.475  51.602  48.548  1.00  0.00    -0.152 NA
BRANCH   6  10
HETATM   10  C   UNL     1      17.816  49.127  49.216  1.00  0.00     0.295 C 
BRANCH  10  11
HETATM   11  N   UNL     1      17.229  48.330  48.078  1.00  0.00    -0.073 N 
HETATM   12  C   UNL     1      16.735  46.990  48.556  1.00  0.00     0.269 C 
HETATM   13  H   UNL     1      16.390  48.839  47.761  1.00  0.00     0.279 HD
HETATM   14  C   UNL     1      18.159  48.168  46.908  1.00  0.00     0.269 C 
ENDBRANCH  10  11
ENDBRANCH   6  10
BRANCH   7  15
HETATM   15  C   UNL     1      17.013  51.872  47.909  1.00  0.00     0.225 A 
HETATM   16  N   UNL     1      16.473  51.342  46.806  1.00  0.00    -0.081 NA
HETATM   17  O   UNL     1      15.235  51.985  46.706  1.00  0.00    -0.103 OA
HETATM   18  N   UNL     1      15.064  52.908  47.726  1.00  0.00    -0.083 NA
HETATM   19  C   UNL     1      16.165  52.842  48.471  1.00  0.00     0.201 A 
BRANCH  19  20
HETATM   20  N   UNL     1      16.391  53.583  49.566  1.00  0.00    -0.379 N 
HETATM   21  H   UNL     1      16.379  54.598  49.511  1.00  0.00     0.158 HD
HETATM   22  H   UNL     1      16.742  53.209  50.446  1.00  0.00     0.158 HD
ENDBRANCH  19  20
ENDBRANCH   7  15
ENDBRANCH   1   5
BRANCH   2  23
HETATM   23  N   UNL     1      23.366  49.041  50.027  1.00  0.00    -0.184 NA
HETATM   24  C   UNL     1      23.591  47.837  49.603  1.00  0.00     0.150 C 
BRANCH  24  25
HETATM   25  C   UNL     1      24.626  46.975  50.209  1.00  0.00    -0.017 A 
HETATM   26  C   UNL     1      25.224  47.302  51.428  1.00  0.00     0.016 A 
HETATM   27  C   UNL     1      26.184  46.451  51.988  1.00  0.00     0.037 A 
HETATM   28  C   UNL     1      26.538  45.269  51.335  1.00  0.00     0.069 A 
HETATM   29  C   UNL     1      25.941  44.956  50.110  1.00  0.00     0.037 A 
HETATM   30  C   UNL     1      24.989  45.803  49.543  1.00  0.00     0.016 A 
BRANCH  28  31
HETATM   31  O   UNL     1      27.441  44.343  51.772  1.00  0.00    -0.347 OA
BRANCH  31  32
HETATM   32  C   UNL     1      27.148  43.660  52.989  1.00  0.00     0.219 C 
BRANCH  32  33
HETATM   33  C   UNL     1      28.338  43.811  53.897  1.00  0.00     0.026 A 
HETATM   34  C   UNL     1      29.427  42.927  53.875  1.00  0.00     0.045 A 
HETATM   35 CL   UNL     1      29.472  41.564  52.813  1.00  0.00    -0.084 Cl
HETATM   36  C   UNL     1      30.524  43.123  54.723  1.00  0.00     0.024 A 
HETATM   37  C   UNL     1      30.553  44.208  55.599  1.00  0.00     0.005 A 
HETATM   38  C   UNL     1      29.484  45.098  55.624  1.00  0.00     0.043 A 
HETATM   39  C   UNL     1      28.396  44.895  54.778  1.00  0.00     0.126 A 
HETATM   40  F   UNL     1      27.382  45.772  54.825  1.00  0.00    -0.205 F 
ENDBRANCH  32  33
ENDBRANCH  31  32
ENDBRANCH  28  31
ENDBRANCH  24  25
ENDBRANCH   2  23
TORSDOF 10
ENDMDL
MODEL 8
REMARK VINA RESULT:      -8.1     13.669     14.617
REMARK  10 active torsions:
REMARK  status: ('A' for Active; 'I' for Inactive)
REMARK    1  A    between atoms: N_2  and  C_4 
REMARK    2  A    between atoms: C_4  and  C_5 
REMARK    3  A    between atoms: N_6  and  C_7 
REMARK    4  A    between atoms: C_11  and  N_12 
REMARK    5  A    between atoms: C_15  and  C_16 
REMARK       I    between atoms: C_16  and  N_17 
REMARK    6  A    between atoms: N_17  and  N_18 
REMARK    7  A    between atoms: C_19  and  C_20 
REMARK    8  A    between atoms: C_23  and  O_24 
REMARK    9  A    between atoms: O_24  and  C_25 
REMARK   10  A    between atoms: C_25  and  C_26 
ROOT
HETATM    1  C   UNL     1      31.266  52.593  41.592  1.00  0.00     0.293 C 
HETATM    2  N   UNL     1      31.876  51.871  42.606  1.00  0.00    -0.242 N 
HETATM    3  O   UNL     1      31.709  53.593  41.033  1.00  0.00    -0.264 OA
HETATM    4  H   UNL     1      31.467  50.971  42.855  1.00  0.00     0.192 HD
ENDROOT
BRANCH   1   5
HETATM    5  C   UNL     1      29.966  52.060  41.196  1.00  0.00     0.170 A 
HETATM    6  C   UNL     1      29.714  51.080  40.247  1.00  0.00     0.096 A 
HETATM    7  N   UNL     1      28.324  50.996  40.197  1.00  0.00    -0.215 N 
HETATM    8  N   UNL     1      27.805  51.806  41.156  1.00  0.00     0.012 NA
HETATM    9  N   UNL     1      28.785  52.474  41.739  1.00  0.00    -0.152 NA
BRANCH   6  10
HETATM   10  C   UNL     1      30.652  50.214  39.493  1.00  0.00     0.295 C 
BRANCH  10  11
HETATM   11  N   UNL     1      30.753  48.796  39.995  1.00  0.00    -0.073 N 
HETATM   12  C   UNL     1      32.033  48.583  40.760  1.00  0.00     0.269 C 
HETATM   13  H   UNL     1      29.995  48.670  40.682  1.00  0.00     0.279 HD
HETATM   14  C   UNL     1      30.598  47.759  38.919  1.00  0.00     0.269 C 
ENDBRANCH  10  11
ENDBRANCH   6  10
BRANCH   7  15
HETATM   15  C   UNL     1      27.514  50.268  39.294  1.00  0.00     0.225 A 
HETATM   16  N   UNL     1      27.558  50.544  37.987  1.00  0.00    -0.081 NA
HETATM   17  O   UNL     1      26.626  49.659  37.433  1.00  0.00    -0.103 OA
HETATM   18  N   UNL     1      26.019  48.891  38.414  1.00  0.00    -0.083 NA
HETATM   19  C   UNL     1      26.565  49.268  39.568  1.00  0.00     0.201 A 
BRANCH  19  20
HETATM   20  N   UNL     1      26.245  48.757  40.766  1.00  0.00    -0.379 N 
HETATM   21  H   UNL     1      26.467  47.790  40.988  1.00  0.00     0.158 HD
HETATM   22  H   UNL     1      25.638  49.219  41.440  1.00  0.00     0.158 HD
ENDBRANCH  19  20
ENDBRANCH   7  15
ENDBRANCH   1   5
BRANCH   2  23
HETATM   23  N   UNL     1      33.171  52.022  43.031  1.00  0.00    -0.184 NA
HETATM   24  C   UNL     1      34.117  51.415  42.384  1.00  0.00     0.150 C 
BRANCH  24  25
HETATM   25  C   UNL     1      35.523  51.458  42.831  1.00  0.00    -0.017 A 
HETATM   26  C   UNL     1      36.476  50.571  42.324  1.00  0.00     0.016 A 
HETATM   27  C   UNL     1      37.807  50.655  42.749  1.00  0.00     0.037 A 
HETATM   28  C   UNL     1      38.187  51.631  43.673  1.00  0.00     0.069 A 
HETATM   29  C   UNL     1      37.224  52.508  44.182  1.00  0.00     0.037 A 
HETATM   30  C   UNL     1      35.894  52.426  43.767  1.00  0.00     0.016 A 
BRANCH  28  31
HETATM   31  O   UNL     1      39.446  51.837  44.160  1.00  0.00    -0.347 OA
BRANCH  31  32
HETATM   32  C   UNL     1      39.766  51.260  45.425  1.00  0.00     0.219 C 
BRANCH  32  33
HETATM   33  C   UNL     1      40.368  52.340  46.281  1.00  0.00     0.026 A 
HETATM   34  C   UNL     1      41.737  52.646  46.266  1.00  0.00     0.045 A 
HETATM   35 CL   UNL     1      42.854  51.776  45.274  1.00  0.00    -0.084 Cl
HETATM   36  C   UNL     1      42.248  53.678  47.063  1.00  0.00     0.024 A 
HETATM   37  C   UNL     1      41.399  54.423  47.881  1.00  0.00     0.005 A 
HETATM   38  C   UNL     1      40.037  54.136  47.899  1.00  0.00     0.043 A 
HETATM   39  C   UNL     1      39.537  53.107  47.103  1.00  0.00     0.126 A 
HETATM   40  F   UNL     1      38.220  52.857  47.141  1.00  0.00    -0.205 F 
ENDBRANCH  32  33
ENDBRANCH  31  32
ENDBRANCH  28  31
ENDBRANCH  24  25
ENDBRANCH   2  23
TORSDOF 10
ENDMDL
MODEL 9
REMARK VINA RESULT:      -8.1      6.277     13.245
REMARK  10 active torsions:
REMARK  status: ('A' for Active; 'I' for Inactive)
REMARK    1  A    between atoms: N_2  and  C_4 
REMARK    2  A    between atoms: C_4  and  C_5 
REMARK    3  A    between atoms: N_6  and  C_7 
REMARK    4  A    between atoms: C_11  and  N_12 
REMARK    5  A    between atoms: C_15  and  C_16 
REMARK       I    between atoms: C_16  and  N_17 
REMARK    6  A    between atoms: N_17  and  N_18 
REMARK    7  A    between atoms: C_19  and  C_20 
REMARK    8  A    between atoms: C_23  and  O_24 
REMARK    9  A    between atoms: O_24  and  C_25 
REMARK   10  A    between atoms: C_25  and  C_26 
ROOT
HETATM    1  C   UNL     1      23.482  47.379  49.404  1.00  0.00     0.293 C 
HETATM    2  N   UNL     1      22.871  48.604  49.620  1.00  0.00    -0.242 N 
HETATM    3  O   UNL     1      23.150  46.526  48.585  1.00  0.00    -0.264 OA
HETATM    4  H   UNL     1      23.357  49.274  50.214  1.00  0.00     0.192 HD
ENDROOT
BRANCH   1   5
HETATM    5  C   UNL     1      24.630  47.138  50.273  1.00  0.00     0.170 A 
HETATM    6  C   UNL     1      24.882  46.006  51.035  1.00  0.00     0.096 A 
HETATM    7  N   UNL     1      26.051  46.310  51.730  1.00  0.00    -0.215 N 
HETATM    8  N   UNL     1      26.512  47.512  51.299  1.00  0.00     0.012 NA
HETATM    9  N   UNL     1      25.646  48.032  50.446  1.00  0.00    -0.152 NA
BRANCH   6  10
HETATM   10  C   UNL     1      24.174  44.704  51.080  1.00  0.00     0.295 C 
BRANCH  10  11
HETATM   11  N   UNL     1      24.135  43.955  49.772  1.00  0.00    -0.073 N 
HETATM   12  C   UNL     1      23.151  42.816  49.831  1.00  0.00     0.269 C 
HETATM   13  H   UNL     1      23.762  44.608  49.067  1.00  0.00     0.279 HD
HETATM   14  C   UNL     1      25.481  43.471  49.310  1.00  0.00     0.269 C 
ENDBRANCH  10  11
ENDBRANCH   6  10
BRANCH   7  15
HETATM   15  C   UNL     1      26.680  45.579  52.765  1.00  0.00     0.225 A 
HETATM   16  N   UNL     1      27.183  44.366  52.514  1.00  0.00    -0.081 NA
HETATM   17  O   UNL     1      27.688  43.957  53.753  1.00  0.00    -0.103 OA
HETATM   18  N   UNL     1      27.454  44.912  54.730  1.00  0.00    -0.083 NA
HETATM   19  C   UNL     1      26.828  45.916  54.121  1.00  0.00     0.201 A 
BRANCH  19  20
HETATM   20  N   UNL     1      26.426  47.044  54.727  1.00  0.00    -0.379 N 
HETATM   21  H   UNL     1      25.612  47.548  54.386  1.00  0.00     0.158 HD
HETATM   22  H   UNL     1      26.975  47.544  55.423  1.00  0.00     0.158 HD
ENDBRANCH  19  20
ENDBRANCH   7  15
ENDBRANCH   1   5
BRANCH   2  23
HETATM   23  N   UNL     1      21.908  49.171  48.825  1.00  0.00    -0.184 NA
HETATM   24  C   UNL     1      21.214  50.160  49.294  1.00  0.00     0.150 C 
BRANCH  24  25
HETATM   25  C   UNL     1      20.102  50.766  48.533  1.00  0.00    -0.017 A 
HETATM   26  C   UNL     1      19.537  51.985  48.917  1.00  0.00     0.016 A 
HETATM   27  C   UNL     1      18.502  52.546  48.159  1.00  0.00     0.037 A 
HETATM   28  C   UNL     1      18.040  51.894  47.014  1.00  0.00     0.069 A 
HETATM   29  C   UNL     1      18.606  50.670  46.644  1.00  0.00     0.037 A 
HETATM   30  C   UNL     1      19.633  50.102  47.398  1.00  0.00     0.016 A 
BRANCH  28  31
HETATM   31  O   UNL     1      17.054  52.332  46.177  1.00  0.00    -0.347 OA
BRANCH  31  32
HETATM   32  C   UNL     1      15.718  51.919  46.459  1.00  0.00     0.219 C 
BRANCH  32  33
HETATM   33  C   UNL     1      14.966  53.118  46.964  1.00  0.00     0.026 A 
HETATM   34  C   UNL     1      14.764  53.369  48.330  1.00  0.00     0.045 A 
HETATM   35 CL   UNL     1      15.344  52.290  49.549  1.00  0.00    -0.084 Cl
HETATM   36  C   UNL     1      14.077  54.514  48.753  1.00  0.00     0.024 A 
HETATM   37  C   UNL     1      13.589  55.429  47.820  1.00  0.00     0.005 A 
HETATM   38  C   UNL     1      13.791  55.197  46.463  1.00  0.00     0.043 A 
HETATM   39  C   UNL     1      14.474  54.055  46.050  1.00  0.00     0.126 A 
HETATM   40  F   UNL     1      14.653  53.863  44.735  1.00  0.00    -0.205 F 
ENDBRANCH  32  33
ENDBRANCH  31  32
ENDBRANCH  28  31
ENDBRANCH  24  25
ENDBRANCH   2  23
TORSDOF 10
ENDMDL
MODEL 10
REMARK VINA RESULT:      -8.1      2.243      3.353
REMARK  10 active torsions:
REMARK  status: ('A' for Active; 'I' for Inactive)
REMARK    1  A    between atoms: N_2  and  C_4 
REMARK    2  A    between atoms: C_4  and  C_5 
REMARK    3  A    between atoms: N_6  and  C_7 
REMARK    4  A    between atoms: C_11  and  N_12 
REMARK    5  A    between atoms: C_15  and  C_16 
REMARK       I    between atoms: C_16  and  N_17 
REMARK    6  A    between atoms: N_17  and  N_18 
REMARK    7  A    between atoms: C_19  and  C_20 
REMARK    8  A    between atoms: C_23  and  O_24 
REMARK    9  A    between atoms: O_24  and  C_25 
REMARK   10  A    between atoms: C_25  and  C_26 
ROOT
HETATM    1  C   UNL     1      20.478  45.861  48.279  1.00  0.00     0.293 C 
HETATM    2  N   UNL     1      21.830  46.141  48.161  1.00  0.00    -0.242 N 
HETATM    3  O   UNL     1      19.975  44.886  48.831  1.00  0.00    -0.264 OA
HETATM    4  H   UNL     1      22.091  47.067  47.824  1.00  0.00     0.192 HD
ENDROOT
BRANCH   1   5
HETATM    5  C   UNL     1      19.617  46.864  47.660  1.00  0.00     0.170 A 
HETATM    6  C   UNL     1      19.239  48.089  48.192  1.00  0.00     0.096 A 
HETATM    7  N   UNL     1      18.363  48.621  47.247  1.00  0.00    -0.215 N 
HETATM    8  N   UNL     1      18.331  47.793  46.171  1.00  0.00     0.012 NA
HETATM    9  N   UNL     1      19.056  46.718  46.424  1.00  0.00    -0.152 NA
BRANCH   6  10
HETATM   10  C   UNL     1      19.694  48.780  49.421  1.00  0.00     0.295 C 
BRANCH  10  11
HETATM   11  N   UNL     1      20.597  49.965  49.190  1.00  0.00    -0.073 N 
HETATM   12  C   UNL     1      22.040  49.540  49.116  1.00  0.00     0.269 C 
HETATM   13  H   UNL     1      20.368  50.334  48.255  1.00  0.00     0.279 HD
HETATM   14  C   UNL     1      20.419  51.069  50.194  1.00  0.00     0.269 C 
ENDBRANCH  10  11
ENDBRANCH   6  10
BRANCH   7  15
HETATM   15  C   UNL     1      17.560  49.782  47.340  1.00  0.00     0.225 A 
HETATM   16  N   UNL     1      18.131  50.991  47.329  1.00  0.00    -0.081 NA
HETATM   17  O   UNL     1      17.049  51.867  47.462  1.00  0.00    -0.103 OA
HETATM   18  N   UNL     1      15.854  51.173  47.581  1.00  0.00    -0.083 NA
HETATM   19  C   UNL     1      16.169  49.882  47.509  1.00  0.00     0.201 A 
BRANCH  19  20
HETATM   20  N   UNL     1      15.284  48.876  47.582  1.00  0.00    -0.379 N 
HETATM   21  H   UNL     1      15.202  48.324  48.432  1.00  0.00     0.158 HD
HETATM   22  H   UNL     1      14.780  48.500  46.781  1.00  0.00     0.158 HD
ENDBRANCH  19  20
ENDBRANCH   7  15
ENDBRANCH   1   5
BRANCH   2  23
HETATM   23  N   UNL     1      22.845  45.487  48.811  1.00  0.00    -0.184 NA
HETATM   24  C   UNL     1      23.661  46.174  49.547  1.00  0.00     0.150 C 
BRANCH  24  25
HETATM   25  C   UNL     1      24.829  45.557  50.207  1.00  0.00    -0.017 A 
HETATM   26  C   UNL     1      26.082  45.525  49.590  1.00  0.00     0.016 A 
HETATM   27  C   UNL     1      27.174  44.954  50.254  1.00  0.00     0.037 A 
HETATM   28  C   UNL     1      27.017  44.426  51.537  1.00  0.00     0.069 A 
HETATM   29  C   UNL     1      25.757  44.455  52.142  1.00  0.00     0.037 A 
HETATM   30  C   UNL     1      24.662  45.016  51.483  1.00  0.00     0.016 A 
BRANCH  28  31
HETATM   31  O   UNL     1      27.994  43.859  52.303  1.00  0.00    -0.347 OA
BRANCH  31  32
HETATM   32  C   UNL     1      27.638  43.438  53.619  1.00  0.00     0.219 C 
BRANCH  32  33
HETATM   33  C   UNL     1      28.490  44.206  54.591  1.00  0.00     0.026 A 
HETATM   34  C   UNL     1      29.829  43.878  54.853  1.00  0.00     0.045 A 
HETATM   35 CL   UNL     1      30.601  42.532  54.092  1.00  0.00    -0.084 Cl
HETATM   36  C   UNL     1      30.590  44.639  55.749  1.00  0.00     0.024 A 
HETATM   37  C   UNL     1      30.027  45.742  56.391  1.00  0.00     0.005 A 
HETATM   38  C   UNL     1      28.703  46.084  56.134  1.00  0.00     0.043 A 
HETATM   39  C   UNL     1      27.953  45.321  55.241  1.00  0.00     0.126 A 
HETATM   40  F   UNL     1      26.681  45.678  55.014  1.00  0.00    -0.205 F 
ENDBRANCH  32  33
ENDBRANCH  31  32
ENDBRANCH  28  31
ENDBRANCH  24  25
ENDBRANCH   2  23
TORSDOF 10
ENDMDL
