MODEL 1
REMARK VINA RESULT:      -7.7      0.000      0.000
REMARK  6 active torsions:
REMARK  status: ('A' for Active; 'I' for Inactive)
REMARK    1  A    between atoms: N_4  and  C_5 
REMARK    2  A    between atoms: C_5  and  C_6 
REMARK    3  A    between atoms: C_6  and  C_7 
REMARK    4  A    between atoms: C_7  and  N_8 
REMARK       I    between atoms: N_8  and  C_9 
REMARK       I    between atoms: C_9  and  N_10 
REMARK    5  A    between atoms: N_10  and  C_11 
REMARK    6  A    between atoms: C_12  and  O_13 
ROOT
HETATM    1  N   UNL     1      24.746  45.430  51.604  1.00  0.00    -0.343 N 
HETATM    2  C   UNL     1      24.895  46.746  51.220  1.00  0.00     0.320 C 
HETATM    3  N   UNL     1      24.470  46.921  49.918  1.00  0.00    -0.306 N 
HETATM    4  O   UNL     1      25.402  47.599  51.938  1.00  0.00    -0.247 OA
HETATM    5  H   UNL     1      23.953  44.947  51.197  1.00  0.00     0.164 HD
HETATM    6  H   UNL     1      24.760  46.160  49.320  1.00  0.00     0.171 HD
ENDROOT
BRANCH   1   7
HETATM    7  C   UNL     1      25.158  44.978  52.916  1.00  0.00     0.126 C 
BRANCH   7   8
HETATM    8  C   UNL     1      26.238  43.893  52.902  1.00  0.00     0.041 C 
BRANCH   8   9
HETATM    9  C   UNL     1      27.650  44.407  52.639  1.00  0.00     0.152 C 
BRANCH   9  10
HETATM   10  N   UNL     1      28.442  44.539  53.846  1.00  0.00    -0.279 N 
HETATM   11  N   UNL     1      29.418  43.645  54.111  1.00  0.00    -0.176 NA
HETATM   12  C   UNL     1      29.912  44.055  55.291  1.00  0.00     0.074 A 
HETATM   13  C   UNL     1      31.010  43.306  55.949  1.00  0.00     0.074 C 
HETATM   14  C   UNL     1      29.253  45.219  55.754  1.00  0.00     0.077 A 
HETATM   15  C   UNL     1      28.313  45.507  54.797  1.00  0.00     0.138 A 
HETATM   16 CL   UNL     1      29.563  46.068  57.185  1.00  0.00    -0.081 Cl
ENDBRANCH   9  10
ENDBRANCH   8   9
ENDBRANCH   7   8
ENDBRANCH   1   7
BRANCH   3  17
HETATM   17  C   UNL     1      24.342  48.198  49.326  1.00  0.00     0.071 A 
HETATM   18  C   UNL     1      25.426  48.862  48.710  1.00  0.00     0.095 A 
HETATM   19  C   UNL     1      25.212  50.110  48.113  1.00  0.00     0.041 A 
HETATM   20  C   UNL     1      23.946  50.703  48.146  1.00  0.00     0.026 A 
HETATM   21  C   UNL     1      22.897  50.062  48.798  1.00  0.00     0.036 A 
HETATM   22 CL   UNL     1      21.346  50.806  48.854  1.00  0.00    -0.084 Cl
HETATM   23  C   UNL     1      23.090  48.821  49.401  1.00  0.00     0.056 A 
BRANCH  18  24
HETATM   24  O   UNL     1      26.661  48.277  48.833  1.00  0.00    -0.354 OA
HETATM   25  C   UNL     1      27.757  49.123  49.150  1.00  0.00     0.210 C 
ENDBRANCH  18  24
ENDBRANCH   3  17
TORSDOF 6
ENDMDL
MODEL 2
REMARK VINA RESULT:      -7.4      2.902      8.075
REMARK  6 active torsions:
REMARK  status: ('A' for Active; 'I' for Inactive)
REMARK    1  A    between atoms: N_4  and  C_5 
REMARK    2  A    between atoms: C_5  and  C_6 
REMARK    3  A    between atoms: C_6  and  C_7 
REMARK    4  A    between atoms: C_7  and  N_8 
REMARK       I    between atoms: N_8  and  C_9 
REMARK       I    between atoms: C_9  and  N_10 
REMARK    5  A    between atoms: N_10  and  C_11 
REMARK    6  A    between atoms: C_12  and  O_13 
ROOT
HETATM    1  N   UNL     1      27.743  42.711  51.854  1.00  0.00    -0.343 N 
HETATM    2  C   UNL     1      28.077  42.868  53.182  1.00  0.00     0.320 C 
HETATM    3  N   UNL     1      28.997  43.886  53.333  1.00  0.00    -0.306 N 
HETATM    4  O   UNL     1      27.648  42.141  54.070  1.00  0.00    -0.247 OA
HETATM    5  H   UNL     1      27.741  43.563  51.304  1.00  0.00     0.164 HD
HETATM    6  H   UNL     1      29.702  43.869  52.610  1.00  0.00     0.171 HD
ENDROOT
BRANCH   1   7
HETATM    7  C   UNL     1      26.823  41.678  51.427  1.00  0.00     0.126 C 
BRANCH   7   8
HETATM    8  C   UNL     1      25.787  42.139  50.399  1.00  0.00     0.041 C 
BRANCH   8   9
HETATM    9  C   UNL     1      24.614  42.917  50.987  1.00  0.00     0.152 C 
BRANCH   9  10
HETATM   10  N   UNL     1      24.677  44.338  50.709  1.00  0.00    -0.279 N 
HETATM   11  N   UNL     1      25.640  45.093  51.280  1.00  0.00    -0.176 NA
HETATM   12  C   UNL     1      25.383  46.331  50.827  1.00  0.00     0.074 A 
HETATM   13  C   UNL     1      26.222  47.478  51.253  1.00  0.00     0.074 C 
HETATM   14  C   UNL     1      24.267  46.345  49.956  1.00  0.00     0.077 A 
HETATM   15  C   UNL     1      23.837  45.043  49.899  1.00  0.00     0.138 A 
HETATM   16 CL   UNL     1      23.607  47.685  49.161  1.00  0.00    -0.081 Cl
ENDBRANCH   9  10
ENDBRANCH   8   9
ENDBRANCH   7   8
ENDBRANCH   1   7
BRANCH   3  17
HETATM   17  C   UNL     1      29.379  44.383  54.601  1.00  0.00     0.071 A 
HETATM   18  C   UNL     1      28.741  45.488  55.206  1.00  0.00     0.095 A 
HETATM   19  C   UNL     1      29.152  45.899  56.481  1.00  0.00     0.041 A 
HETATM   20  C   UNL     1      30.195  45.238  57.135  1.00  0.00     0.026 A 
HETATM   21  C   UNL     1      30.848  44.182  56.508  1.00  0.00     0.036 A 
HETATM   22 CL   UNL     1      32.147  43.386  57.310  1.00  0.00    -0.084 Cl
HETATM   23  C   UNL     1      30.458  43.760  55.240  1.00  0.00     0.056 A 
BRANCH  18  24
HETATM   24  O   UNL     1      27.818  46.162  54.449  1.00  0.00    -0.354 OA
HETATM   25  C   UNL     1      27.600  47.534  54.748  1.00  0.00     0.210 C 
ENDBRANCH  18  24
ENDBRANCH   3  17
TORSDOF 6
ENDMDL
MODEL 3
REMARK VINA RESULT:      -7.4      4.655      7.108
REMARK  6 active torsions:
REMARK  status: ('A' for Active; 'I' for Inactive)
REMARK    1  A    between atoms: N_4  and  C_5 
REMARK    2  A    between atoms: C_5  and  C_6 
REMARK    3  A    between atoms: C_6  and  C_7 
REMARK    4  A    between atoms: C_7  and  N_8 
REMARK       I    between atoms: N_8  and  C_9 
REMARK       I    between atoms: C_9  and  N_10 
REMARK    5  A    between atoms: N_10  and  C_11 
REMARK    6  A    between atoms: C_12  and  O_13 
ROOT
HETATM    1  N   UNL     1      24.606  43.025  51.504  1.00  0.00    -0.343 N 
HETATM    2  C   UNL     1      25.625  43.838  51.952  1.00  0.00     0.320 C 
HETATM    3  N   UNL     1      25.781  43.712  53.318  1.00  0.00    -0.306 N 
HETATM    4  O   UNL     1      26.240  44.604  51.220  1.00  0.00    -0.247 OA
HETATM    5  H   UNL     1      24.494  42.153  52.010  1.00  0.00     0.164 HD
HETATM    6  H   UNL     1      24.893  43.667  53.797  1.00  0.00     0.171 HD
ENDROOT
BRANCH   1   7
HETATM    7  C   UNL     1      24.216  43.005  50.110  1.00  0.00     0.126 C 
BRANCH   7   8
HETATM    8  C   UNL     1      24.664  41.757  49.346  1.00  0.00     0.041 C 
BRANCH   8   9
HETATM    9  C   UNL     1      26.068  41.844  48.755  1.00  0.00     0.152 C 
BRANCH   9  10
HETATM   10  N   UNL     1      27.041  41.049  49.478  1.00  0.00    -0.279 N 
HETATM   11  N   UNL     1      27.388  41.392  50.736  1.00  0.00    -0.176 NA
HETATM   12  C   UNL     1      28.304  40.470  51.075  1.00  0.00     0.074 A 
HETATM   13  C   UNL     1      28.961  40.514  52.404  1.00  0.00     0.074 C 
HETATM   14  C   UNL     1      28.516  39.539  50.030  1.00  0.00     0.077 A 
HETATM   15  C   UNL     1      27.683  39.939  49.015  1.00  0.00     0.138 A 
HETATM   16 CL   UNL     1      29.573  38.218  50.036  1.00  0.00    -0.081 Cl
ENDBRANCH   9  10
ENDBRANCH   8   9
ENDBRANCH   7   8
ENDBRANCH   1   7
BRANCH   3  17
HETATM   17  C   UNL     1      26.866  44.292  54.015  1.00  0.00     0.071 A 
HETATM   18  C   UNL     1      26.780  45.557  54.637  1.00  0.00     0.095 A 
HETATM   19  C   UNL     1      27.886  46.048  55.341  1.00  0.00     0.041 A 
HETATM   20  C   UNL     1      29.068  45.306  55.409  1.00  0.00     0.026 A 
HETATM   21  C   UNL     1      29.158  44.082  54.752  1.00  0.00     0.036 A 
HETATM   22 CL   UNL     1      30.623  43.183  54.820  1.00  0.00    -0.084 Cl
HETATM   23  C   UNL     1      28.070  43.578  54.043  1.00  0.00     0.056 A 
BRANCH  18  24
HETATM   24  O   UNL     1      25.635  46.279  54.417  1.00  0.00    -0.354 OA
HETATM   25  C   UNL     1      25.686  47.305  53.436  1.00  0.00     0.210 C 
ENDBRANCH  18  24
ENDBRANCH   3  17
TORSDOF 6
ENDMDL
MODEL 4
REMARK VINA RESULT:      -7.4      2.147      7.680
REMARK  6 active torsions:
REMARK  status: ('A' for Active; 'I' for Inactive)
REMARK    1  A    between atoms: N_4  and  C_5 
REMARK    2  A    between atoms: C_5  and  C_6 
REMARK    3  A    between atoms: C_6  and  C_7 
REMARK    4  A    between atoms: C_7  and  N_8 
REMARK       I    between atoms: N_8  and  C_9 
REMARK       I    between atoms: C_9  and  N_10 
REMARK    5  A    between atoms: N_10  and  C_11 
REMARK    6  A    between atoms: C_12  and  O_13 
ROOT
HETATM    1  N   UNL     1      25.578  43.269  51.832  1.00  0.00    -0.343 N 
HETATM    2  C   UNL     1      26.700  43.923  52.295  1.00  0.00     0.320 C 
HETATM    3  N   UNL     1      26.574  44.207  53.641  1.00  0.00    -0.306 N 
HETATM    4  O   UNL     1      27.631  44.251  51.569  1.00  0.00    -0.247 OA
HETATM    5  H   UNL     1      25.128  42.654  52.502  1.00  0.00     0.164 HD
HETATM    6  H   UNL     1      25.644  44.523  53.875  1.00  0.00     0.171 HD
ENDROOT
BRANCH   1   7
HETATM    7  C   UNL     1      25.446  42.896  50.439  1.00  0.00     0.126 C 
BRANCH   7   8
HETATM    8  C   UNL     1      24.778  43.957  49.561  1.00  0.00     0.041 C 
BRANCH   8   9
HETATM    9  C   UNL     1      24.119  45.096  50.332  1.00  0.00     0.152 C 
BRANCH   9  10
HETATM   10  N   UNL     1      24.580  46.406  49.916  1.00  0.00    -0.279 N 
HETATM   11  N   UNL     1      25.901  46.681  49.899  1.00  0.00    -0.176 NA
HETATM   12  C   UNL     1      25.954  47.961  49.495  1.00  0.00     0.074 A 
HETATM   13  C   UNL     1      27.258  48.656  49.368  1.00  0.00     0.074 C 
HETATM   14  C   UNL     1      24.662  48.480  49.243  1.00  0.00     0.077 A 
HETATM   15  C   UNL     1      23.798  47.451  49.521  1.00  0.00     0.138 A 
HETATM   16 CL   UNL     1      24.272  50.039  48.714  1.00  0.00    -0.081 Cl
ENDBRANCH   9  10
ENDBRANCH   8   9
ENDBRANCH   7   8
ENDBRANCH   1   7
BRANCH   3  17
HETATM   17  C   UNL     1      27.645  44.710  54.414  1.00  0.00     0.071 A 
HETATM   18  C   UNL     1      27.663  46.030  54.917  1.00  0.00     0.095 A 
HETATM   19  C   UNL     1      28.743  46.445  55.706  1.00  0.00     0.041 A 
HETATM   20  C   UNL     1      29.800  45.571  55.975  1.00  0.00     0.026 A 
HETATM   21  C   UNL     1      29.794  44.288  55.435  1.00  0.00     0.036 A 
HETATM   22 CL   UNL     1      31.108  43.223  55.752  1.00  0.00    -0.084 Cl
HETATM   23  C   UNL     1      28.732  43.858  54.644  1.00  0.00     0.056 A 
BRANCH  18  24
HETATM   24  O   UNL     1      26.657  46.865  54.503  1.00  0.00    -0.354 OA
HETATM   25  C   UNL     1      26.456  48.064  55.238  1.00  0.00     0.210 C 
ENDBRANCH  18  24
ENDBRANCH   3  17
TORSDOF 6
ENDMDL
MODEL 5
REMARK VINA RESULT:      -7.3      3.883      7.607
REMARK  6 active torsions:
REMARK  status: ('A' for Active; 'I' for Inactive)
REMARK    1  A    between atoms: N_4  and  C_5 
REMARK    2  A    between atoms: C_5  and  C_6 
REMARK    3  A    between atoms: C_6  and  C_7 
REMARK    4  A    between atoms: C_7  and  N_8 
REMARK       I    between atoms: N_8  and  C_9 
REMARK       I    between atoms: C_9  and  N_10 
REMARK    5  A    between atoms: N_10  and  C_11 
REMARK    6  A    between atoms: C_12  and  O_13 
ROOT
HETATM    1  N   UNL     1      29.058  41.946  52.151  1.00  0.00    -0.343 N 
HETATM    2  C   UNL     1      28.772  42.523  53.370  1.00  0.00     0.320 C 
HETATM    3  N   UNL     1      29.689  43.514  53.664  1.00  0.00    -0.306 N 
HETATM    4  O   UNL     1      27.863  42.139  54.096  1.00  0.00    -0.247 OA
HETATM    5  H   UNL     1      29.459  42.571  51.460  1.00  0.00     0.164 HD
HETATM    6  H   UNL     1      30.630  43.244  53.415  1.00  0.00     0.171 HD
ENDROOT
BRANCH   1   7
HETATM    7  C   UNL     1      28.265  40.851  51.633  1.00  0.00     0.126 C 
BRANCH   7   8
HETATM    8  C   UNL     1      26.992  41.283  50.901  1.00  0.00     0.041 C 
BRANCH   8   9
HETATM    9  C   UNL     1      27.192  42.407  49.889  1.00  0.00     0.152 C 
BRANCH   9  10
HETATM   10  N   UNL     1      26.778  43.703  50.388  1.00  0.00    -0.279 N 
HETATM   11  N   UNL     1      26.234  43.808  51.619  1.00  0.00    -0.176 NA
HETATM   12  C   UNL     1      25.957  45.116  51.733  1.00  0.00     0.074 A 
HETATM   13  C   UNL     1      25.315  45.646  52.961  1.00  0.00     0.074 C 
HETATM   14  C   UNL     1      26.344  45.833  50.576  1.00  0.00     0.077 A 
HETATM   15  C   UNL     1      26.873  44.892  49.728  1.00  0.00     0.138 A 
HETATM   16 CL   UNL     1      26.184  47.495  50.301  1.00  0.00    -0.081 Cl
ENDBRANCH   9  10
ENDBRANCH   8   9
ENDBRANCH   7   8
ENDBRANCH   1   7
BRANCH   3  17
HETATM   17  C   UNL     1      29.534  44.390  54.762  1.00  0.00     0.071 A 
HETATM   18  C   UNL     1      30.328  44.296  55.926  1.00  0.00     0.095 A 
HETATM   19  C   UNL     1      30.140  45.225  56.957  1.00  0.00     0.041 A 
HETATM   20  C   UNL     1      29.163  46.218  56.847  1.00  0.00     0.026 A 
HETATM   21  C   UNL     1      28.354  46.271  55.716  1.00  0.00     0.036 A 
HETATM   22 CL   UNL     1      27.137  47.482  55.594  1.00  0.00    -0.084 Cl
HETATM   23  C   UNL     1      28.522  45.354  54.681  1.00  0.00     0.056 A 
BRANCH  18  24
HETATM   24  O   UNL     1      31.173  43.219  56.015  1.00  0.00    -0.354 OA
HETATM   25  C   UNL     1      31.953  43.094  57.195  1.00  0.00     0.210 C 
ENDBRANCH  18  24
ENDBRANCH   3  17
TORSDOF 6
ENDMDL
MODEL 6
REMARK VINA RESULT:      -7.3      2.607      9.092
REMARK  6 active torsions:
REMARK  status: ('A' for Active; 'I' for Inactive)
REMARK    1  A    between atoms: N_4  and  C_5 
REMARK    2  A    between atoms: C_5  and  C_6 
REMARK    3  A    between atoms: C_6  and  C_7 
REMARK    4  A    between atoms: C_7  and  N_8 
REMARK       I    between atoms: N_8  and  C_9 
REMARK       I    between atoms: C_9  and  N_10 
REMARK    5  A    between atoms: N_10  and  C_11 
REMARK    6  A    between atoms: C_12  and  O_13 
ROOT
HETATM    1  N   UNL     1      24.273  46.516  50.634  1.00  0.00    -0.343 N 
HETATM    2  C   UNL     1      25.387  46.589  51.444  1.00  0.00     0.320 C 
HETATM    3  N   UNL     1      25.438  45.503  52.295  1.00  0.00    -0.306 N 
HETATM    4  O   UNL     1      26.164  47.536  51.429  1.00  0.00    -0.247 OA
HETATM    5  H   UNL     1      23.987  45.578  50.374  1.00  0.00     0.164 HD
HETATM    6  H   UNL     1      24.528  45.271  52.668  1.00  0.00     0.171 HD
ENDROOT
BRANCH   1   7
HETATM    7  C   UNL     1      23.969  47.559  49.677  1.00  0.00     0.126 C 
BRANCH   7   8
HETATM    8  C   UNL     1      22.754  47.272  48.792  1.00  0.00     0.041 C 
BRANCH   8   9
HETATM    9  C   UNL     1      22.404  48.388  47.813  1.00  0.00     0.152 C 
BRANCH   9  10
HETATM   10  N   UNL     1      21.369  49.274  48.307  1.00  0.00    -0.279 N 
HETATM   11  N   UNL     1      20.557  48.870  49.306  1.00  0.00    -0.176 NA
HETATM   12  C   UNL     1      19.727  49.911  49.483  1.00  0.00     0.074 A 
HETATM   13  C   UNL     1      18.649  49.851  50.499  1.00  0.00     0.074 C 
HETATM   14  C   UNL     1      20.035  50.976  48.602  1.00  0.00     0.077 A 
HETATM   15  C   UNL     1      21.101  50.534  47.859  1.00  0.00     0.138 A 
HETATM   16 CL   UNL     1      19.250  52.471  48.492  1.00  0.00    -0.081 Cl
ENDBRANCH   9  10
ENDBRANCH   8   9
ENDBRANCH   7   8
ENDBRANCH   1   7
BRANCH   3  17
HETATM   17  C   UNL     1      26.562  45.228  53.108  1.00  0.00     0.071 A 
HETATM   18  C   UNL     1      26.714  45.774  54.402  1.00  0.00     0.095 A 
HETATM   19  C   UNL     1      27.838  45.425  55.161  1.00  0.00     0.041 A 
HETATM   20  C   UNL     1      28.808  44.566  54.637  1.00  0.00     0.026 A 
HETATM   21  C   UNL     1      28.671  44.073  53.343  1.00  0.00     0.036 A 
HETATM   22 CL   UNL     1      29.879  43.033  52.694  1.00  0.00    -0.084 Cl
HETATM   23  C   UNL     1      27.563  44.411  52.570  1.00  0.00     0.056 A 
BRANCH  18  24
HETATM   24  O   UNL     1      25.789  46.707  54.794  1.00  0.00    -0.354 OA
HETATM   25  C   UNL     1      26.235  48.047  54.945  1.00  0.00     0.210 C 
ENDBRANCH  18  24
ENDBRANCH   3  17
TORSDOF 6
ENDMDL
MODEL 7
REMARK VINA RESULT:      -7.3      2.755      8.102
REMARK  6 active torsions:
REMARK  status: ('A' for Active; 'I' for Inactive)
REMARK    1  A    between atoms: N_4  and  C_5 
REMARK    2  A    between atoms: C_5  and  C_6 
REMARK    3  A    between atoms: C_6  and  C_7 
REMARK    4  A    between atoms: C_7  and  N_8 
REMARK       I    between atoms: N_8  and  C_9 
REMARK       I    between atoms: C_9  and  N_10 
REMARK    5  A    between atoms: N_10  and  C_11 
REMARK    6  A    between atoms: C_12  and  O_13 
ROOT
HETATM    1  N   UNL     1      25.184  43.387  50.846  1.00  0.00    -0.343 N 
HETATM    2  C   UNL     1      26.398  43.711  51.414  1.00  0.00     0.320 C 
HETATM    3  N   UNL     1      26.417  43.361  52.750  1.00  0.00    -0.306 N 
HETATM    4  O   UNL     1      27.288  44.290  50.804  1.00  0.00    -0.247 OA
HETATM    5  H   UNL     1      24.739  42.556  51.221  1.00  0.00     0.164 HD
HETATM    6  H   UNL     1      25.544  43.578  53.209  1.00  0.00     0.171 HD
ENDROOT
BRANCH   1   7
HETATM    7  C   UNL     1      24.897  43.690  49.460  1.00  0.00     0.126 C 
BRANCH   7   8
HETATM    8  C   UNL     1      24.020  44.927  49.251  1.00  0.00     0.041 C 
BRANCH   8   9
HETATM    9  C   UNL     1      24.206  46.021  50.298  1.00  0.00     0.152 C 
BRANCH   9  10
HETATM   10  N   UNL     1      24.672  47.273  49.738  1.00  0.00    -0.279 N 
HETATM   11  N   UNL     1      23.793  48.125  49.169  1.00  0.00    -0.176 NA
HETATM   12  C   UNL     1      24.562  49.142  48.748  1.00  0.00     0.074 A 
HETATM   13  C   UNL     1      23.962  50.296  48.036  1.00  0.00     0.074 C 
HETATM   14  C   UNL     1      25.924  48.931  49.071  1.00  0.00     0.077 A 
HETATM   15  C   UNL     1      25.961  47.718  49.712  1.00  0.00     0.138 A 
HETATM   16 CL   UNL     1      27.226  49.959  48.734  1.00  0.00    -0.081 Cl
ENDBRANCH   9  10
ENDBRANCH   8   9
ENDBRANCH   7   8
ENDBRANCH   1   7
BRANCH   3  17
HETATM   17  C   UNL     1      27.594  43.413  53.532  1.00  0.00     0.071 A 
HETATM   18  C   UNL     1      28.473  42.315  53.654  1.00  0.00     0.095 A 
HETATM   19  C   UNL     1      29.638  42.455  54.417  1.00  0.00     0.041 A 
HETATM   20  C   UNL     1      29.917  43.660  55.069  1.00  0.00     0.026 A 
HETATM   21  C   UNL     1      29.019  44.720  54.981  1.00  0.00     0.036 A 
HETATM   22 CL   UNL     1      29.356  46.193  55.803  1.00  0.00    -0.084 Cl
HETATM   23  C   UNL     1      27.853  44.599  54.230  1.00  0.00     0.056 A 
BRANCH  18  24
HETATM   24  O   UNL     1      28.067  41.131  53.093  1.00  0.00    -0.354 OA
HETATM   25  C   UNL     1      28.607  40.787  51.825  1.00  0.00     0.210 C 
ENDBRANCH  18  24
ENDBRANCH   3  17
TORSDOF 6
ENDMDL
MODEL 8
REMARK VINA RESULT:      -7.2      1.793      2.189
REMARK  6 active torsions:
REMARK  status: ('A' for Active; 'I' for Inactive)
REMARK    1  A    between atoms: N_4  and  C_5 
REMARK    2  A    between atoms: C_5  and  C_6 
REMARK    3  A    between atoms: C_6  and  C_7 
REMARK    4  A    between atoms: C_7  and  N_8 
REMARK       I    between atoms: N_8  and  C_9 
REMARK       I    between atoms: C_9  and  N_10 
REMARK    5  A    between atoms: N_10  and  C_11 
REMARK    6  A    between atoms: C_12  and  O_13 
ROOT
HETATM    1  N   UNL     1      25.101  45.849  49.870  1.00  0.00    -0.343 N 
HETATM    2  C   UNL     1      24.749  47.180  49.943  1.00  0.00     0.320 C 
HETATM    3  N   UNL     1      23.969  47.534  48.860  1.00  0.00    -0.306 N 
HETATM    4  O   UNL     1      25.150  47.931  50.824  1.00  0.00    -0.247 OA
HETATM    5  H   UNL     1      24.408  45.240  49.447  1.00  0.00     0.164 HD
HETATM    6  H   UNL     1      24.304  47.123  48.001  1.00  0.00     0.171 HD
ENDROOT
BRANCH   1   7
HETATM    7  C   UNL     1      25.954  45.241  50.869  1.00  0.00     0.126 C 
BRANCH   7   8
HETATM    8  C   UNL     1      25.298  44.103  51.654  1.00  0.00     0.041 C 
BRANCH   8   9
HETATM    9  C   UNL     1      25.281  44.302  53.166  1.00  0.00     0.152 C 
BRANCH   9  10
HETATM   10  N   UNL     1      26.606  44.345  53.751  1.00  0.00    -0.279 N 
HETATM   11  N   UNL     1      27.031  45.464  54.374  1.00  0.00    -0.176 NA
HETATM   12  C   UNL     1      28.280  45.157  54.761  1.00  0.00     0.074 A 
HETATM   13  C   UNL     1      29.113  46.155  55.475  1.00  0.00     0.074 C 
HETATM   14  C   UNL     1      28.629  43.836  54.392  1.00  0.00     0.077 A 
HETATM   15  C   UNL     1      27.526  43.338  53.745  1.00  0.00     0.138 A 
HETATM   16 CL   UNL     1      30.096  43.045  54.687  1.00  0.00    -0.081 Cl
ENDBRANCH   9  10
ENDBRANCH   8   9
ENDBRANCH   7   8
ENDBRANCH   1   7
BRANCH   3  17
HETATM   17  C   UNL     1      23.319  48.787  48.770  1.00  0.00     0.071 A 
HETATM   18  C   UNL     1      23.843  49.860  48.015  1.00  0.00     0.095 A 
HETATM   19  C   UNL     1      23.122  51.059  47.944  1.00  0.00     0.041 A 
HETATM   20  C   UNL     1      21.913  51.200  48.629  1.00  0.00     0.026 A 
HETATM   21  C   UNL     1      21.431  50.153  49.408  1.00  0.00     0.036 A 
HETATM   22 CL   UNL     1      19.952  50.339  50.268  1.00  0.00    -0.084 Cl
HETATM   23  C   UNL     1      22.134  48.954  49.496  1.00  0.00     0.056 A 
BRANCH  18  24
HETATM   24  O   UNL     1      25.094  49.689  47.480  1.00  0.00    -0.354 OA
HETATM   25  C   UNL     1      26.201  50.138  48.248  1.00  0.00     0.210 C 
ENDBRANCH  18  24
ENDBRANCH   3  17
TORSDOF 6
ENDMDL
MODEL 9
REMARK VINA RESULT:      -7.1      5.780      8.414
REMARK  6 active torsions:
REMARK  status: ('A' for Active; 'I' for Inactive)
REMARK    1  A    between atoms: N_4  and  C_5 
REMARK    2  A    between atoms: C_5  and  C_6 
REMARK    3  A    between atoms: C_6  and  C_7 
REMARK    4  A    between atoms: C_7  and  N_8 
REMARK       I    between atoms: N_8  and  C_9 
REMARK       I    between atoms: C_9  and  N_10 
REMARK    5  A    between atoms: N_10  and  C_11 
REMARK    6  A    between atoms: C_12  and  O_13 
ROOT
HETATM    1  N   UNL     1      27.268  43.163  51.981  1.00  0.00    -0.343 N 
HETATM    2  C   UNL     1      27.664  43.274  53.296  1.00  0.00     0.320 C 
HETATM    3  N   UNL     1      28.793  44.064  53.397  1.00  0.00    -0.306 N 
HETATM    4  O   UNL     1      27.108  42.684  54.215  1.00  0.00    -0.247 OA
HETATM    5  H   UNL     1      27.441  43.980  51.405  1.00  0.00     0.164 HD
HETATM    6  H   UNL     1      29.456  43.871  52.660  1.00  0.00     0.171 HD
ENDROOT
BRANCH   1   7
HETATM    7  C   UNL     1      26.130  42.351  51.604  1.00  0.00     0.126 C 
BRANCH   7   8
HETATM    8  C   UNL     1      25.874  42.280  50.097  1.00  0.00     0.041 C 
BRANCH   8   9
HETATM    9  C   UNL     1      27.088  41.877  49.266  1.00  0.00     0.152 C 
BRANCH   9  10
HETATM   10  N   UNL     1      27.496  40.503  49.483  1.00  0.00    -0.279 N 
HETATM   11  N   UNL     1      26.667  39.493  49.145  1.00  0.00    -0.176 NA
HETATM   12  C   UNL     1      27.348  38.391  49.501  1.00  0.00     0.074 A 
HETATM   13  C   UNL     1      26.754  37.046  49.310  1.00  0.00     0.074 C 
HETATM   14  C   UNL     1      28.613  38.715  50.046  1.00  0.00     0.077 A 
HETATM   15  C   UNL     1      28.680  40.085  50.017  1.00  0.00     0.138 A 
HETATM   16 CL   UNL     1      29.788  37.637  50.613  1.00  0.00    -0.081 Cl
ENDBRANCH   9  10
ENDBRANCH   8   9
ENDBRANCH   7   8
ENDBRANCH   1   7
BRANCH   3  17
HETATM   17  C   UNL     1      29.311  44.494  54.640  1.00  0.00     0.071 A 
HETATM   18  C   UNL     1      28.842  45.653  55.297  1.00  0.00     0.095 A 
HETATM   19  C   UNL     1      29.379  45.994  56.545  1.00  0.00     0.041 A 
HETATM   20  C   UNL     1      30.381  45.210  57.123  1.00  0.00     0.026 A 
HETATM   21  C   UNL     1      30.869  44.097  56.444  1.00  0.00     0.036 A 
HETATM   22 CL   UNL     1      32.118  43.147  57.150  1.00  0.00    -0.084 Cl
HETATM   23  C   UNL     1      30.351  43.743  55.201  1.00  0.00     0.056 A 
BRANCH  18  24
HETATM   24  O   UNL     1      27.954  46.439  54.609  1.00  0.00    -0.354 OA
HETATM   25  C   UNL     1      27.355  47.520  55.310  1.00  0.00     0.210 C 
ENDBRANCH  18  24
ENDBRANCH   3  17
TORSDOF 6
ENDMDL
MODEL 10
REMARK VINA RESULT:      -7.1      2.122      3.078
REMARK  6 active torsions:
REMARK  status: ('A' for Active; 'I' for Inactive)
REMARK    1  A    between atoms: N_4  and  C_5 
REMARK    2  A    between atoms: C_5  and  C_6 
REMARK    3  A    between atoms: C_6  and  C_7 
REMARK    4  A    between atoms: C_7  and  N_8 
REMARK       I    between atoms: N_8  and  C_9 
REMARK       I    between atoms: C_9  and  N_10 
REMARK    5  A    between atoms: N_10  and  C_11 
REMARK    6  A    between atoms: C_12  and  O_13 
ROOT
HETATM    1  N   UNL     1      24.733  44.521  51.329  1.00  0.00    -0.343 N 
HETATM    2  C   UNL     1      24.836  45.377  50.253  1.00  0.00     0.320 C 
HETATM    3  N   UNL     1      24.202  46.574  50.523  1.00  0.00    -0.306 N 
HETATM    4  O   UNL     1      25.365  45.060  49.194  1.00  0.00    -0.247 OA
HETATM    5  H   UNL     1      24.731  44.969  52.239  1.00  0.00     0.164 HD
HETATM    6  H   UNL     1      23.326  46.436  51.007  1.00  0.00     0.171 HD
ENDROOT
BRANCH   1   7
HETATM    7  C   UNL     1      25.283  43.183  51.281  1.00  0.00     0.126 C 
BRANCH   7   8
HETATM    8  C   UNL     1      26.805  43.119  51.432  1.00  0.00     0.041 C 
BRANCH   8   9
HETATM    9  C   UNL     1      27.288  42.742  52.829  1.00  0.00     0.152 C 
BRANCH   9  10
HETATM   10  N   UNL     1      27.686  43.887  53.623  1.00  0.00    -0.279 N 
HETATM   11  N   UNL     1      26.976  45.034  53.552  1.00  0.00    -0.176 NA
HETATM   12  C   UNL     1      27.630  45.863  54.382  1.00  0.00     0.074 A 
HETATM   13  C   UNL     1      27.168  47.260  54.569  1.00  0.00     0.074 C 
HETATM   14  C   UNL     1      28.741  45.227  54.985  1.00  0.00     0.077 A 
HETATM   15  C   UNL     1      28.747  43.952  54.477  1.00  0.00     0.138 A 
HETATM   16 CL   UNL     1      29.828  45.899  56.093  1.00  0.00    -0.081 Cl
ENDBRANCH   9  10
ENDBRANCH   8   9
ENDBRANCH   7   8
ENDBRANCH   1   7
BRANCH   3  17
HETATM   17  C   UNL     1      24.304  47.697  49.670  1.00  0.00     0.071 A 
HETATM   18  C   UNL     1      23.203  48.198  48.941  1.00  0.00     0.095 A 
HETATM   19  C   UNL     1      23.374  49.338  48.145  1.00  0.00     0.041 A 
HETATM   20  C   UNL     1      24.624  49.957  48.055  1.00  0.00     0.026 A 
HETATM   21  C   UNL     1      25.712  49.426  48.740  1.00  0.00     0.036 A 
HETATM   22 CL   UNL     1      27.254  50.180  48.608  1.00  0.00    -0.084 Cl
HETATM   23  C   UNL     1      25.564  48.291  49.534  1.00  0.00     0.056 A 
BRANCH  18  24
HETATM   24  O   UNL     1      22.047  47.462  48.979  1.00  0.00    -0.354 OA
HETATM   25  C   UNL     1      20.819  48.163  48.848  1.00  0.00     0.210 C 
ENDBRANCH  18  24
ENDBRANCH   3  17
TORSDOF 6
ENDMDL
