MODEL 1
REMARK VINA RESULT:      -9.8      0.000      0.000
REMARK  7 active torsions:
REMARK  status: ('A' for Active; 'I' for Inactive)
REMARK    1  A    between atoms: C_2  and  O_3 
REMARK    2  A    between atoms: O_3  and  C_4 
REMARK    3  A    between atoms: C_4  and  C_5 
REMARK    4  A    between atoms: C_10  and  N_11 
REMARK       I    between atoms: N_11  and  C_12 
REMARK    5  A    between atoms: C_12  and  C_13 
REMARK    6  A    between atoms: C_13  and  N_14 
REMARK    7  A    between atoms: N_18  and  C_19 
ROOT
HETATM    1  N   UNL     1      23.200  47.505  49.224  1.00  0.00    -0.323 N 
HETATM    2  C   UNL     1      22.752  46.387  48.567  1.00  0.00     0.248 C 
HETATM    3  O   UNL     1      21.785  46.291  47.812  1.00  0.00    -0.271 OA
HETATM    4  H   UNL     1      23.787  47.391  50.053  1.00  0.00     0.169 HD
ENDROOT
BRANCH   1   5
HETATM    5  C   UNL     1      22.755  48.810  49.024  1.00  0.00     0.080 A 
HETATM    6  C   UNL     1      23.633  49.799  48.601  1.00  0.00     0.137 A 
HETATM    7  N   UNL     1      22.923  50.972  48.524  1.00  0.00    -0.349 N 
HETATM    8  H   UNL     1      23.321  51.862  48.254  1.00  0.00     0.166 HD
HETATM    9  C   UNL     1      21.595  50.759  48.798  1.00  0.00     0.048 A 
HETATM   10  C   UNL     1      21.447  49.398  49.116  1.00  0.00     0.023 A 
HETATM   11  C   UNL     1      20.530  51.675  48.767  1.00  0.00     0.070 A 
HETATM   12  C   UNL     1      20.142  48.920  49.386  1.00  0.00     0.055 A 
HETATM   13  C   UNL     1      19.097  49.827  49.342  1.00  0.00     0.106 A 
HETATM   14  C   UNL     1      19.285  51.151  49.049  1.00  0.00     0.107 A 
HETATM   15  O   UNL     1      17.788  49.523  49.564  1.00  0.00    -0.323 OA
HETATM   16  O   UNL     1      18.121  51.854  49.052  1.00  0.00    -0.323 OA
HETATM   17  C   UNL     1      17.174  50.817  49.379  1.00  0.00     0.352 A 
BRANCH   6  18
HETATM   18  C   UNL     1      25.038  49.680  48.298  1.00  0.00     0.312 C 
HETATM   19  O   UNL     1      25.558  50.143  47.290  1.00  0.00    -0.258 OA
BRANCH  18  20
HETATM   20  O   UNL     1      25.668  49.002  49.293  1.00  0.00    -0.317 OA
BRANCH  20  21
HETATM   21  C   UNL     1      26.992  48.524  49.012  1.00  0.00     0.175 C 
HETATM   22  C   UNL     1      27.979  49.655  49.228  1.00  0.00     0.034 C 
ENDBRANCH  20  21
ENDBRANCH  18  20
ENDBRANCH   6  18
ENDBRANCH   1   5
BRANCH   2  23
HETATM   23  C   UNL     1      23.579  45.125  48.832  1.00  0.00     0.337 C 
BRANCH  23  24
HETATM   24  N   UNL     1      24.524  45.360  50.007  1.00  0.00    -0.060 N 
HETATM   25  H   UNL     1      24.310  46.323  50.322  1.00  0.00     0.280 HD
HETATM   26  C   UNL     1      24.208  44.469  51.208  1.00  0.00     0.255 C 
HETATM   27  C   UNL     1      25.093  44.855  52.410  1.00  0.00     0.150 C 
HETATM   28  N   UNL     1      26.521  44.912  52.056  1.00  0.00    -0.377 N 
HETATM   29  C   UNL     1      26.870  45.686  50.849  1.00  0.00     0.150 C 
HETATM   30  C   UNL     1      25.993  45.285  49.643  1.00  0.00     0.255 C 
BRANCH  28  31
HETATM   31  C   UNL     1      27.372  43.859  52.393  1.00  0.00     0.037 A 
HETATM   32  C   UNL     1      28.215  43.941  53.528  1.00  0.00    -0.035 A 
HETATM   33  C   UNL     1      28.195  45.120  54.468  1.00  0.00     0.050 C 
HETATM   34  C   UNL     1      29.106  42.891  53.828  1.00  0.00     0.011 A 
HETATM   35  C   UNL     1      29.145  41.741  53.045  1.00  0.00     0.024 A 
HETATM   36  C   UNL     1      28.293  41.636  51.957  1.00  0.00     0.036 A 
HETATM   37 CL   UNL     1      28.318  40.221  50.979  1.00  0.00    -0.084 Cl
HETATM   38  C   UNL     1      27.416  42.677  51.635  1.00  0.00     0.053 A 
ENDBRANCH  28  31
ENDBRANCH  23  24
ENDBRANCH   2  23
TORSDOF 7
ENDMDL
MODEL 2
REMARK VINA RESULT:      -9.6      4.065     10.115
REMARK  7 active torsions:
REMARK  status: ('A' for Active; 'I' for Inactive)
REMARK    1  A    between atoms: C_2  and  O_3 
REMARK    2  A    between atoms: O_3  and  C_4 
REMARK    3  A    between atoms: C_4  and  C_5 
REMARK    4  A    between atoms: C_10  and  N_11 
REMARK       I    between atoms: N_11  and  C_12 
REMARK    5  A    between atoms: C_12  and  C_13 
REMARK    6  A    between atoms: C_13  and  N_14 
REMARK    7  A    between atoms: N_18  and  C_19 
ROOT
HETATM    1  N   UNL     1      25.858  43.388  52.101  1.00  0.00    -0.323 N 
HETATM    2  C   UNL     1      25.674  44.209  51.018  1.00  0.00     0.248 C 
HETATM    3  O   UNL     1      26.525  44.848  50.401  1.00  0.00    -0.271 OA
HETATM    4  H   UNL     1      25.063  43.186  52.711  1.00  0.00     0.169 HD
ENDROOT
BRANCH   1   5
HETATM    5  C   UNL     1      27.083  42.966  52.614  1.00  0.00     0.080 A 
HETATM    6  C   UNL     1      27.704  41.830  52.113  1.00  0.00     0.137 A 
HETATM    7  N   UNL     1      28.864  41.648  52.825  1.00  0.00    -0.349 N 
HETATM    8  H   UNL     1      29.509  40.882  52.679  1.00  0.00     0.166 HD
HETATM    9  C   UNL     1      29.060  42.678  53.712  1.00  0.00     0.048 A 
HETATM   10  C   UNL     1      27.952  43.537  53.604  1.00  0.00     0.023 A 
HETATM   11  C   UNL     1      30.144  42.903  54.577  1.00  0.00     0.070 A 
HETATM   12  C   UNL     1      27.952  44.714  54.391  1.00  0.00     0.055 A 
HETATM   13  C   UNL     1      29.029  44.934  55.232  1.00  0.00     0.106 A 
HETATM   14  C   UNL     1      30.079  44.061  55.324  1.00  0.00     0.107 A 
HETATM   15  O   UNL     1      29.181  46.020  56.039  1.00  0.00    -0.323 OA
HETATM   16  O   UNL     1      31.028  44.481  56.202  1.00  0.00    -0.323 OA
HETATM   17  C   UNL     1      30.454  45.724  56.653  1.00  0.00     0.352 A 
BRANCH   6  18
HETATM   18  C   UNL     1      27.257  40.956  51.055  1.00  0.00     0.312 C 
HETATM   19  O   UNL     1      26.100  40.570  50.937  1.00  0.00    -0.258 OA
BRANCH  18  20
HETATM   20  O   UNL     1      28.297  40.657  50.234  1.00  0.00    -0.317 OA
BRANCH  20  21
HETATM   21  C   UNL     1      28.346  39.320  49.714  1.00  0.00     0.175 C 
HETATM   22  C   UNL     1      29.361  38.521  50.508  1.00  0.00     0.034 C 
ENDBRANCH  20  21
ENDBRANCH  18  20
ENDBRANCH   6  18
ENDBRANCH   1   5
BRANCH   2  23
HETATM   23  C   UNL     1      24.219  44.320  50.551  1.00  0.00     0.337 C 
BRANCH  23  24
HETATM   24  N   UNL     1      24.061  45.523  49.624  1.00  0.00    -0.060 N 
HETATM   25  H   UNL     1      24.792  45.391  48.903  1.00  0.00     0.280 HD
HETATM   26  C   UNL     1      22.738  45.509  48.859  1.00  0.00     0.255 C 
HETATM   27  C   UNL     1      22.701  46.660  47.833  1.00  0.00     0.150 C 
HETATM   28  N   UNL     1      23.038  47.959  48.439  1.00  0.00    -0.377 N 
HETATM   29  C   UNL     1      24.260  48.002  49.266  1.00  0.00     0.150 C 
HETATM   30  C   UNL     1      24.286  46.859  50.303  1.00  0.00     0.255 C 
BRANCH  28  31
HETATM   31  C   UNL     1      22.030  48.868  48.762  1.00  0.00     0.037 A 
HETATM   32  C   UNL     1      22.193  50.252  48.514  1.00  0.00    -0.035 A 
HETATM   33  C   UNL     1      23.414  50.814  47.830  1.00  0.00     0.050 C 
HETATM   34  C   UNL     1      21.187  51.164  48.891  1.00  0.00     0.011 A 
HETATM   35  C   UNL     1      20.003  50.722  49.473  1.00  0.00     0.024 A 
HETATM   36  C   UNL     1      19.819  49.364  49.681  1.00  0.00     0.036 A 
HETATM   37 CL   UNL     1      18.360  48.794  50.392  1.00  0.00    -0.084 Cl
HETATM   38  C   UNL     1      20.815  48.448  49.329  1.00  0.00     0.053 A 
ENDBRANCH  28  31
ENDBRANCH  23  24
ENDBRANCH   2  23
TORSDOF 7
ENDMDL
MODEL 3
REMARK VINA RESULT:      -9.3      2.684      4.055
REMARK  7 active torsions:
REMARK  status: ('A' for Active; 'I' for Inactive)
REMARK    1  A    between atoms: C_2  and  O_3 
REMARK    2  A    between atoms: O_3  and  C_4 
REMARK    3  A    between atoms: C_4  and  C_5 
REMARK    4  A    between atoms: C_10  and  N_11 
REMARK       I    between atoms: N_11  and  C_12 
REMARK    5  A    between atoms: C_12  and  C_13 
REMARK    6  A    between atoms: C_13  and  N_14 
REMARK    7  A    between atoms: N_18  and  C_19 
ROOT
HETATM    1  N   UNL     1      24.789  44.869  49.650  1.00  0.00    -0.323 N 
HETATM    2  C   UNL     1      24.763  44.104  50.788  1.00  0.00     0.248 C 
HETATM    3  O   UNL     1      24.264  44.387  51.877  1.00  0.00    -0.271 OA
HETATM    4  H   UNL     1      25.497  44.676  48.939  1.00  0.00     0.169 HD
ENDROOT
BRANCH   1   5
HETATM    5  C   UNL     1      24.090  46.056  49.441  1.00  0.00     0.080 A 
HETATM    6  C   UNL     1      24.676  47.281  49.731  1.00  0.00     0.137 A 
HETATM    7  N   UNL     1      23.747  48.255  49.456  1.00  0.00    -0.349 N 
HETATM    8  H   UNL     1      23.903  49.246  49.593  1.00  0.00     0.166 HD
HETATM    9  C   UNL     1      22.611  47.709  48.914  1.00  0.00     0.048 A 
HETATM   10  C   UNL     1      22.792  46.315  48.883  1.00  0.00     0.023 A 
HETATM   11  C   UNL     1      21.459  48.360  48.440  1.00  0.00     0.070 A 
HETATM   12  C   UNL     1      21.764  45.529  48.309  1.00  0.00     0.055 A 
HETATM   13  C   UNL     1      20.637  46.179  47.835  1.00  0.00     0.106 A 
HETATM   14  C   UNL     1      20.490  47.538  47.903  1.00  0.00     0.107 A 
HETATM   15  O   UNL     1      19.572  45.568  47.246  1.00  0.00    -0.323 OA
HETATM   16  O   UNL     1      19.312  47.960  47.369  1.00  0.00    -0.323 OA
HETATM   17  C   UNL     1      18.734  46.706  46.954  1.00  0.00     0.352 A 
BRANCH   6  18
HETATM   18  C   UNL     1      25.999  47.543  50.243  1.00  0.00     0.312 C 
HETATM   19  O   UNL     1      26.252  47.681  51.434  1.00  0.00    -0.258 OA
BRANCH  18  20
HETATM   20  O   UNL     1      26.888  47.594  49.216  1.00  0.00    -0.317 OA
BRANCH  20  21
HETATM   21  C   UNL     1      27.699  48.774  49.122  1.00  0.00     0.175 C 
HETATM   22  C   UNL     1      26.874  49.891  48.513  1.00  0.00     0.034 C 
ENDBRANCH  20  21
ENDBRANCH  18  20
ENDBRANCH   6  18
ENDBRANCH   1   5
BRANCH   2  23
HETATM   23  C   UNL     1      25.451  42.743  50.650  1.00  0.00     0.337 C 
BRANCH  23  24
HETATM   24  N   UNL     1      26.706  42.703  51.518  1.00  0.00    -0.060 N 
HETATM   25  H   UNL     1      27.236  41.885  51.168  1.00  0.00     0.280 HD
HETATM   26  C   UNL     1      27.624  43.903  51.285  1.00  0.00     0.255 C 
HETATM   27  C   UNL     1      28.938  43.732  52.072  1.00  0.00     0.150 C 
HETATM   28  N   UNL     1      28.702  43.414  53.491  1.00  0.00    -0.377 N 
HETATM   29  C   UNL     1      27.751  42.321  53.771  1.00  0.00     0.150 C 
HETATM   30  C   UNL     1      26.429  42.505  52.994  1.00  0.00     0.255 C 
BRANCH  28  31
HETATM   31  C   UNL     1      28.820  44.408  54.463  1.00  0.00     0.037 A 
HETATM   32  C   UNL     1      29.841  44.348  55.442  1.00  0.00    -0.035 A 
HETATM   33  C   UNL     1      30.891  43.265  55.453  1.00  0.00     0.050 C 
HETATM   34  C   UNL     1      29.919  45.332  56.449  1.00  0.00     0.011 A 
HETATM   35  C   UNL     1      29.025  46.397  56.476  1.00  0.00     0.024 A 
HETATM   36  C   UNL     1      28.048  46.485  55.496  1.00  0.00     0.036 A 
HETATM   37 CL   UNL     1      26.937  47.799  55.506  1.00  0.00    -0.084 Cl
HETATM   38  C   UNL     1      27.947  45.508  54.502  1.00  0.00     0.053 A 
ENDBRANCH  28  31
ENDBRANCH  23  24
ENDBRANCH   2  23
TORSDOF 7
ENDMDL
MODEL 4
REMARK VINA RESULT:      -9.2      3.825      9.718
REMARK  7 active torsions:
REMARK  status: ('A' for Active; 'I' for Inactive)
REMARK    1  A    between atoms: C_2  and  O_3 
REMARK    2  A    between atoms: O_3  and  C_4 
REMARK    3  A    between atoms: C_4  and  C_5 
REMARK    4  A    between atoms: C_10  and  N_11 
REMARK       I    between atoms: N_11  and  C_12 
REMARK    5  A    between atoms: C_12  and  C_13 
REMARK    6  A    between atoms: C_13  and  N_14 
REMARK    7  A    between atoms: N_18  and  C_19 
ROOT
HETATM    1  N   UNL     1      24.210  45.994  50.421  1.00  0.00    -0.323 N 
HETATM    2  C   UNL     1      24.108  47.221  49.816  1.00  0.00     0.248 C 
HETATM    3  O   UNL     1      24.800  48.219  50.009  1.00  0.00    -0.271 OA
HETATM    4  H   UNL     1      23.398  45.373  50.423  1.00  0.00     0.169 HD
ENDROOT
BRANCH   1   5
HETATM    5  C   UNL     1      25.245  45.572  51.252  1.00  0.00     0.080 A 
HETATM    6  C   UNL     1      26.062  44.512  50.881  1.00  0.00     0.137 A 
HETATM    7  N   UNL     1      26.959  44.308  51.900  1.00  0.00    -0.349 N 
HETATM    8  H   UNL     1      27.665  43.583  51.901  1.00  0.00     0.166 HD
HETATM    9  C   UNL     1      26.809  45.256  52.881  1.00  0.00     0.048 A 
HETATM   10  C   UNL     1      25.733  46.080  52.504  1.00  0.00     0.023 A 
HETATM   11  C   UNL     1      27.561  45.439  54.054  1.00  0.00     0.070 A 
HETATM   12  C   UNL     1      25.417  47.177  53.342  1.00  0.00     0.055 A 
HETATM   13  C   UNL     1      26.170  47.356  54.489  1.00  0.00     0.106 A 
HETATM   14  C   UNL     1      27.196  46.518  54.832  1.00  0.00     0.107 A 
HETATM   15  O   UNL     1      26.000  48.367  55.386  1.00  0.00    -0.323 OA
HETATM   16  O   UNL     1      27.804  46.890  55.991  1.00  0.00    -0.323 OA
HETATM   17  C   UNL     1      27.041  48.063  56.338  1.00  0.00     0.352 A 
BRANCH   6  18
HETATM   18  C   UNL     1      26.015  43.726  49.672  1.00  0.00     0.312 C 
HETATM   19  O   UNL     1      25.034  43.662  48.941  1.00  0.00    -0.258 OA
BRANCH  18  20
HETATM   20  O   UNL     1      27.207  43.102  49.482  1.00  0.00    -0.317 OA
BRANCH  20  21
HETATM   21  C   UNL     1      27.172  41.674  49.334  1.00  0.00     0.175 C 
HETATM   22  C   UNL     1      28.014  41.046  50.428  1.00  0.00     0.034 C 
ENDBRANCH  20  21
ENDBRANCH  18  20
ENDBRANCH   6  18
ENDBRANCH   1   5
BRANCH   2  23
HETATM   23  C   UNL     1      22.980  47.323  48.783  1.00  0.00     0.337 C 
BRANCH  23  24
HETATM   24  N   UNL     1      21.956  48.362  49.232  1.00  0.00    -0.060 N 
HETATM   25  H   UNL     1      22.111  48.453  50.252  1.00  0.00     0.280 HD
HETATM   26  C   UNL     1      22.234  49.752  48.661  1.00  0.00     0.255 C 
HETATM   27  C   UNL     1      21.262  50.784  49.266  1.00  0.00     0.150 C 
HETATM   28  N   UNL     1      19.857  50.356  49.164  1.00  0.00    -0.377 N 
HETATM   29  C   UNL     1      19.552  48.985  49.619  1.00  0.00     0.150 C 
HETATM   30  C   UNL     1      20.516  47.952  48.997  1.00  0.00     0.255 C 
BRANCH  28  31
HETATM   31  C   UNL     1      19.030  50.886  48.173  1.00  0.00     0.037 A 
HETATM   32  C   UNL     1      18.028  51.834  48.493  1.00  0.00    -0.035 A 
HETATM   33  C   UNL     1      17.842  52.375  49.889  1.00  0.00     0.050 C 
HETATM   34  C   UNL     1      17.167  52.324  47.491  1.00  0.00     0.011 A 
HETATM   35  C   UNL     1      17.310  51.921  46.167  1.00  0.00     0.024 A 
HETATM   36  C   UNL     1      18.316  51.025  45.838  1.00  0.00     0.036 A 
HETATM   37 CL   UNL     1      18.516  50.520  44.207  1.00  0.00    -0.084 Cl
HETATM   38  C   UNL     1      19.167  50.516  46.824  1.00  0.00     0.053 A 
ENDBRANCH  28  31
ENDBRANCH  23  24
ENDBRANCH   2  23
TORSDOF 7
ENDMDL
MODEL 5
REMARK VINA RESULT:      -9.0      2.332      3.159
REMARK  7 active torsions:
REMARK  status: ('A' for Active; 'I' for Inactive)
REMARK    1  A    between atoms: C_2  and  O_3 
REMARK    2  A    between atoms: O_3  and  C_4 
REMARK    3  A    between atoms: C_4  and  C_5 
REMARK    4  A    between atoms: C_10  and  N_11 
REMARK       I    between atoms: N_11  and  C_12 
REMARK    5  A    between atoms: C_12  and  C_13 
REMARK    6  A    between atoms: C_13  and  N_14 
REMARK    7  A    between atoms: N_18  and  C_19 
ROOT
HETATM    1  N   UNL     1      23.463  45.481  48.643  1.00  0.00    -0.323 N 
HETATM    2  C   UNL     1      23.327  44.399  49.476  1.00  0.00     0.248 C 
HETATM    3  O   UNL     1      22.720  44.340  50.544  1.00  0.00    -0.271 OA
HETATM    4  H   UNL     1      24.240  45.501  47.979  1.00  0.00     0.169 HD
ENDROOT
BRANCH   1   5
HETATM    5  C   UNL     1      22.782  46.691  48.750  1.00  0.00     0.080 A 
HETATM    6  C   UNL     1      23.344  47.759  49.437  1.00  0.00     0.137 A 
HETATM    7  N   UNL     1      22.440  48.792  49.400  1.00  0.00    -0.349 N 
HETATM    8  H   UNL     1      22.585  49.693  49.840  1.00  0.00     0.166 HD
HETATM    9  C   UNL     1      21.348  48.460  48.638  1.00  0.00     0.048 A 
HETATM   10  C   UNL     1      21.530  47.135  48.203  1.00  0.00     0.023 A 
HETATM   11  C   UNL     1      20.236  49.249  48.300  1.00  0.00     0.070 A 
HETATM   12  C   UNL     1      20.549  46.581  47.346  1.00  0.00     0.055 A 
HETATM   13  C   UNL     1      19.461  47.369  47.009  1.00  0.00     0.106 A 
HETATM   14  C   UNL     1      19.310  48.648  47.472  1.00  0.00     0.107 A 
HETATM   15  O   UNL     1      18.444  46.987  46.188  1.00  0.00    -0.323 OA
HETATM   16  O   UNL     1      18.176  49.238  47.005  1.00  0.00    -0.323 OA
HETATM   17  C   UNL     1      17.631  48.180  46.192  1.00  0.00     0.352 A 
BRANCH   6  18
HETATM   18  C   UNL     1      24.625  47.825  50.097  1.00  0.00     0.312 C 
HETATM   19  O   UNL     1      24.820  47.435  51.243  1.00  0.00    -0.258 OA
BRANCH  18  20
HETATM   20  O   UNL     1      25.549  48.362  49.259  1.00  0.00    -0.317 OA
BRANCH  20  21
HETATM   21  C   UNL     1      26.928  48.197  49.624  1.00  0.00     0.175 C 
HETATM   22  C   UNL     1      27.730  49.346  49.046  1.00  0.00     0.034 C 
ENDBRANCH  20  21
ENDBRANCH  18  20
ENDBRANCH   6  18
ENDBRANCH   1   5
BRANCH   2  23
HETATM   23  C   UNL     1      24.033  43.131  48.985  1.00  0.00     0.337 C 
BRANCH  23  24
HETATM   24  N   UNL     1      25.419  43.031  49.615  1.00  0.00    -0.060 N 
HETATM   25  H   UNL     1      25.960  42.443  48.955  1.00  0.00     0.280 HD
HETATM   26  C   UNL     1      26.152  44.371  49.648  1.00  0.00     0.255 C 
HETATM   27  C   UNL     1      27.596  44.179  50.153  1.00  0.00     0.150 C 
HETATM   28  N   UNL     1      27.651  43.426  51.417  1.00  0.00    -0.377 N 
HETATM   29  C   UNL     1      26.882  42.167  51.467  1.00  0.00     0.150 C 
HETATM   30  C   UNL     1      25.432  42.367  50.977  1.00  0.00     0.255 C 
BRANCH  28  31
HETATM   31  C   UNL     1      27.837  44.096  52.627  1.00  0.00     0.037 A 
HETATM   32  C   UNL     1      28.920  43.770  53.478  1.00  0.00    -0.035 A 
HETATM   33  C   UNL     1      29.964  42.747  53.105  1.00  0.00     0.050 C 
HETATM   34  C   UNL     1      29.068  44.419  54.720  1.00  0.00     0.011 A 
HETATM   35  C   UNL     1      28.182  45.417  55.115  1.00  0.00     0.024 A 
HETATM   36  C   UNL     1      27.143  45.771  54.268  1.00  0.00     0.036 A 
HETATM   37 CL   UNL     1      26.040  47.007  54.731  1.00  0.00    -0.084 Cl
HETATM   38  C   UNL     1      26.973  45.124  53.040  1.00  0.00     0.053 A 
ENDBRANCH  28  31
ENDBRANCH  23  24
ENDBRANCH   2  23
TORSDOF 7
ENDMDL
MODEL 6
REMARK VINA RESULT:      -9.0      1.856      3.481
REMARK  7 active torsions:
REMARK  status: ('A' for Active; 'I' for Inactive)
REMARK    1  A    between atoms: C_2  and  O_3 
REMARK    2  A    between atoms: O_3  and  C_4 
REMARK    3  A    between atoms: C_4  and  C_5 
REMARK    4  A    between atoms: C_10  and  N_11 
REMARK       I    between atoms: N_11  and  C_12 
REMARK    5  A    between atoms: C_12  and  C_13 
REMARK    6  A    between atoms: C_13  and  N_14 
REMARK    7  A    between atoms: N_18  and  C_19 
ROOT
HETATM    1  N   UNL     1      22.865  47.548  49.344  1.00  0.00    -0.323 N 
HETATM    2  C   UNL     1      24.093  48.161  49.340  1.00  0.00     0.248 C 
HETATM    3  O   UNL     1      24.513  49.006  48.549  1.00  0.00    -0.271 OA
HETATM    4  H   UNL     1      22.759  46.654  49.828  1.00  0.00     0.169 HD
ENDROOT
BRANCH   1   5
HETATM    5  C   UNL     1      21.771  47.895  48.555  1.00  0.00     0.080 A 
HETATM    6  C   UNL     1      21.397  47.102  47.478  1.00  0.00     0.137 A 
HETATM    7  N   UNL     1      20.318  47.705  46.879  1.00  0.00    -0.349 N 
HETATM    8  H   UNL     1      19.851  47.348  46.055  1.00  0.00     0.166 HD
HETATM    9  C   UNL     1      19.925  48.815  47.584  1.00  0.00     0.048 A 
HETATM   10  C   UNL     1      20.820  48.966  48.658  1.00  0.00     0.023 A 
HETATM   11  C   UNL     1      18.835  49.670  47.346  1.00  0.00     0.070 A 
HETATM   12  C   UNL     1      20.583  50.023  49.569  1.00  0.00     0.055 A 
HETATM   13  C   UNL     1      19.502  50.855  49.334  1.00  0.00     0.106 A 
HETATM   14  C   UNL     1      18.666  50.687  48.263  1.00  0.00     0.107 A 
HETATM   15  O   UNL     1      19.136  51.903  50.122  1.00  0.00    -0.323 OA
HETATM   16  O   UNL     1      17.667  51.609  48.235  1.00  0.00    -0.323 OA
HETATM   17  C   UNL     1      17.970  52.378  49.416  1.00  0.00     0.352 A 
BRANCH   6  18
HETATM   18  C   UNL     1      22.000  45.875  47.017  1.00  0.00     0.312 C 
HETATM   19  O   UNL     1      22.334  45.677  45.854  1.00  0.00    -0.258 OA
BRANCH  18  20
HETATM   20  O   UNL     1      22.142  45.012  48.056  1.00  0.00    -0.317 OA
BRANCH  20  21
HETATM   21  C   UNL     1      23.343  44.225  48.084  1.00  0.00     0.175 C 
HETATM   22  C   UNL     1      22.968  42.757  48.018  1.00  0.00     0.034 C 
ENDBRANCH  20  21
ENDBRANCH  18  20
ENDBRANCH   6  18
ENDBRANCH   1   5
BRANCH   2  23
HETATM   23  C   UNL     1      25.027  47.712  50.468  1.00  0.00     0.337 C 
BRANCH  23  24
HETATM   24  N   UNL     1      25.204  46.196  50.423  1.00  0.00    -0.060 N 
HETATM   25  H   UNL     1      24.549  45.882  49.686  1.00  0.00     0.280 HD
HETATM   26  C   UNL     1      26.590  45.778  49.932  1.00  0.00     0.255 C 
HETATM   27  C   UNL     1      26.658  44.247  49.765  1.00  0.00     0.150 C 
HETATM   28  N   UNL     1      26.199  43.532  50.968  1.00  0.00    -0.377 N 
HETATM   29  C   UNL     1      24.906  43.963  51.536  1.00  0.00     0.150 C 
HETATM   30  C   UNL     1      24.848  45.495  51.718  1.00  0.00     0.255 C 
BRANCH  28  31
HETATM   31  C   UNL     1      27.124  42.986  51.858  1.00  0.00     0.037 A 
HETATM   32  C   UNL     1      27.416  41.600  51.843  1.00  0.00    -0.035 A 
HETATM   33  C   UNL     1      26.809  40.656  50.835  1.00  0.00     0.050 C 
HETATM   34  C   UNL     1      28.315  41.053  52.780  1.00  0.00     0.011 A 
HETATM   35  C   UNL     1      28.962  41.865  53.706  1.00  0.00     0.024 A 
HETATM   36  C   UNL     1      28.714  43.229  53.700  1.00  0.00     0.036 A 
HETATM   37 CL   UNL     1      29.510  44.252  54.830  1.00  0.00    -0.084 Cl
HETATM   38  C   UNL     1      27.811  43.784  52.788  1.00  0.00     0.053 A 
ENDBRANCH  28  31
ENDBRANCH  23  24
ENDBRANCH   2  23
TORSDOF 7
ENDMDL
MODEL 7
REMARK VINA RESULT:      -8.9      4.546     10.342
REMARK  7 active torsions:
REMARK  status: ('A' for Active; 'I' for Inactive)
REMARK    1  A    between atoms: C_2  and  O_3 
REMARK    2  A    between atoms: O_3  and  C_4 
REMARK    3  A    between atoms: C_4  and  C_5 
REMARK    4  A    between atoms: C_10  and  N_11 
REMARK       I    between atoms: N_11  and  C_12 
REMARK    5  A    between atoms: C_12  and  C_13 
REMARK    6  A    between atoms: C_13  and  N_14 
REMARK    7  A    between atoms: N_18  and  C_19 
ROOT
HETATM    1  N   UNL     1      25.876  42.608  51.385  1.00  0.00    -0.323 N 
HETATM    2  C   UNL     1      25.651  43.676  50.555  1.00  0.00     0.248 C 
HETATM    3  O   UNL     1      26.363  44.082  49.637  1.00  0.00    -0.271 OA
HETATM    4  H   UNL     1      25.400  42.574  52.290  1.00  0.00     0.169 HD
ENDROOT
BRANCH   1   5
HETATM    5  C   UNL     1      26.875  41.648  51.238  1.00  0.00     0.080 A 
HETATM    6  C   UNL     1      27.868  41.509  52.199  1.00  0.00     0.137 A 
HETATM    7  N   UNL     1      28.717  40.518  51.771  1.00  0.00    -0.349 N 
HETATM    8  H   UNL     1      29.543  40.219  52.274  1.00  0.00     0.166 HD
HETATM    9  C   UNL     1      28.259  39.949  50.609  1.00  0.00     0.048 A 
HETATM   10  C   UNL     1      27.089  40.637  50.241  1.00  0.00     0.023 A 
HETATM   11  C   UNL     1      28.795  38.873  49.882  1.00  0.00     0.070 A 
HETATM   12  C   UNL     1      26.396  40.191  49.089  1.00  0.00     0.055 A 
HETATM   13  C   UNL     1      26.925  39.122  48.386  1.00  0.00     0.106 A 
HETATM   14  C   UNL     1      28.080  38.493  48.765  1.00  0.00     0.107 A 
HETATM   15  O   UNL     1      26.372  38.570  47.270  1.00  0.00    -0.323 OA
HETATM   16  O   UNL     1      28.408  37.465  47.937  1.00  0.00    -0.323 OA
HETATM   17  C   UNL     1      27.321  37.518  46.990  1.00  0.00     0.352 A 
BRANCH   6  18
HETATM   18  C   UNL     1      28.036  42.247  53.427  1.00  0.00     0.312 C 
HETATM   19  O   UNL     1      27.179  42.984  53.900  1.00  0.00    -0.258 OA
BRANCH  18  20
HETATM   20  O   UNL     1      29.259  41.986  53.957  1.00  0.00    -0.317 OA
BRANCH  20  21
HETATM   21  C   UNL     1      30.215  43.056  53.937  1.00  0.00     0.175 C 
HETATM   22  C   UNL     1      30.579  43.417  55.364  1.00  0.00     0.034 C 
ENDBRANCH  20  21
ENDBRANCH  18  20
ENDBRANCH   6  18
ENDBRANCH   1   5
BRANCH   2  23
HETATM   23  C   UNL     1      24.349  44.433  50.838  1.00  0.00     0.337 C 
BRANCH  23  24
HETATM   24  N   UNL     1      24.177  45.568  49.832  1.00  0.00    -0.060 N 
HETATM   25  H   UNL     1      24.897  45.384  49.110  1.00  0.00     0.280 HD
HETATM   26  C   UNL     1      22.843  45.502  49.089  1.00  0.00     0.255 C 
HETATM   27  C   UNL     1      22.791  46.578  47.986  1.00  0.00     0.150 C 
HETATM   28  N   UNL     1      23.139  47.916  48.494  1.00  0.00    -0.377 N 
HETATM   29  C   UNL     1      24.374  48.015  49.297  1.00  0.00     0.150 C 
HETATM   30  C   UNL     1      24.414  46.947  50.411  1.00  0.00     0.255 C 
BRANCH  28  31
HETATM   31  C   UNL     1      22.136  48.847  48.768  1.00  0.00     0.037 A 
HETATM   32  C   UNL     1      22.325  50.222  48.486  1.00  0.00    -0.035 A 
HETATM   33  C   UNL     1      23.571  50.748  47.817  1.00  0.00     0.050 C 
HETATM   34  C   UNL     1      21.324  51.158  48.813  1.00  0.00     0.011 A 
HETATM   35  C   UNL     1      20.120  50.748  49.378  1.00  0.00     0.024 A 
HETATM   36  C   UNL     1      19.911  49.399  49.619  1.00  0.00     0.036 A 
HETATM   37 CL   UNL     1      18.428  48.869  50.309  1.00  0.00    -0.084 Cl
HETATM   38  C   UNL     1      20.902  48.460  49.316  1.00  0.00     0.053 A 
ENDBRANCH  28  31
ENDBRANCH  23  24
ENDBRANCH   2  23
TORSDOF 7
ENDMDL
MODEL 8
REMARK VINA RESULT:      -8.8      3.848      9.713
REMARK  7 active torsions:
REMARK  status: ('A' for Active; 'I' for Inactive)
REMARK    1  A    between atoms: C_2  and  O_3 
REMARK    2  A    between atoms: O_3  and  C_4 
REMARK    3  A    between atoms: C_4  and  C_5 
REMARK    4  A    between atoms: C_10  and  N_11 
REMARK       I    between atoms: N_11  and  C_12 
REMARK    5  A    between atoms: C_12  and  C_13 
REMARK    6  A    between atoms: C_13  and  N_14 
REMARK    7  A    between atoms: N_18  and  C_19 
ROOT
HETATM    1  N   UNL     1      24.240  45.046  48.838  1.00  0.00    -0.323 N 
HETATM    2  C   UNL     1      22.924  44.719  49.050  1.00  0.00     0.248 C 
HETATM    3  O   UNL     1      22.461  43.965  49.904  1.00  0.00    -0.271 OA
HETATM    4  H   UNL     1      24.521  45.402  47.922  1.00  0.00     0.169 HD
ENDROOT
BRANCH   1   5
HETATM    5  C   UNL     1      25.309  44.730  49.673  1.00  0.00     0.080 A 
HETATM    6  C   UNL     1      25.806  45.666  50.570  1.00  0.00     0.137 A 
HETATM    7  N   UNL     1      26.865  45.085  51.225  1.00  0.00    -0.349 N 
HETATM    8  H   UNL     1      27.425  45.552  51.926  1.00  0.00     0.166 HD
HETATM    9  C   UNL     1      27.016  43.775  50.845  1.00  0.00     0.048 A 
HETATM   10  C   UNL     1      26.044  43.510  49.864  1.00  0.00     0.023 A 
HETATM   11  C   UNL     1      27.931  42.820  51.318  1.00  0.00     0.070 A 
HETATM   12  C   UNL     1      25.965  42.192  49.352  1.00  0.00     0.055 A 
HETATM   13  C   UNL     1      26.863  41.255  49.832  1.00  0.00     0.106 A 
HETATM   14  C   UNL     1      27.810  41.558  50.772  1.00  0.00     0.107 A 
HETATM   15  O   UNL     1      26.908  39.948  49.450  1.00  0.00    -0.323 OA
HETATM   16  O   UNL     1      28.576  40.484  51.104  1.00  0.00    -0.323 OA
HETATM   17  C   UNL     1      28.000  39.466  50.262  1.00  0.00     0.352 A 
BRANCH   6  18
HETATM   18  C   UNL     1      25.348  47.014  50.804  1.00  0.00     0.312 C 
HETATM   19  O   UNL     1      24.978  47.425  51.897  1.00  0.00    -0.258 OA
BRANCH  18  20
HETATM   20  O   UNL     1      25.407  47.727  49.649  1.00  0.00    -0.317 OA
BRANCH  20  21
HETATM   21  C   UNL     1      26.640  48.410  49.374  1.00  0.00     0.175 C 
HETATM   22  C   UNL     1      26.352  49.602  48.482  1.00  0.00     0.034 C 
ENDBRANCH  20  21
ENDBRANCH  18  20
ENDBRANCH   6  18
ENDBRANCH   1   5
BRANCH   2  23
HETATM   23  C   UNL     1      21.944  45.390  48.082  1.00  0.00     0.337 C 
BRANCH  23  24
HETATM   24  N   UNL     1      21.404  46.678  48.698  1.00  0.00    -0.060 N 
HETATM   25  H   UNL     1      21.686  46.626  49.693  1.00  0.00     0.280 HD
HETATM   26  C   UNL     1      22.093  47.928  48.152  1.00  0.00     0.255 C 
HETATM   27  C   UNL     1      21.616  49.179  48.917  1.00  0.00     0.150 C 
HETATM   28  N   UNL     1      20.147  49.271  48.975  1.00  0.00    -0.377 N 
HETATM   29  C   UNL     1      19.428  48.058  49.409  1.00  0.00     0.150 C 
HETATM   30  C   UNL     1      19.896  46.810  48.630  1.00  0.00     0.255 C 
BRANCH  28  31
HETATM   31  C   UNL     1      19.462  50.134  48.118  1.00  0.00     0.037 A 
HETATM   32  C   UNL     1      18.913  51.348  48.597  1.00  0.00    -0.035 A 
HETATM   33  C   UNL     1      19.092  51.812  50.021  1.00  0.00     0.050 C 
HETATM   34  C   UNL     1      18.180  52.186  47.732  1.00  0.00     0.011 A 
HETATM   35  C   UNL     1      18.019  51.860  46.389  1.00  0.00     0.024 A 
HETATM   36  C   UNL     1      18.590  50.694  45.903  1.00  0.00     0.036 A 
HETATM   37 CL   UNL     1      18.411  50.276  44.245  1.00  0.00    -0.084 Cl
HETATM   38  C   UNL     1      19.304  49.844  46.753  1.00  0.00     0.053 A 
ENDBRANCH  28  31
ENDBRANCH  23  24
ENDBRANCH   2  23
TORSDOF 7
ENDMDL
MODEL 9
REMARK VINA RESULT:      -8.7      4.445      9.572
REMARK  7 active torsions:
REMARK  status: ('A' for Active; 'I' for Inactive)
REMARK    1  A    between atoms: C_2  and  O_3 
REMARK    2  A    between atoms: O_3  and  C_4 
REMARK    3  A    between atoms: C_4  and  C_5 
REMARK    4  A    between atoms: C_10  and  N_11 
REMARK       I    between atoms: N_11  and  C_12 
REMARK    5  A    between atoms: C_12  and  C_13 
REMARK    6  A    between atoms: C_13  and  N_14 
REMARK    7  A    between atoms: N_18  and  C_19 
ROOT
HETATM    1  N   UNL     1      26.346  41.355  50.747  1.00  0.00    -0.323 N 
HETATM    2  C   UNL     1      26.139  41.894  49.502  1.00  0.00     0.248 C 
HETATM    3  O   UNL     1      26.783  42.783  48.947  1.00  0.00    -0.271 OA
HETATM    4  H   UNL     1      25.572  40.879  51.216  1.00  0.00     0.169 HD
ENDROOT
BRANCH   1   5
HETATM    5  C   UNL     1      27.449  41.581  51.567  1.00  0.00     0.080 A 
HETATM    6  C   UNL     1      28.557  40.747  51.507  1.00  0.00     0.137 A 
HETATM    7  N   UNL     1      29.459  41.194  52.441  1.00  0.00    -0.349 N 
HETATM    8  H   UNL     1      30.354  40.758  52.624  1.00  0.00     0.166 HD
HETATM    9  C   UNL     1      29.010  42.343  53.044  1.00  0.00     0.048 A 
HETATM   10  C   UNL     1      27.739  42.624  52.512  1.00  0.00     0.023 A 
HETATM   11  C   UNL     1      29.653  43.146  54.001  1.00  0.00     0.070 A 
HETATM   12  C   UNL     1      27.089  43.805  52.945  1.00  0.00     0.055 A 
HETATM   13  C   UNL     1      27.734  44.596  53.880  1.00  0.00     0.106 A 
HETATM   14  C   UNL     1      28.963  44.276  54.390  1.00  0.00     0.107 A 
HETATM   15  O   UNL     1      27.248  45.764  54.384  1.00  0.00    -0.323 OA
HETATM   16  O   UNL     1      29.411  45.199  55.283  1.00  0.00    -0.323 OA
HETATM   17  C   UNL     1      28.319  46.140  55.276  1.00  0.00     0.352 A 
BRANCH   6  18
HETATM   18  C   UNL     1      28.771  39.602  50.656  1.00  0.00     0.312 C 
HETATM   19  O   UNL     1      28.283  39.486  49.538  1.00  0.00    -0.258 OA
BRANCH  18  20
HETATM   20  O   UNL     1      29.589  38.713  51.277  1.00  0.00    -0.317 OA
BRANCH  20  21
HETATM   21  C   UNL     1      29.760  37.437  50.640  1.00  0.00     0.175 C 
HETATM   22  C   UNL     1      29.884  36.368  51.708  1.00  0.00     0.034 C 
ENDBRANCH  20  21
ENDBRANCH  18  20
ENDBRANCH   6  18
ENDBRANCH   1   5
BRANCH   2  23
HETATM   23  C   UNL     1      24.951  41.293  48.744  1.00  0.00     0.337 C 
BRANCH  23  24
HETATM   24  N   UNL     1      23.795  42.289  48.714  1.00  0.00    -0.060 N 
HETATM   25  H   UNL     1      22.947  41.698  48.648  1.00  0.00     0.280 HD
HETATM   26  C   UNL     1      23.644  43.059  50.025  1.00  0.00     0.255 C 
HETATM   27  C   UNL     1      22.375  43.934  49.989  1.00  0.00     0.150 C 
HETATM   28  N   UNL     1      22.311  44.774  48.781  1.00  0.00    -0.377 N 
HETATM   29  C   UNL     1      22.542  44.093  47.492  1.00  0.00     0.150 C 
HETATM   30  C   UNL     1      23.822  43.230  47.527  1.00  0.00     0.255 C 
BRANCH  28  31
HETATM   31  C   UNL     1      22.650  46.126  48.845  1.00  0.00     0.037 A 
HETATM   32  C   UNL     1      21.712  47.128  48.496  1.00  0.00    -0.035 A 
HETATM   33  C   UNL     1      20.290  46.806  48.109  1.00  0.00     0.050 C 
HETATM   34  C   UNL     1      22.083  48.487  48.517  1.00  0.00     0.011 A 
HETATM   35  C   UNL     1      23.358  48.873  48.920  1.00  0.00     0.024 A 
HETATM   36  C   UNL     1      24.268  47.901  49.304  1.00  0.00     0.036 A 
HETATM   37 CL   UNL     1      25.847  48.356  49.812  1.00  0.00    -0.084 Cl
HETATM   38  C   UNL     1      23.921  46.547  49.271  1.00  0.00     0.053 A 
ENDBRANCH  28  31
ENDBRANCH  23  24
ENDBRANCH   2  23
TORSDOF 7
ENDMDL
MODEL 10
REMARK VINA RESULT:      -8.5      3.847      7.362
REMARK  7 active torsions:
REMARK  status: ('A' for Active; 'I' for Inactive)
REMARK    1  A    between atoms: C_2  and  O_3 
REMARK    2  A    between atoms: O_3  and  C_4 
REMARK    3  A    between atoms: C_4  and  C_5 
REMARK    4  A    between atoms: C_10  and  N_11 
REMARK       I    between atoms: N_11  and  C_12 
REMARK    5  A    between atoms: C_12  and  C_13 
REMARK    6  A    between atoms: C_13  and  N_14 
REMARK    7  A    between atoms: N_18  and  C_19 
ROOT
HETATM    1  N   UNL     1      17.270  51.221  48.957  1.00  0.00    -0.323 N 
HETATM    2  C   UNL     1      18.603  51.500  49.128  1.00  0.00     0.248 C 
HETATM    3  O   UNL     1      19.207  52.524  48.810  1.00  0.00    -0.271 OA
HETATM    4  H   UNL     1      16.965  50.246  48.953  1.00  0.00     0.169 HD
ENDROOT
BRANCH   1   5
HETATM    5  C   UNL     1      16.288  52.121  48.551  1.00  0.00     0.080 A 
HETATM    6  C   UNL     1      15.908  52.199  47.218  1.00  0.00     0.137 A 
HETATM    7  N   UNL     1      14.956  53.184  47.119  1.00  0.00    -0.349 N 
HETATM    8  H   UNL     1      14.515  53.465  46.252  1.00  0.00     0.166 HD
HETATM    9  C   UNL     1      14.641  53.686  48.357  1.00  0.00     0.048 A 
HETATM   10  C   UNL     1      15.462  53.033  49.293  1.00  0.00     0.023 A 
HETATM   11  C   UNL     1      13.680  54.653  48.698  1.00  0.00     0.070 A 
HETATM   12  C   UNL     1      15.281  53.348  50.662  1.00  0.00     0.055 A 
HETATM   13  C   UNL     1      14.325  54.293  50.990  1.00  0.00     0.106 A 
HETATM   14  C   UNL     1      13.560  54.923  50.046  1.00  0.00     0.107 A 
HETATM   15  O   UNL     1      14.024  54.693  52.257  1.00  0.00    -0.323 OA
HETATM   16  O   UNL     1      12.680  55.804  50.593  1.00  0.00    -0.323 OA
HETATM   17  C   UNL     1      12.979  55.654  51.996  1.00  0.00     0.352 A 
BRANCH   6  18
HETATM   18  C   UNL     1      16.398  51.429  46.100  1.00  0.00     0.312 C 
HETATM   19  O   UNL     1      15.707  50.645  45.461  1.00  0.00    -0.258 OA
BRANCH  18  20
HETATM   20  O   UNL     1      17.706  51.721  45.878  1.00  0.00    -0.317 OA
BRANCH  20  21
HETATM   21  C   UNL     1      18.449  50.789  45.078  1.00  0.00     0.175 C 
HETATM   22  C   UNL     1      18.891  49.633  45.955  1.00  0.00     0.034 C 
ENDBRANCH  20  21
ENDBRANCH  18  20
ENDBRANCH   6  18
ENDBRANCH   1   5
BRANCH   2  23
HETATM   23  C   UNL     1      19.403  50.376  49.794  1.00  0.00     0.337 C 
BRANCH  23  24
HETATM   24  N   UNL     1      20.731  50.182  49.068  1.00  0.00    -0.060 N 
HETATM   25  H   UNL     1      20.620  50.708  48.182  1.00  0.00     0.280 HD
HETATM   26  C   UNL     1      21.901  50.853  49.786  1.00  0.00     0.255 C 
HETATM   27  C   UNL     1      23.182  50.753  48.933  1.00  0.00     0.150 C 
HETATM   28  N   UNL     1      23.451  49.375  48.490  1.00  0.00    -0.377 N 
HETATM   29  C   UNL     1      22.324  48.650  47.871  1.00  0.00     0.150 C 
HETATM   30  C   UNL     1      21.048  48.738  48.736  1.00  0.00     0.255 C 
BRANCH  28  31
HETATM   31  C   UNL     1      24.412  48.601  49.142  1.00  0.00     0.037 A 
HETATM   32  C   UNL     1      25.792  48.881  48.994  1.00  0.00    -0.035 A 
HETATM   33  C   UNL     1      26.300  50.055  48.195  1.00  0.00     0.050 C 
HETATM   34  C   UNL     1      26.754  48.061  49.618  1.00  0.00     0.011 A 
HETATM   35  C   UNL     1      26.368  46.992  50.422  1.00  0.00     0.024 A 
HETATM   36  C   UNL     1      25.018  46.738  50.605  1.00  0.00     0.036 A 
HETATM   37 CL   UNL     1      24.517  45.427  51.600  1.00  0.00    -0.084 Cl
HETATM   38  C   UNL     1      24.052  47.531  49.978  1.00  0.00     0.053 A 
ENDBRANCH  28  31
ENDBRANCH  23  24
ENDBRANCH   2  23
TORSDOF 7
ENDMDL
