MODEL 1
REMARK VINA RESULT:      -8.7      0.000      0.000
REMARK  7 active torsions:
REMARK  status: ('A' for Active; 'I' for Inactive)
REMARK    1  A    between atoms: O_2  and  C_3 
REMARK    2  A    between atoms: C_3  and  C_4 
REMARK    3  A    between atoms: C_4  and  N_5 
REMARK    4  A    between atoms: C_4  and  C_21 
REMARK    5  A    between atoms: N_5  and  C_6 
REMARK    6  A    between atoms: C_21  and  C_22 
REMARK    7  A    between atoms: C_25  and  O_26 
ROOT
HETATM    1  N   UNL     1      28.789  44.039  52.996  1.00  0.00    -0.277 NA
HETATM    2  H   UNL     1      28.737  44.680  52.201  1.00  0.00     0.128 HD
ENDROOT
BRANCH   1   3
HETATM    3  C   UNL     1      27.737  42.979  52.831  1.00  0.00     0.164 C 
BRANCH   3   4
HETATM    4  C   UNL     1      28.170  41.593  53.337  1.00  0.00     0.276 C 
HETATM    5  O   UNL     1      27.595  40.937  54.197  1.00  0.00    -0.263 OA
BRANCH   4   6
HETATM    6  O   UNL     1      29.276  41.173  52.653  1.00  0.00    -0.325 OA
HETATM    7  C   UNL     1      29.122  39.911  52.003  1.00  0.00     0.213 C 
ENDBRANCH   4   6
ENDBRANCH   3   4
BRANCH   3   8
HETATM    8  C   UNL     1      27.370  42.873  51.338  1.00  0.00     0.068 C 
BRANCH   8   9
HETATM    9  C   UNL     1      26.346  43.909  50.935  1.00  0.00    -0.056 A 
HETATM   10  C   UNL     1      25.029  43.823  51.416  1.00  0.00     0.010 A 
HETATM   11  C   UNL     1      24.067  44.757  51.023  1.00  0.00     0.037 A 
HETATM   12  C   UNL     1      24.422  45.773  50.146  1.00  0.00     0.065 A 
HETATM   13  C   UNL     1      25.720  45.874  49.659  1.00  0.00     0.037 A 
HETATM   14  C   UNL     1      26.684  44.944  50.053  1.00  0.00     0.010 A 
BRANCH  12  15
HETATM   15  O   UNL     1      23.517  46.705  49.734  1.00  0.00    -0.361 OA
HETATM   16  H   UNL     1      23.973  47.552  49.598  1.00  0.00     0.217 HD
ENDBRANCH  12  15
ENDBRANCH   8   9
ENDBRANCH   3   8
ENDBRANCH   1   3
BRANCH   1  17
HETATM   17  C   UNL     1      28.784  44.767  54.210  1.00  0.00     0.034 A 
HETATM   18  C   UNL     1      27.861  45.841  54.337  1.00  0.00     0.013 A 
HETATM   19  C   UNL     1      27.863  46.600  55.523  1.00  0.00     0.044 A 
HETATM   20  C   UNL     1      26.924  46.194  53.343  1.00  0.00     0.015 A 
HETATM   21  C   UNL     1      26.961  47.661  55.706  1.00  0.00     0.030 A 
HETATM   22  N   UNL     1      28.741  46.301  56.492  1.00  0.00    -0.355 N 
HETATM   23  C   UNL     1      26.042  47.981  54.709  1.00  0.00     0.002 A 
HETATM   24  C   UNL     1      26.026  47.249  53.526  1.00  0.00     0.001 A 
HETATM   25  H   UNL     1      28.729  46.872  57.333  1.00  0.00     0.166 HD
HETATM   26  C   UNL     1      29.621  45.287  56.431  1.00  0.00     0.044 A 
HETATM   27  C   UNL     1      29.662  44.464  55.285  1.00  0.00     0.013 A 
HETATM   28  C   UNL     1      30.481  45.061  57.519  1.00  0.00     0.030 A 
HETATM   29  C   UNL     1      30.577  43.384  55.301  1.00  0.00     0.015 A 
HETATM   30  C   UNL     1      31.431  43.164  56.385  1.00  0.00     0.001 A 
HETATM   31  C   UNL     1      31.388  44.005  57.491  1.00  0.00     0.002 A 
ENDBRANCH   1  17
TORSDOF 7
ENDMDL
MODEL 2
REMARK VINA RESULT:      -8.7      2.608      5.738
REMARK  7 active torsions:
REMARK  status: ('A' for Active; 'I' for Inactive)
REMARK    1  A    between atoms: O_2  and  C_3 
REMARK    2  A    between atoms: C_3  and  C_4 
REMARK    3  A    between atoms: C_4  and  N_5 
REMARK    4  A    between atoms: C_4  and  C_21 
REMARK    5  A    between atoms: N_5  and  C_6 
REMARK    6  A    between atoms: C_21  and  C_22 
REMARK    7  A    between atoms: C_25  and  O_26 
ROOT
HETATM    1  N   UNL     1      26.062  44.774  53.106  1.00  0.00    -0.277 NA
HETATM    2  H   UNL     1      25.113  44.416  52.982  1.00  0.00     0.128 HD
ENDROOT
BRANCH   1   3
HETATM    3  C   UNL     1      26.159  46.122  52.449  1.00  0.00     0.164 C 
BRANCH   3   4
HETATM    4  C   UNL     1      26.108  47.298  53.439  1.00  0.00     0.276 C 
HETATM    5  O   UNL     1      25.110  47.949  53.720  1.00  0.00    -0.263 OA
BRANCH   4   6
HETATM    6  O   UNL     1      27.339  47.487  53.999  1.00  0.00    -0.325 OA
HETATM    7  C   UNL     1      27.307  47.897  55.368  1.00  0.00     0.213 C 
ENDBRANCH   4   6
ENDBRANCH   3   4
BRANCH   3   8
HETATM    8  C   UNL     1      25.003  46.267  51.441  1.00  0.00     0.068 C 
BRANCH   8   9
HETATM    9  C   UNL     1      25.271  47.356  50.429  1.00  0.00    -0.056 A 
HETATM   10  C   UNL     1      24.202  48.042  49.831  1.00  0.00     0.010 A 
HETATM   11  C   UNL     1      24.438  49.028  48.870  1.00  0.00     0.037 A 
HETATM   12  C   UNL     1      25.746  49.324  48.505  1.00  0.00     0.065 A 
HETATM   13  C   UNL     1      26.817  48.656  49.086  1.00  0.00     0.037 A 
HETATM   14  C   UNL     1      26.582  47.673  50.049  1.00  0.00     0.010 A 
BRANCH  12  15
HETATM   15  O   UNL     1      26.025  50.277  47.571  1.00  0.00    -0.361 OA
HETATM   16  H   UNL     1      25.921  49.893  46.685  1.00  0.00     0.217 HD
ENDBRANCH  12  15
ENDBRANCH   8   9
ENDBRANCH   3   8
ENDBRANCH   1   3
BRANCH   1  17
HETATM   17  C   UNL     1      27.008  43.797  52.711  1.00  0.00     0.034 A 
HETATM   18  C   UNL     1      28.213  43.699  53.458  1.00  0.00     0.013 A 
HETATM   19  C   UNL     1      29.183  42.759  53.061  1.00  0.00     0.044 A 
HETATM   20  C   UNL     1      28.502  44.488  54.593  1.00  0.00     0.015 A 
HETATM   21  C   UNL     1      30.384  42.610  53.775  1.00  0.00     0.030 A 
HETATM   22  N   UNL     1      28.952  41.992  51.986  1.00  0.00    -0.355 N 
HETATM   23  C   UNL     1      30.636  43.398  54.896  1.00  0.00     0.002 A 
HETATM   24  C   UNL     1      29.696  44.338  55.303  1.00  0.00     0.001 A 
HETATM   25  H   UNL     1      29.673  41.329  51.714  1.00  0.00     0.166 HD
HETATM   26  C   UNL     1      27.825  42.031  51.255  1.00  0.00     0.044 A 
HETATM   27  C   UNL     1      26.794  42.930  51.606  1.00  0.00     0.013 A 
HETATM   28  C   UNL     1      27.689  41.165  50.157  1.00  0.00     0.030 A 
HETATM   29  C   UNL     1      25.613  42.890  50.828  1.00  0.00     0.015 A 
HETATM   30  C   UNL     1      25.485  42.028  49.735  1.00  0.00     0.001 A 
HETATM   31  C   UNL     1      26.523  41.170  49.396  1.00  0.00     0.002 A 
ENDBRANCH   1  17
TORSDOF 7
ENDMDL
MODEL 3
REMARK VINA RESULT:      -8.6      0.143      3.559
REMARK  7 active torsions:
REMARK  status: ('A' for Active; 'I' for Inactive)
REMARK    1  A    between atoms: O_2  and  C_3 
REMARK    2  A    between atoms: C_3  and  C_4 
REMARK    3  A    between atoms: C_4  and  N_5 
REMARK    4  A    between atoms: C_4  and  C_21 
REMARK    5  A    between atoms: N_5  and  C_6 
REMARK    6  A    between atoms: C_21  and  C_22 
REMARK    7  A    between atoms: C_25  and  O_26 
ROOT
HETATM    1  N   UNL     1      28.910  44.052  53.126  1.00  0.00    -0.277 NA
HETATM    2  H   UNL     1      29.020  44.641  52.299  1.00  0.00     0.128 HD
ENDROOT
BRANCH   1   3
HETATM    3  C   UNL     1      27.803  43.068  52.874  1.00  0.00     0.164 C 
BRANCH   3   4
HETATM    4  C   UNL     1      28.102  41.653  53.395  1.00  0.00     0.276 C 
HETATM    5  O   UNL     1      27.411  41.023  54.186  1.00  0.00    -0.263 OA
BRANCH   4   6
HETATM    6  O   UNL     1      29.240  41.173  52.810  1.00  0.00    -0.325 OA
HETATM    7  C   UNL     1      29.038  40.032  51.975  1.00  0.00     0.213 C 
ENDBRANCH   4   6
ENDBRANCH   3   4
BRANCH   3   8
HETATM    8  C   UNL     1      27.539  42.997  51.358  1.00  0.00     0.068 C 
BRANCH   8   9
HETATM    9  C   UNL     1      26.457  43.961  50.928  1.00  0.00    -0.056 A 
HETATM   10  C   UNL     1      26.757  45.008  50.042  1.00  0.00     0.010 A 
HETATM   11  C   UNL     1      25.773  45.924  49.665  1.00  0.00     0.037 A 
HETATM   12  C   UNL     1      24.488  45.794  50.178  1.00  0.00     0.065 A 
HETATM   13  C   UNL     1      24.173  44.765  51.057  1.00  0.00     0.037 A 
HETATM   14  C   UNL     1      25.155  43.847  51.432  1.00  0.00     0.010 A 
BRANCH  12  15
HETATM   15  O   UNL     1      23.496  46.665  49.840  1.00  0.00    -0.361 OA
HETATM   16  H   UNL     1      22.768  46.172  49.428  1.00  0.00     0.217 HD
ENDBRANCH  12  15
ENDBRANCH   8   9
ENDBRANCH   3   8
ENDBRANCH   1   3
BRANCH   1  17
HETATM   17  C   UNL     1      28.803  44.856  54.287  1.00  0.00     0.034 A 
HETATM   18  C   UNL     1      29.672  44.569  55.375  1.00  0.00     0.013 A 
HETATM   19  C   UNL     1      29.559  45.333  56.553  1.00  0.00     0.044 A 
HETATM   20  C   UNL     1      30.659  43.560  55.350  1.00  0.00     0.015 A 
HETATM   21  C   UNL     1      30.403  45.101  57.651  1.00  0.00     0.030 A 
HETATM   22  N   UNL     1      28.631  46.299  56.622  1.00  0.00    -0.355 N 
HETATM   23  C   UNL     1      31.373  44.103  57.593  1.00  0.00     0.002 A 
HETATM   24  C   UNL     1      31.499  43.331  56.443  1.00  0.00     0.001 A 
HETATM   25  H   UNL     1      28.562  46.828  57.487  1.00  0.00     0.166 HD
HETATM   26  C   UNL     1      27.798  46.623  55.618  1.00  0.00     0.044 A 
HETATM   27  C   UNL     1      27.867  45.920  54.396  1.00  0.00     0.013 A 
HETATM   28  C   UNL     1      26.876  47.667  55.803  1.00  0.00     0.030 A 
HETATM   29  C   UNL     1      26.998  46.339  53.361  1.00  0.00     0.015 A 
HETATM   30  C   UNL     1      26.082  47.378  53.551  1.00  0.00     0.001 A 
HETATM   31  C   UNL     1      26.016  48.037  54.772  1.00  0.00     0.002 A 
ENDBRANCH   1  17
TORSDOF 7
ENDMDL
MODEL 4
REMARK VINA RESULT:      -8.6      2.536      5.014
REMARK  7 active torsions:
REMARK  status: ('A' for Active; 'I' for Inactive)
REMARK    1  A    between atoms: O_2  and  C_3 
REMARK    2  A    between atoms: C_3  and  C_4 
REMARK    3  A    between atoms: C_4  and  N_5 
REMARK    4  A    between atoms: C_4  and  C_21 
REMARK    5  A    between atoms: N_5  and  C_6 
REMARK    6  A    between atoms: C_21  and  C_22 
REMARK    7  A    between atoms: C_25  and  O_26 
ROOT
HETATM    1  N   UNL     1      26.198  44.790  53.254  1.00  0.00    -0.277 NA
HETATM    2  H   UNL     1      25.311  44.343  53.013  1.00  0.00     0.128 HD
ENDROOT
BRANCH   1   3
HETATM    3  C   UNL     1      26.273  46.120  52.559  1.00  0.00     0.164 C 
BRANCH   3   4
HETATM    4  C   UNL     1      26.113  47.322  53.504  1.00  0.00     0.276 C 
HETATM    5  O   UNL     1      25.082  47.959  53.680  1.00  0.00    -0.263 OA
BRANCH   4   6
HETATM    6  O   UNL     1      27.288  47.557  54.161  1.00  0.00    -0.325 OA
HETATM    7  C   UNL     1      27.134  48.140  55.456  1.00  0.00     0.213 C 
ENDBRANCH   4   6
ENDBRANCH   3   4
BRANCH   3   8
HETATM    8  C   UNL     1      25.171  46.181  51.484  1.00  0.00     0.068 C 
BRANCH   8   9
HETATM    9  C   UNL     1      25.425  47.280  50.478  1.00  0.00    -0.056 A 
HETATM   10  C   UNL     1      24.349  47.995  49.928  1.00  0.00     0.010 A 
HETATM   11  C   UNL     1      24.571  48.990  48.974  1.00  0.00     0.037 A 
HETATM   12  C   UNL     1      25.870  49.266  48.566  1.00  0.00     0.065 A 
HETATM   13  C   UNL     1      26.948  48.568  49.099  1.00  0.00     0.037 A 
HETATM   14  C   UNL     1      26.728  47.576  50.056  1.00  0.00     0.010 A 
BRANCH  12  15
HETATM   15  O   UNL     1      26.135  50.227  47.637  1.00  0.00    -0.361 OA
HETATM   16  H   UNL     1      26.590  49.820  46.881  1.00  0.00     0.217 HD
ENDBRANCH  12  15
ENDBRANCH   8   9
ENDBRANCH   3   8
ENDBRANCH   1   3
BRANCH   1  17
HETATM   17  C   UNL     1      27.271  43.892  53.040  1.00  0.00     0.034 A 
HETATM   18  C   UNL     1      27.156  42.962  51.972  1.00  0.00     0.013 A 
HETATM   19  C   UNL     1      28.196  42.035  51.763  1.00  0.00     0.044 A 
HETATM   20  C   UNL     1      26.056  42.911  51.088  1.00  0.00     0.015 A 
HETATM   21  C   UNL     1      28.139  41.106  50.712  1.00  0.00     0.030 A 
HETATM   22  N   UNL     1      29.258  42.046  52.583  1.00  0.00    -0.355 N 
HETATM   23  C   UNL     1      27.044  41.085  49.851  1.00  0.00     0.002 A 
HETATM   24  C   UNL     1      26.001  41.986  50.041  1.00  0.00     0.001 A 
HETATM   25  H   UNL     1      29.989  41.359  52.418  1.00  0.00     0.166 HD
HETATM   26  C   UNL     1      29.426  42.913  53.596  1.00  0.00     0.044 A 
HETATM   27  C   UNL     1      28.438  43.889  53.852  1.00  0.00     0.013 A 
HETATM   28  C   UNL     1      30.590  42.837  54.377  1.00  0.00     0.030 A 
HETATM   29  C   UNL     1      28.694  44.804  54.900  1.00  0.00     0.015 A 
HETATM   30  C   UNL     1      29.854  44.723  55.675  1.00  0.00     0.001 A 
HETATM   31  C   UNL     1      30.799  43.737  55.419  1.00  0.00     0.002 A 
ENDBRANCH   1  17
TORSDOF 7
ENDMDL
MODEL 5
REMARK VINA RESULT:      -8.4      2.284      4.744
REMARK  7 active torsions:
REMARK  status: ('A' for Active; 'I' for Inactive)
REMARK    1  A    between atoms: O_2  and  C_3 
REMARK    2  A    between atoms: C_3  and  C_4 
REMARK    3  A    between atoms: C_4  and  N_5 
REMARK    4  A    between atoms: C_4  and  C_21 
REMARK    5  A    between atoms: N_5  and  C_6 
REMARK    6  A    between atoms: C_21  and  C_22 
REMARK    7  A    between atoms: C_25  and  O_26 
ROOT
HETATM    1  N   UNL     1      25.125  43.959  52.963  1.00  0.00    -0.277 NA
HETATM    2  H   UNL     1      24.991  42.951  53.065  1.00  0.00     0.128 HD
ENDROOT
BRANCH   1   3
HETATM    3  C   UNL     1      24.766  44.352  51.558  1.00  0.00     0.164 C 
BRANCH   3   4
HETATM    4  C   UNL     1      24.256  43.183  50.698  1.00  0.00     0.276 C 
HETATM    5  O   UNL     1      24.953  42.319  50.184  1.00  0.00    -0.263 OA
BRANCH   4   6
HETATM    6  O   UNL     1      22.892  43.223  50.625  1.00  0.00    -0.325 OA
HETATM    7  C   UNL     1      22.383  43.821  49.431  1.00  0.00     0.213 C 
ENDBRANCH   4   6
ENDBRANCH   3   4
BRANCH   3   8
HETATM    8  C   UNL     1      26.009  44.962  50.881  1.00  0.00     0.068 C 
BRANCH   8   9
HETATM    9  C   UNL     1      25.710  46.309  50.264  1.00  0.00    -0.056 A 
HETATM   10  C   UNL     1      26.759  47.135  49.830  1.00  0.00     0.010 A 
HETATM   11  C   UNL     1      26.495  48.395  49.288  1.00  0.00     0.037 A 
HETATM   12  C   UNL     1      25.179  48.829  49.184  1.00  0.00     0.065 A 
HETATM   13  C   UNL     1      24.128  48.026  49.607  1.00  0.00     0.037 A 
HETATM   14  C   UNL     1      24.390  46.765  50.146  1.00  0.00     0.010 A 
BRANCH  12  15
HETATM   15  O   UNL     1      24.873  50.051  48.663  1.00  0.00    -0.361 OA
HETATM   16  H   UNL     1      24.969  50.724  49.357  1.00  0.00     0.217 HD
ENDBRANCH  12  15
ENDBRANCH   8   9
ENDBRANCH   3   8
ENDBRANCH   1   3
BRANCH   1  17
HETATM   17  C   UNL     1      26.410  44.330  53.426  1.00  0.00     0.034 A 
HETATM   18  C   UNL     1      27.457  43.376  53.314  1.00  0.00     0.013 A 
HETATM   19  C   UNL     1      28.735  43.711  53.802  1.00  0.00     0.044 A 
HETATM   20  C   UNL     1      27.301  42.100  52.731  1.00  0.00     0.015 A 
HETATM   21  C   UNL     1      29.809  42.810  53.701  1.00  0.00     0.030 A 
HETATM   22  N   UNL     1      28.927  44.911  54.369  1.00  0.00    -0.355 N 
HETATM   23  C   UNL     1      29.625  41.562  53.112  1.00  0.00     0.002 A 
HETATM   24  C   UNL     1      28.370  41.206  52.629  1.00  0.00     0.001 A 
HETATM   25  H   UNL     1      29.856  45.124  54.723  1.00  0.00     0.166 HD
HETATM   26  C   UNL     1      27.978  45.856  54.485  1.00  0.00     0.044 A 
HETATM   27  C   UNL     1      26.677  45.604  53.996  1.00  0.00     0.013 A 
HETATM   28  C   UNL     1      28.303  47.084  55.084  1.00  0.00     0.030 A 
HETATM   29  C   UNL     1      25.735  46.654  54.102  1.00  0.00     0.015 A 
HETATM   30  C   UNL     1      26.064  47.874  54.701  1.00  0.00     0.001 A 
HETATM   31  C   UNL     1      27.344  48.087  55.197  1.00  0.00     0.002 A 
ENDBRANCH   1  17
TORSDOF 7
ENDMDL
MODEL 6
REMARK VINA RESULT:      -8.3      2.403      4.268
REMARK  7 active torsions:
REMARK  status: ('A' for Active; 'I' for Inactive)
REMARK    1  A    between atoms: O_2  and  C_3 
REMARK    2  A    between atoms: C_3  and  C_4 
REMARK    3  A    between atoms: C_4  and  N_5 
REMARK    4  A    between atoms: C_4  and  C_21 
REMARK    5  A    between atoms: N_5  and  C_6 
REMARK    6  A    between atoms: C_21  and  C_22 
REMARK    7  A    between atoms: C_25  and  O_26 
ROOT
HETATM    1  N   UNL     1      25.228  44.769  52.160  1.00  0.00    -0.277 NA
HETATM    2  H   UNL     1      24.833  43.832  52.060  1.00  0.00     0.128 HD
ENDROOT
BRANCH   1   3
HETATM    3  C   UNL     1      25.329  45.398  50.799  1.00  0.00     0.164 C 
BRANCH   3   4
HETATM    4  C   UNL     1      26.021  44.506  49.755  1.00  0.00     0.276 C 
HETATM    5  O   UNL     1      27.215  44.520  49.484  1.00  0.00    -0.263 OA
BRANCH   4   6
HETATM    6  O   UNL     1      25.111  43.655  49.195  1.00  0.00    -0.325 OA
HETATM    7  C   UNL     1      23.902  44.284  48.765  1.00  0.00     0.213 C 
ENDBRANCH   4   6
ENDBRANCH   3   4
BRANCH   3   8
HETATM    8  C   UNL     1      26.110  46.721  50.921  1.00  0.00     0.068 C 
BRANCH   8   9
HETATM    9  C   UNL     1      25.598  47.768  49.959  1.00  0.00    -0.056 A 
HETATM   10  C   UNL     1      26.497  48.628  49.308  1.00  0.00     0.010 A 
HETATM   11  C   UNL     1      26.031  49.620  48.442  1.00  0.00     0.037 A 
HETATM   12  C   UNL     1      24.665  49.754  48.231  1.00  0.00     0.065 A 
HETATM   13  C   UNL     1      23.760  48.912  48.866  1.00  0.00     0.037 A 
HETATM   14  C   UNL     1      24.224  47.918  49.729  1.00  0.00     0.010 A 
BRANCH  12  15
HETATM   15  O   UNL     1      24.165  50.708  47.397  1.00  0.00    -0.361 OA
HETATM   16  H   UNL     1      23.612  51.321  47.910  1.00  0.00     0.217 HD
ENDBRANCH  12  15
ENDBRANCH   8   9
ENDBRANCH   3   8
ENDBRANCH   1   3
BRANCH   1  17
HETATM   17  C   UNL     1      26.412  44.720  52.935  1.00  0.00     0.034 A 
HETATM   18  C   UNL     1      26.694  45.822  53.787  1.00  0.00     0.013 A 
HETATM   19  C   UNL     1      27.884  45.811  54.540  1.00  0.00     0.044 A 
HETATM   20  C   UNL     1      25.845  46.940  53.935  1.00  0.00     0.015 A 
HETATM   21  C   UNL     1      28.203  46.867  55.409  1.00  0.00     0.030 A 
HETATM   22  N   UNL     1      28.722  44.770  54.425  1.00  0.00    -0.355 N 
HETATM   23  C   UNL     1      27.340  47.953  55.540  1.00  0.00     0.002 A 
HETATM   24  C   UNL     1      26.162  47.990  54.801  1.00  0.00     0.001 A 
HETATM   25  H   UNL     1      29.580  44.791  54.971  1.00  0.00     0.166 HD
HETATM   26  C   UNL     1      28.497  43.696  53.650  1.00  0.00     0.044 A 
HETATM   27  C   UNL     1      27.313  43.622  52.884  1.00  0.00     0.013 A 
HETATM   28  C   UNL     1      29.443  42.658  53.624  1.00  0.00     0.030 A 
HETATM   29  C   UNL     1      27.109  42.445  52.126  1.00  0.00     0.015 A 
HETATM   30  C   UNL     1      28.055  41.416  52.103  1.00  0.00     0.001 A 
HETATM   31  C   UNL     1      29.223  41.524  52.846  1.00  0.00     0.002 A 
ENDBRANCH   1  17
TORSDOF 7
ENDMDL
MODEL 7
REMARK VINA RESULT:      -8.2      2.063      4.418
REMARK  7 active torsions:
REMARK  status: ('A' for Active; 'I' for Inactive)
REMARK    1  A    between atoms: O_2  and  C_3 
REMARK    2  A    between atoms: C_3  and  C_4 
REMARK    3  A    between atoms: C_4  and  N_5 
REMARK    4  A    between atoms: C_4  and  C_21 
REMARK    5  A    between atoms: N_5  and  C_6 
REMARK    6  A    between atoms: C_21  and  C_22 
REMARK    7  A    between atoms: C_25  and  O_26 
ROOT
HETATM    1  N   UNL     1      26.001  44.667  51.845  1.00  0.00    -0.277 NA
HETATM    2  H   UNL     1      25.589  43.734  51.913  1.00  0.00     0.128 HD
ENDROOT
BRANCH   1   3
HETATM    3  C   UNL     1      26.452  44.894  50.430  1.00  0.00     0.164 C 
BRANCH   3   4
HETATM    4  C   UNL     1      26.254  46.338  49.941  1.00  0.00     0.276 C 
HETATM    5  O   UNL     1      25.275  47.039  50.165  1.00  0.00    -0.263 OA
BRANCH   4   6
HETATM    6  O   UNL     1      27.359  46.750  49.250  1.00  0.00    -0.325 OA
HETATM    7  C   UNL     1      27.460  48.166  49.091  1.00  0.00     0.213 C 
ENDBRANCH   4   6
ENDBRANCH   3   4
BRANCH   3   8
HETATM    8  C   UNL     1      25.671  43.942  49.503  1.00  0.00     0.068 C 
BRANCH   8   9
HETATM    9  C   UNL     1      26.159  42.517  49.619  1.00  0.00    -0.056 A 
HETATM   10  C   UNL     1      25.498  41.612  50.465  1.00  0.00     0.010 A 
HETATM   11  C   UNL     1      25.961  40.302  50.605  1.00  0.00     0.037 A 
HETATM   12  C   UNL     1      27.088  39.898  49.900  1.00  0.00     0.065 A 
HETATM   13  C   UNL     1      27.755  40.779  49.058  1.00  0.00     0.037 A 
HETATM   14  C   UNL     1      27.292  42.088  48.915  1.00  0.00     0.010 A 
BRANCH  12  15
HETATM   15  O   UNL     1      27.577  38.630  50.006  1.00  0.00    -0.361 OA
HETATM   16  H   UNL     1      27.212  38.089  49.287  1.00  0.00     0.217 HD
ENDBRANCH  12  15
ENDBRANCH   8   9
ENDBRANCH   3   8
ENDBRANCH   1   3
BRANCH   1  17
HETATM   17  C   UNL     1      26.967  44.849  52.864  1.00  0.00     0.034 A 
HETATM   18  C   UNL     1      26.849  45.997  53.694  1.00  0.00     0.013 A 
HETATM   19  C   UNL     1      27.819  46.216  54.691  1.00  0.00     0.044 A 
HETATM   20  C   UNL     1      25.804  46.940  53.589  1.00  0.00     0.015 A 
HETATM   21  C   UNL     1      27.740  47.326  55.548  1.00  0.00     0.030 A 
HETATM   22  N   UNL     1      28.832  45.347  54.823  1.00  0.00    -0.355 N 
HETATM   23  C   UNL     1      26.692  48.235  55.425  1.00  0.00     0.002 A 
HETATM   24  C   UNL     1      25.725  48.043  54.444  1.00  0.00     0.001 A 
HETATM   25  H   UNL     1      29.526  45.535  55.542  1.00  0.00     0.166 HD
HETATM   26  C   UNL     1      28.983  44.239  54.078  1.00  0.00     0.044 A 
HETATM   27  C   UNL     1      28.036  43.936  53.075  1.00  0.00     0.013 A 
HETATM   28  C   UNL     1      30.079  43.394  54.320  1.00  0.00     0.030 A 
HETATM   29  C   UNL     1      28.221  42.731  52.357  1.00  0.00     0.015 A 
HETATM   30  C   UNL     1      29.315  41.895  52.601  1.00  0.00     0.001 A 
HETATM   31  C   UNL     1      30.246  42.228  53.577  1.00  0.00     0.002 A 
ENDBRANCH   1  17
TORSDOF 7
ENDMDL
MODEL 8
REMARK VINA RESULT:      -8.2      2.062      5.296
REMARK  7 active torsions:
REMARK  status: ('A' for Active; 'I' for Inactive)
REMARK    1  A    between atoms: O_2  and  C_3 
REMARK    2  A    between atoms: C_3  and  C_4 
REMARK    3  A    between atoms: C_4  and  N_5 
REMARK    4  A    between atoms: C_4  and  C_21 
REMARK    5  A    between atoms: N_5  and  C_6 
REMARK    6  A    between atoms: C_21  and  C_22 
REMARK    7  A    between atoms: C_25  and  O_26 
ROOT
HETATM    1  N   UNL     1      26.028  44.569  51.873  1.00  0.00    -0.277 NA
HETATM    2  H   UNL     1      25.727  43.595  51.955  1.00  0.00     0.128 HD
ENDROOT
BRANCH   1   3
HETATM    3  C   UNL     1      26.445  44.827  50.453  1.00  0.00     0.164 C 
BRANCH   3   4
HETATM    4  C   UNL     1      26.194  46.271  49.987  1.00  0.00     0.276 C 
HETATM    5  O   UNL     1      25.199  46.939  50.239  1.00  0.00    -0.263 OA
BRANCH   4   6
HETATM    6  O   UNL     1      27.271  46.724  49.278  1.00  0.00    -0.325 OA
HETATM    7  C   UNL     1      27.374  48.148  49.208  1.00  0.00     0.213 C 
ENDBRANCH   4   6
ENDBRANCH   3   4
BRANCH   3   8
HETATM    8  C   UNL     1      25.677  43.864  49.527  1.00  0.00     0.068 C 
BRANCH   8   9
HETATM    9  C   UNL     1      26.192  42.447  49.637  1.00  0.00    -0.056 A 
HETATM   10  C   UNL     1      25.556  41.530  50.490  1.00  0.00     0.010 A 
HETATM   11  C   UNL     1      26.044  40.228  50.624  1.00  0.00     0.037 A 
HETATM   12  C   UNL     1      27.170  39.845  49.907  1.00  0.00     0.065 A 
HETATM   13  C   UNL     1      27.813  40.739  49.059  1.00  0.00     0.037 A 
HETATM   14  C   UNL     1      27.325  42.039  48.921  1.00  0.00     0.010 A 
BRANCH  12  15
HETATM   15  O   UNL     1      27.683  38.587  50.007  1.00  0.00    -0.361 OA
HETATM   16  H   UNL     1      28.572  38.636  50.395  1.00  0.00     0.217 HD
ENDBRANCH  12  15
ENDBRANCH   8   9
ENDBRANCH   3   8
ENDBRANCH   1   3
BRANCH   1  17
HETATM   17  C   UNL     1      26.968  44.876  52.885  1.00  0.00     0.034 A 
HETATM   18  C   UNL     1      28.061  43.986  53.069  1.00  0.00     0.013 A 
HETATM   19  C   UNL     1      28.989  44.252  54.094  1.00  0.00     0.044 A 
HETATM   20  C   UNL     1      28.285  42.840  52.274  1.00  0.00     0.015 A 
HETATM   21  C   UNL     1      30.095  43.413  54.307  1.00  0.00     0.030 A 
HETATM   22  N   UNL     1      28.812  45.328  54.875  1.00  0.00    -0.355 N 
HETATM   23  C   UNL     1      30.294  42.295  53.501  1.00  0.00     0.002 A 
HETATM   24  C   UNL     1      29.387  42.007  52.486  1.00  0.00     0.001 A 
HETATM   25  H   UNL     1      29.490  45.492  55.615  1.00  0.00     0.166 HD
HETATM   26  C   UNL     1      27.808  46.211  54.735  1.00  0.00     0.044 A 
HETATM   27  C   UNL     1      26.851  46.025  53.713  1.00  0.00     0.013 A 
HETATM   28  C   UNL     1      27.735  47.310  55.606  1.00  0.00     0.030 A 
HETATM   29  C   UNL     1      25.847  47.014  53.584  1.00  0.00     0.015 A 
HETATM   30  C   UNL     1      25.779  48.105  54.455  1.00  0.00     0.001 A 
HETATM   31  C   UNL     1      26.718  48.251  55.468  1.00  0.00     0.002 A 
ENDBRANCH   1  17
TORSDOF 7
ENDMDL
MODEL 9
REMARK VINA RESULT:      -7.7      1.633      4.212
REMARK  7 active torsions:
REMARK  status: ('A' for Active; 'I' for Inactive)
REMARK    1  A    between atoms: O_2  and  C_3 
REMARK    2  A    between atoms: C_3  and  C_4 
REMARK    3  A    between atoms: C_4  and  N_5 
REMARK    4  A    between atoms: C_4  and  C_21 
REMARK    5  A    between atoms: N_5  and  C_6 
REMARK    6  A    between atoms: C_21  and  C_22 
REMARK    7  A    between atoms: C_25  and  O_26 
ROOT
HETATM    1  N   UNL     1      28.182  44.143  52.572  1.00  0.00    -0.277 NA
HETATM    2  H   UNL     1      28.965  44.346  51.948  1.00  0.00     0.128 HD
ENDROOT
BRANCH   1   3
HETATM    3  C   UNL     1      26.899  44.323  51.812  1.00  0.00     0.164 C 
BRANCH   3   4
HETATM    4  C   UNL     1      26.030  43.056  51.756  1.00  0.00     0.276 C 
HETATM    5  O   UNL     1      26.448  41.906  51.707  1.00  0.00    -0.263 OA
BRANCH   4   6
HETATM    6  O   UNL     1      24.708  43.396  51.812  1.00  0.00    -0.325 OA
HETATM    7  C   UNL     1      23.927  42.914  50.717  1.00  0.00     0.213 C 
ENDBRANCH   4   6
ENDBRANCH   3   4
BRANCH   3   8
HETATM    8  C   UNL     1      27.233  44.763  50.373  1.00  0.00     0.068 C 
BRANCH   8   9
HETATM    9  C   UNL     1      26.544  46.057  50.006  1.00  0.00    -0.056 A 
HETATM   10  C   UNL     1      27.304  47.184  49.653  1.00  0.00     0.010 A 
HETATM   11  C   UNL     1      26.678  48.394  49.344  1.00  0.00     0.037 A 
HETATM   12  C   UNL     1      25.292  48.477  49.393  1.00  0.00     0.065 A 
HETATM   13  C   UNL     1      24.524  47.372  49.741  1.00  0.00     0.037 A 
HETATM   14  C   UNL     1      25.147  46.161  50.046  1.00  0.00     0.010 A 
BRANCH  12  15
HETATM   15  O   UNL     1      24.638  49.637  49.101  1.00  0.00    -0.361 OA
HETATM   16  H   UNL     1      24.971  49.985  48.258  1.00  0.00     0.217 HD
ENDBRANCH  12  15
ENDBRANCH   8   9
ENDBRANCH   3   8
ENDBRANCH   1   3
BRANCH   1  17
HETATM   17  C   UNL     1      28.320  44.868  53.780  1.00  0.00     0.034 A 
HETATM   18  C   UNL     1      29.319  44.445  54.699  1.00  0.00     0.013 A 
HETATM   19  C   UNL     1      29.451  45.129  55.922  1.00  0.00     0.044 A 
HETATM   20  C   UNL     1      30.206  43.373  54.457  1.00  0.00     0.015 A 
HETATM   21  C   UNL     1      30.432  44.761  56.857  1.00  0.00     0.030 A 
HETATM   22  N   UNL     1      28.625  46.151  56.193  1.00  0.00    -0.355 N 
HETATM   23  C   UNL     1      31.298  43.704  56.587  1.00  0.00     0.002 A 
HETATM   24  C   UNL     1      31.183  43.009  55.388  1.00  0.00     0.001 A 
HETATM   25  H   UNL     1      28.734  46.621  57.089  1.00  0.00     0.166 HD
HETATM   26  C   UNL     1      27.677  46.603  55.356  1.00  0.00     0.044 A 
HETATM   27  C   UNL     1      27.501  45.985  54.099  1.00  0.00     0.013 A 
HETATM   28  C   UNL     1      26.882  47.694  55.745  1.00  0.00     0.030 A 
HETATM   29  C   UNL     1      26.520  46.537  53.241  1.00  0.00     0.015 A 
HETATM   30  C   UNL     1      25.731  47.621  53.635  1.00  0.00     0.001 A 
HETATM   31  C   UNL     1      25.907  48.196  54.887  1.00  0.00     0.002 A 
ENDBRANCH   1  17
TORSDOF 7
ENDMDL
MODEL 10
REMARK VINA RESULT:      -7.7      3.305      6.414
REMARK  7 active torsions:
REMARK  status: ('A' for Active; 'I' for Inactive)
REMARK    1  A    between atoms: O_2  and  C_3 
REMARK    2  A    between atoms: C_3  and  C_4 
REMARK    3  A    between atoms: C_4  and  N_5 
REMARK    4  A    between atoms: C_4  and  C_21 
REMARK    5  A    between atoms: N_5  and  C_6 
REMARK    6  A    between atoms: C_21  and  C_22 
REMARK    7  A    between atoms: C_25  and  O_26 
ROOT
HETATM    1  N   UNL     1      26.939  42.961  49.160  1.00  0.00    -0.277 NA
HETATM    2  H   UNL     1      27.472  43.832  49.147  1.00  0.00     0.128 HD
ENDROOT
BRANCH   1   3
HETATM    3  C   UNL     1      25.512  43.274  49.513  1.00  0.00     0.164 C 
BRANCH   3   4
HETATM    4  C   UNL     1      24.485  42.619  48.575  1.00  0.00     0.276 C 
HETATM    5  O   UNL     1      24.176  41.434  48.573  1.00  0.00    -0.263 OA
BRANCH   4   6
HETATM    6  O   UNL     1      23.926  43.565  47.764  1.00  0.00    -0.325 OA
HETATM    7  C   UNL     1      22.549  43.341  47.457  1.00  0.00     0.213 C 
ENDBRANCH   4   6
ENDBRANCH   3   4
BRANCH   3   8
HETATM    8  C   UNL     1      25.317  44.802  49.478  1.00  0.00     0.068 C 
BRANCH   8   9
HETATM    9  C   UNL     1      25.414  45.414  50.856  1.00  0.00    -0.056 A 
HETATM   10  C   UNL     1      26.057  46.649  51.036  1.00  0.00     0.010 A 
HETATM   11  C   UNL     1      26.181  47.207  52.310  1.00  0.00     0.037 A 
HETATM   12  C   UNL     1      25.664  46.527  53.405  1.00  0.00     0.065 A 
HETATM   13  C   UNL     1      25.025  45.304  53.247  1.00  0.00     0.037 A 
HETATM   14  C   UNL     1      24.897  44.746  51.974  1.00  0.00     0.010 A 
BRANCH  12  15
HETATM   15  O   UNL     1      25.763  47.032  54.667  1.00  0.00    -0.361 OA
HETATM   16  H   UNL     1      25.223  47.836  54.731  1.00  0.00     0.217 HD
ENDBRANCH  12  15
ENDBRANCH   8   9
ENDBRANCH   3   8
ENDBRANCH   1   3
BRANCH   1  17
HETATM   17  C   UNL     1      27.601  41.995  49.957  1.00  0.00     0.034 A 
HETATM   18  C   UNL     1      27.779  40.694  49.412  1.00  0.00     0.013 A 
HETATM   19  C   UNL     1      28.402  39.708  50.200  1.00  0.00     0.044 A 
HETATM   20  C   UNL     1      27.373  40.323  48.112  1.00  0.00     0.015 A 
HETATM   21  C   UNL     1      28.617  38.412  49.704  1.00  0.00     0.030 A 
HETATM   22  N   UNL     1      28.800  40.017  51.444  1.00  0.00    -0.355 N 
HETATM   23  C   UNL     1      28.213  38.078  48.414  1.00  0.00     0.002 A 
HETATM   24  C   UNL     1      27.588  39.033  47.619  1.00  0.00     0.001 A 
HETATM   25  H   UNL     1      29.237  39.284  51.996  1.00  0.00     0.166 HD
HETATM   26  C   UNL     1      28.672  41.233  52.001  1.00  0.00     0.044 A 
HETATM   27  C   UNL     1      28.080  42.282  51.264  1.00  0.00     0.013 A 
HETATM   28  C   UNL     1      29.141  41.441  53.308  1.00  0.00     0.030 A 
HETATM   29  C   UNL     1      28.018  43.551  51.886  1.00  0.00     0.015 A 
HETATM   30  C   UNL     1      28.485  43.751  53.188  1.00  0.00     0.001 A 
HETATM   31  C   UNL     1      29.041  42.697  53.901  1.00  0.00     0.002 A 
ENDBRANCH   1  17
TORSDOF 7
ENDMDL
