MODEL 1
REMARK VINA RESULT:      -9.6      0.000      0.000
REMARK  6 active torsions:
REMARK  status: ('A' for Active; 'I' for Inactive)
REMARK    1  A    between atoms: C_4  and  C_5 
REMARK    2  A    between atoms: C_5  and  C_6 
REMARK    3  A    between atoms: C_7  and  N_8 
REMARK       I    between atoms: N_8  and  C_9 
REMARK    4  A    between atoms: C_9  and  C_10 
REMARK    5  A    between atoms: C_15  and  C_16 
REMARK       I    between atoms: C_16  and  N_17 
REMARK    6  A    between atoms: N_17  and  C_18 
ROOT
HETATM    1  N   UNL     1      26.233  41.448  49.839  1.00  0.00    -0.321 N 
HETATM    2  C   UNL     1      27.378  41.135  49.140  1.00  0.00     0.277 C 
HETATM    3  O   UNL     1      27.709  41.590  48.054  1.00  0.00    -0.266 OA
HETATM    4  H   UNL     1      26.293  41.185  50.823  1.00  0.00     0.169 HD
ENDROOT
BRANCH   2   5
HETATM    5  C   UNL     1      28.225  40.200  49.883  1.00  0.00     0.158 A 
HETATM    6  N   UNL     1      28.775  39.088  49.245  1.00  0.00    -0.236 NA
HETATM    7  C   UNL     1      29.477  38.470  50.164  1.00  0.00     0.208 A 
HETATM    8  N   UNL     1      29.425  39.129  51.352  1.00  0.00    -0.344 N 
HETATM    9  H   UNL     1      29.896  38.873  52.212  1.00  0.00     0.167 HD
HETATM   10  C   UNL     1      28.636  40.254  51.210  1.00  0.00     0.136 A 
BRANCH  10  11
HETATM   11  C   UNL     1      28.466  41.175  52.320  1.00  0.00     0.275 C 
HETATM   12  N   UNL     1      29.459  42.110  52.499  1.00  0.00    -0.322 N 
HETATM   13  H   UNL     1      30.190  42.158  51.792  1.00  0.00     0.169 HD
HETATM   14  O   UNL     1      27.461  41.079  53.018  1.00  0.00    -0.266 OA
BRANCH  12  15
HETATM   15  C   UNL     1      29.615  43.026  53.559  1.00  0.00     0.035 A 
HETATM   16  C   UNL     1      28.818  44.155  53.747  1.00  0.00     0.029 A 
HETATM   17  C   UNL     1      29.015  44.983  54.857  1.00  0.00     0.002 A 
HETATM   18  C   UNL     1      30.011  44.689  55.786  1.00  0.00     0.000 A 
HETATM   19  C   UNL     1      30.816  43.568  55.604  1.00  0.00     0.002 A 
HETATM   20  C   UNL     1      30.617  42.741  54.497  1.00  0.00     0.029 A 
ENDBRANCH  12  15
ENDBRANCH  10  11
ENDBRANCH   2   5
BRANCH   1  21
HETATM   21  C   UNL     1      25.155  42.255  49.423  1.00  0.00     0.049 A 
HETATM   22  C   UNL     1      25.001  43.640  49.638  1.00  0.00     0.043 A 
HETATM   23  C   UNL     1      23.821  44.288  49.231  1.00  0.00     0.041 A 
HETATM   24  C   UNL     1      22.824  43.583  48.566  1.00  0.00     0.035 A 
HETATM   25  C   UNL     1      22.993  42.232  48.288  1.00  0.00     0.026 A 
HETATM   26 CL   UNL     1      21.395  44.391  48.053  1.00  0.00    -0.084 Cl
HETATM   27  C   UNL     1      24.152  41.576  48.709  1.00  0.00     0.032 A 
BRANCH  22  28
HETATM   28  C   UNL     1      26.038  44.560  50.170  1.00  0.00     0.194 C 
HETATM   29  O   UNL     1      27.069  44.712  49.516  1.00  0.00    -0.287 OA
BRANCH  28  30
HETATM   30  C   UNL     1      25.908  45.207  51.508  1.00  0.00     0.015 A 
HETATM   31  C   UNL     1      25.429  44.430  52.571  1.00  0.00     0.015 A 
HETATM   32  C   UNL     1      25.313  44.972  53.851  1.00  0.00     0.001 A 
HETATM   33  C   UNL     1      25.655  46.303  54.073  1.00  0.00     0.000 A 
HETATM   34  C   UNL     1      26.105  47.094  53.017  1.00  0.00     0.001 A 
HETATM   35  C   UNL     1      26.227  46.552  51.734  1.00  0.00     0.015 A 
ENDBRANCH  28  30
ENDBRANCH  22  28
ENDBRANCH   1  21
TORSDOF 6
ENDMDL
MODEL 2
REMARK VINA RESULT:      -9.4      4.645      8.230
REMARK  6 active torsions:
REMARK  status: ('A' for Active; 'I' for Inactive)
REMARK    1  A    between atoms: C_4  and  C_5 
REMARK    2  A    between atoms: C_5  and  C_6 
REMARK    3  A    between atoms: C_7  and  N_8 
REMARK       I    between atoms: N_8  and  C_9 
REMARK    4  A    between atoms: C_9  and  C_10 
REMARK    5  A    between atoms: C_15  and  C_16 
REMARK       I    between atoms: C_16  and  N_17 
REMARK    6  A    between atoms: N_17  and  C_18 
ROOT
HETATM    1  N   UNL     1      26.622  45.920  49.894  1.00  0.00    -0.321 N 
HETATM    2  C   UNL     1      25.645  46.884  49.778  1.00  0.00     0.277 C 
HETATM    3  O   UNL     1      24.458  46.745  50.040  1.00  0.00    -0.266 OA
HETATM    4  H   UNL     1      27.562  46.318  49.901  1.00  0.00     0.169 HD
ENDROOT
BRANCH   2   5
HETATM    5  C   UNL     1      26.200  48.166  49.340  1.00  0.00     0.158 A 
HETATM    6  N   UNL     1      27.574  48.397  49.401  1.00  0.00    -0.236 NA
HETATM    7  C   UNL     1      27.746  49.610  48.935  1.00  0.00     0.208 A 
HETATM    8  N   UNL     1      26.563  50.168  48.562  1.00  0.00    -0.344 N 
HETATM    9  H   UNL     1      26.423  51.085  48.154  1.00  0.00     0.167 HD
HETATM   10  C   UNL     1      25.544  49.265  48.798  1.00  0.00     0.136 A 
BRANCH  10  11
HETATM   11  C   UNL     1      24.179  49.589  48.426  1.00  0.00     0.275 C 
HETATM   12  N   UNL     1      23.235  49.515  49.424  1.00  0.00    -0.322 N 
HETATM   13  H   UNL     1      23.568  49.333  50.370  1.00  0.00     0.169 HD
HETATM   14  O   UNL     1      23.945  49.917  47.266  1.00  0.00    -0.266 OA
BRANCH  12  15
HETATM   15  C   UNL     1      21.836  49.644  49.315  1.00  0.00     0.035 A 
HETATM   16  C   UNL     1      20.961  48.579  49.103  1.00  0.00     0.029 A 
HETATM   17  C   UNL     1      19.580  48.798  49.058  1.00  0.00     0.002 A 
HETATM   18  C   UNL     1      19.064  50.082  49.222  1.00  0.00     0.000 A 
HETATM   19  C   UNL     1      19.929  51.152  49.427  1.00  0.00     0.002 A 
HETATM   20  C   UNL     1      21.307  50.933  49.474  1.00  0.00     0.029 A 
ENDBRANCH  12  15
ENDBRANCH  10  11
ENDBRANCH   2   5
BRANCH   1  21
HETATM   21  C   UNL     1      26.465  44.559  50.223  1.00  0.00     0.049 A 
HETATM   22  C   UNL     1      26.804  43.937  51.442  1.00  0.00     0.043 A 
HETATM   23  C   UNL     1      26.663  42.545  51.585  1.00  0.00     0.041 A 
HETATM   24  C   UNL     1      26.136  41.781  50.549  1.00  0.00     0.035 A 
HETATM   25  C   UNL     1      25.735  42.391  49.367  1.00  0.00     0.026 A 
HETATM   26 CL   UNL     1      25.947  40.083  50.742  1.00  0.00    -0.084 Cl
HETATM   27  C   UNL     1      25.894  43.770  49.208  1.00  0.00     0.032 A 
BRANCH  22  28
HETATM   28  C   UNL     1      27.208  44.631  52.691  1.00  0.00     0.194 C 
HETATM   29  O   UNL     1      26.589  45.642  53.019  1.00  0.00    -0.287 OA
BRANCH  28  30
HETATM   30  C   UNL     1      28.395  44.200  53.485  1.00  0.00     0.015 A 
HETATM   31  C   UNL     1      29.266  43.265  52.910  1.00  0.00     0.015 A 
HETATM   32  C   UNL     1      30.408  42.846  53.593  1.00  0.00     0.001 A 
HETATM   33  C   UNL     1      30.676  43.342  54.866  1.00  0.00     0.000 A 
HETATM   34  C   UNL     1      29.800  44.250  55.459  1.00  0.00     0.001 A 
HETATM   35  C   UNL     1      28.658  44.676  54.775  1.00  0.00     0.015 A 
ENDBRANCH  28  30
ENDBRANCH  22  28
ENDBRANCH   1  21
TORSDOF 6
ENDMDL
MODEL 3
REMARK VINA RESULT:      -9.1      1.390      2.054
REMARK  6 active torsions:
REMARK  status: ('A' for Active; 'I' for Inactive)
REMARK    1  A    between atoms: C_4  and  C_5 
REMARK    2  A    between atoms: C_5  and  C_6 
REMARK    3  A    between atoms: C_7  and  N_8 
REMARK       I    between atoms: N_8  and  C_9 
REMARK    4  A    between atoms: C_9  and  C_10 
REMARK    5  A    between atoms: C_15  and  C_16 
REMARK       I    between atoms: C_16  and  N_17 
REMARK    6  A    between atoms: N_17  and  C_18 
ROOT
HETATM    1  N   UNL     1      25.647  43.186  48.900  1.00  0.00    -0.321 N 
HETATM    2  C   UNL     1      25.728  42.209  49.867  1.00  0.00     0.277 C 
HETATM    3  O   UNL     1      24.875  41.945  50.702  1.00  0.00    -0.266 OA
HETATM    4  H   UNL     1      26.323  43.048  48.148  1.00  0.00     0.169 HD
ENDROOT
BRANCH   2   5
HETATM    5  C   UNL     1      26.973  41.445  49.758  1.00  0.00     0.158 A 
HETATM    6  N   UNL     1      27.337  40.858  48.547  1.00  0.00    -0.236 NA
HETATM    7  C   UNL     1      28.485  40.267  48.774  1.00  0.00     0.208 A 
HETATM    8  N   UNL     1      28.890  40.454  50.060  1.00  0.00    -0.344 N 
HETATM    9  H   UNL     1      29.748  40.122  50.482  1.00  0.00     0.167 HD
HETATM   10  C   UNL     1      27.948  41.217  50.723  1.00  0.00     0.136 A 
BRANCH  10  11
HETATM   11  C   UNL     1      28.170  41.618  52.100  1.00  0.00     0.275 C 
HETATM   12  N   UNL     1      28.918  42.756  52.296  1.00  0.00    -0.322 N 
HETATM   13  H   UNL     1      29.182  43.290  51.469  1.00  0.00     0.169 HD
HETATM   14  O   UNL     1      27.678  40.942  52.999  1.00  0.00    -0.266 OA
BRANCH  12  15
HETATM   15  C   UNL     1      29.392  43.292  53.509  1.00  0.00     0.035 A 
HETATM   16  C   UNL     1      30.503  42.811  54.202  1.00  0.00     0.029 A 
HETATM   17  C   UNL     1      30.930  43.439  55.377  1.00  0.00     0.002 A 
HETATM   18  C   UNL     1      30.250  44.551  55.868  1.00  0.00     0.000 A 
HETATM   19  C   UNL     1      29.137  45.035  55.189  1.00  0.00     0.002 A 
HETATM   20  C   UNL     1      28.711  44.409  54.015  1.00  0.00     0.029 A 
ENDBRANCH  12  15
ENDBRANCH  10  11
ENDBRANCH   2   5
BRANCH   1  21
HETATM   21  C   UNL     1      24.639  44.156  48.729  1.00  0.00     0.049 A 
HETATM   22  C   UNL     1      24.581  45.432  49.326  1.00  0.00     0.043 A 
HETATM   23  C   UNL     1      23.459  46.255  49.119  1.00  0.00     0.041 A 
HETATM   24  C   UNL     1      22.428  45.843  48.282  1.00  0.00     0.035 A 
HETATM   25  C   UNL     1      22.505  44.616  47.634  1.00  0.00     0.026 A 
HETATM   26 CL   UNL     1      21.073  46.867  48.019  1.00  0.00    -0.084 Cl
HETATM   27  C   UNL     1      23.605  43.783  47.852  1.00  0.00     0.032 A 
BRANCH  22  28
HETATM   28  C   UNL     1      25.671  46.084  50.096  1.00  0.00     0.194 C 
HETATM   29  O   UNL     1      26.625  46.546  49.472  1.00  0.00    -0.287 OA
BRANCH  28  30
HETATM   30  C   UNL     1      25.686  46.096  51.587  1.00  0.00     0.015 A 
HETATM   31  C   UNL     1      26.181  47.238  52.231  1.00  0.00     0.015 A 
HETATM   32  C   UNL     1      26.193  47.319  53.623  1.00  0.00     0.001 A 
HETATM   33  C   UNL     1      25.730  46.249  54.384  1.00  0.00     0.000 A 
HETATM   34  C   UNL     1      25.262  45.097  53.754  1.00  0.00     0.001 A 
HETATM   35  C   UNL     1      25.244  45.014  52.359  1.00  0.00     0.015 A 
ENDBRANCH  28  30
ENDBRANCH  22  28
ENDBRANCH   1  21
TORSDOF 6
ENDMDL
MODEL 4
REMARK VINA RESULT:      -8.9      2.543      4.264
REMARK  6 active torsions:
REMARK  status: ('A' for Active; 'I' for Inactive)
REMARK    1  A    between atoms: C_4  and  C_5 
REMARK    2  A    between atoms: C_5  and  C_6 
REMARK    3  A    between atoms: C_7  and  N_8 
REMARK       I    between atoms: N_8  and  C_9 
REMARK    4  A    between atoms: C_9  and  C_10 
REMARK    5  A    between atoms: C_15  and  C_16 
REMARK       I    between atoms: C_16  and  N_17 
REMARK    6  A    between atoms: N_17  and  C_18 
ROOT
HETATM    1  N   UNL     1      23.358  44.630  48.547  1.00  0.00    -0.321 N 
HETATM    2  C   UNL     1      23.078  43.592  49.409  1.00  0.00     0.277 C 
HETATM    3  O   UNL     1      22.600  43.692  50.530  1.00  0.00    -0.266 OA
HETATM    4  H   UNL     1      23.476  44.316  47.584  1.00  0.00     0.169 HD
ENDROOT
BRANCH   2   5
HETATM    5  C   UNL     1      23.373  42.292  48.802  1.00  0.00     0.158 A 
HETATM    6  N   UNL     1      22.402  41.626  48.055  1.00  0.00    -0.236 NA
HETATM    7  C   UNL     1      22.972  40.518  47.648  1.00  0.00     0.208 A 
HETATM    8  N   UNL     1      24.261  40.440  48.076  1.00  0.00    -0.344 N 
HETATM    9  H   UNL     1      24.924  39.699  47.882  1.00  0.00     0.167 HD
HETATM   10  C   UNL     1      24.560  41.569  48.815  1.00  0.00     0.136 A 
BRANCH  10  11
HETATM   11  C   UNL     1      25.900  41.768  49.337  1.00  0.00     0.275 C 
HETATM   12  N   UNL     1      26.028  41.798  50.706  1.00  0.00    -0.322 N 
HETATM   13  H   UNL     1      25.198  41.584  51.258  1.00  0.00     0.169 HD
HETATM   14  O   UNL     1      26.831  41.884  48.545  1.00  0.00    -0.266 OA
BRANCH  12  15
HETATM   15  C   UNL     1      27.172  42.103  51.471  1.00  0.00     0.035 A 
HETATM   16  C   UNL     1      27.770  43.362  51.523  1.00  0.00     0.029 A 
HETATM   17  C   UNL     1      28.876  43.584  52.350  1.00  0.00     0.002 A 
HETATM   18  C   UNL     1      29.393  42.551  53.129  1.00  0.00     0.000 A 
HETATM   19  C   UNL     1      28.807  41.290  53.079  1.00  0.00     0.002 A 
HETATM   20  C   UNL     1      27.702  41.068  52.255  1.00  0.00     0.029 A 
ENDBRANCH  12  15
ENDBRANCH  10  11
ENDBRANCH   2   5
BRANCH   1  21
HETATM   21  C   UNL     1      23.267  46.014  48.797  1.00  0.00     0.049 A 
HETATM   22  C   UNL     1      24.132  46.788  49.597  1.00  0.00     0.043 A 
HETATM   23  C   UNL     1      23.856  48.150  49.816  1.00  0.00     0.041 A 
HETATM   24  C   UNL     1      22.766  48.756  49.202  1.00  0.00     0.035 A 
HETATM   25  C   UNL     1      21.944  48.019  48.358  1.00  0.00     0.026 A 
HETATM   26 CL   UNL     1      22.451  50.426  49.459  1.00  0.00    -0.084 Cl
HETATM   27  C   UNL     1      22.197  46.660  48.153  1.00  0.00     0.032 A 
BRANCH  22  28
HETATM   28  C   UNL     1      25.424  46.337  50.173  1.00  0.00     0.194 C 
HETATM   29  O   UNL     1      26.301  45.954  49.400  1.00  0.00    -0.287 OA
BRANCH  28  30
HETATM   30  C   UNL     1      25.640  46.237  51.645  1.00  0.00     0.015 A 
HETATM   31  C   UNL     1      25.050  45.164  52.326  1.00  0.00     0.015 A 
HETATM   32  C   UNL     1      25.241  45.003  53.698  1.00  0.00     0.001 A 
HETATM   33  C   UNL     1      26.006  45.926  54.405  1.00  0.00     0.000 A 
HETATM   34  C   UNL     1      26.574  47.013  53.743  1.00  0.00     0.001 A 
HETATM   35  C   UNL     1      26.389  47.175  52.367  1.00  0.00     0.015 A 
ENDBRANCH  28  30
ENDBRANCH  22  28
ENDBRANCH   1  21
TORSDOF 6
ENDMDL
MODEL 5
REMARK VINA RESULT:      -8.8      2.418      3.295
REMARK  6 active torsions:
REMARK  status: ('A' for Active; 'I' for Inactive)
REMARK    1  A    between atoms: C_4  and  C_5 
REMARK    2  A    between atoms: C_5  and  C_6 
REMARK    3  A    between atoms: C_7  and  N_8 
REMARK       I    between atoms: N_8  and  C_9 
REMARK    4  A    between atoms: C_9  and  C_10 
REMARK    5  A    between atoms: C_15  and  C_16 
REMARK       I    between atoms: C_16  and  N_17 
REMARK    6  A    between atoms: N_17  and  C_18 
ROOT
HETATM    1  N   UNL     1      25.075  43.699  49.433  1.00  0.00    -0.321 N 
HETATM    2  C   UNL     1      25.109  43.023  50.633  1.00  0.00     0.277 C 
HETATM    3  O   UNL     1      24.220  42.992  51.471  1.00  0.00    -0.266 OA
HETATM    4  H   UNL     1      25.781  43.364  48.777  1.00  0.00     0.169 HD
ENDROOT
BRANCH   2   5
HETATM    5  C   UNL     1      26.353  42.266  50.790  1.00  0.00     0.158 A 
HETATM    6  N   UNL     1      26.749  41.349  49.816  1.00  0.00    -0.236 NA
HETATM    7  C   UNL     1      27.887  40.857  50.241  1.00  0.00     0.208 A 
HETATM    8  N   UNL     1      28.256  41.416  51.425  1.00  0.00    -0.344 N 
HETATM    9  H   UNL     1      29.100  41.226  51.952  1.00  0.00     0.167 HD
HETATM   10  C   UNL     1      27.298  42.336  51.807  1.00  0.00     0.136 A 
BRANCH  10  11
HETATM   11  C   UNL     1      27.482  43.126  53.011  1.00  0.00     0.275 C 
HETATM   12  N   UNL     1      28.757  43.583  53.258  1.00  0.00    -0.322 N 
HETATM   13  H   UNL     1      29.459  43.420  52.538  1.00  0.00     0.169 HD
HETATM   14  O   UNL     1      26.509  43.352  53.724  1.00  0.00    -0.266 OA
BRANCH  12  15
HETATM   15  C   UNL     1      29.240  44.249  54.401  1.00  0.00     0.035 A 
HETATM   16  C   UNL     1      28.730  45.455  54.884  1.00  0.00     0.029 A 
HETATM   17  C   UNL     1      29.242  46.019  56.058  1.00  0.00     0.002 A 
HETATM   18  C   UNL     1      30.267  45.384  56.756  1.00  0.00     0.000 A 
HETATM   19  C   UNL     1      30.786  44.184  56.279  1.00  0.00     0.002 A 
HETATM   20  C   UNL     1      30.274  43.620  55.109  1.00  0.00     0.029 A 
ENDBRANCH  12  15
ENDBRANCH  10  11
ENDBRANCH   2   5
BRANCH   1  21
HETATM   21  C   UNL     1      24.081  44.579  48.960  1.00  0.00     0.049 A 
HETATM   22  C   UNL     1      23.896  45.926  49.332  1.00  0.00     0.043 A 
HETATM   23  C   UNL     1      22.799  46.650  48.831  1.00  0.00     0.041 A 
HETATM   24  C   UNL     1      21.924  46.064  47.924  1.00  0.00     0.035 A 
HETATM   25  C   UNL     1      22.133  44.758  47.498  1.00  0.00     0.026 A 
HETATM   26 CL   UNL     1      20.599  46.965  47.301  1.00  0.00    -0.084 Cl
HETATM   27  C   UNL     1      23.207  44.024  48.008  1.00  0.00     0.032 A 
BRANCH  22  28
HETATM   28  C   UNL     1      24.834  46.742  50.144  1.00  0.00     0.194 C 
HETATM   29  O   UNL     1      24.931  46.492  51.345  1.00  0.00    -0.287 OA
BRANCH  28  30
HETATM   30  C   UNL     1      25.567  47.907  49.570  1.00  0.00     0.015 A 
HETATM   31  C   UNL     1      26.958  47.954  49.734  1.00  0.00     0.015 A 
HETATM   32  C   UNL     1      27.702  49.004  49.194  1.00  0.00     0.001 A 
HETATM   33  C   UNL     1      27.057  50.026  48.504  1.00  0.00     0.000 A 
HETATM   34  C   UNL     1      25.670  50.005  48.361  1.00  0.00     0.001 A 
HETATM   35  C   UNL     1      24.923  48.952  48.896  1.00  0.00     0.015 A 
ENDBRANCH  28  30
ENDBRANCH  22  28
ENDBRANCH   1  21
TORSDOF 6
ENDMDL
MODEL 6
REMARK VINA RESULT:      -8.7      5.841      7.972
REMARK  6 active torsions:
REMARK  status: ('A' for Active; 'I' for Inactive)
REMARK    1  A    between atoms: C_4  and  C_5 
REMARK    2  A    between atoms: C_5  and  C_6 
REMARK    3  A    between atoms: C_7  and  N_8 
REMARK       I    between atoms: N_8  and  C_9 
REMARK    4  A    between atoms: C_9  and  C_10 
REMARK    5  A    between atoms: C_15  and  C_16 
REMARK       I    between atoms: C_16  and  N_17 
REMARK    6  A    between atoms: N_17  and  C_18 
ROOT
HETATM    1  N   UNL     1      23.705  48.369  48.894  1.00  0.00    -0.321 N 
HETATM    2  C   UNL     1      24.392  49.311  48.161  1.00  0.00     0.277 C 
HETATM    3  O   UNL     1      23.921  50.047  47.306  1.00  0.00    -0.266 OA
HETATM    4  H   UNL     1      24.212  48.079  49.730  1.00  0.00     0.169 HD
ENDROOT
BRANCH   2   5
HETATM    5  C   UNL     1      25.798  49.387  48.564  1.00  0.00     0.158 A 
HETATM    6  N   UNL     1      26.588  50.466  48.167  1.00  0.00    -0.236 NA
HETATM    7  C   UNL     1      27.770  50.245  48.689  1.00  0.00     0.208 A 
HETATM    8  N   UNL     1      27.783  49.093  49.414  1.00  0.00    -0.344 N 
HETATM    9  H   UNL     1      28.563  48.709  49.934  1.00  0.00     0.167 HD
HETATM   10  C   UNL     1      26.528  48.516  49.365  1.00  0.00     0.136 A 
BRANCH  10  11
HETATM   11  C   UNL     1      26.251  47.303  50.113  1.00  0.00     0.275 C 
HETATM   12  N   UNL     1      26.813  46.143  49.633  1.00  0.00    -0.322 N 
HETATM   13  H   UNL     1      27.458  46.225  48.849  1.00  0.00     0.169 HD
HETATM   14  O   UNL     1      25.554  47.378  51.121  1.00  0.00    -0.266 OA
BRANCH  12  15
HETATM   15  C   UNL     1      26.605  44.822  50.079  1.00  0.00     0.035 A 
HETATM   16  C   UNL     1      27.430  44.158  50.986  1.00  0.00     0.029 A 
HETATM   17  C   UNL     1      27.117  42.862  51.408  1.00  0.00     0.002 A 
HETATM   18  C   UNL     1      25.979  42.220  50.926  1.00  0.00     0.000 A 
HETATM   19  C   UNL     1      25.152  42.871  50.016  1.00  0.00     0.002 A 
HETATM   20  C   UNL     1      25.464  44.166  49.595  1.00  0.00     0.029 A 
ENDBRANCH  12  15
ENDBRANCH  10  11
ENDBRANCH   2   5
BRANCH   1  21
HETATM   21  C   UNL     1      22.362  47.968  48.748  1.00  0.00     0.049 A 
HETATM   22  C   UNL     1      21.215  48.686  49.144  1.00  0.00     0.043 A 
HETATM   23  C   UNL     1      19.940  48.108  49.005  1.00  0.00     0.041 A 
HETATM   24  C   UNL     1      19.795  46.852  48.427  1.00  0.00     0.035 A 
HETATM   25  C   UNL     1      20.912  46.161  47.972  1.00  0.00     0.026 A 
HETATM   26 CL   UNL     1      18.230  46.165  48.242  1.00  0.00    -0.084 Cl
HETATM   27  C   UNL     1      22.184  46.719  48.127  1.00  0.00     0.032 A 
BRANCH  22  28
HETATM   28  C   UNL     1      21.188  50.096  49.609  1.00  0.00     0.194 C 
HETATM   29  O   UNL     1      22.147  50.511  50.257  1.00  0.00    -0.287 OA
BRANCH  28  30
HETATM   30  C   UNL     1      19.999  50.973  49.404  1.00  0.00     0.015 A 
HETATM   31  C   UNL     1      20.020  51.870  48.328  1.00  0.00     0.015 A 
HETATM   32  C   UNL     1      18.925  52.694  48.068  1.00  0.00     0.001 A 
HETATM   33  C   UNL     1      17.808  52.643  48.897  1.00  0.00     0.000 A 
HETATM   34  C   UNL     1      17.787  51.775  49.988  1.00  0.00     0.001 A 
HETATM   35  C   UNL     1      18.881  50.944  50.247  1.00  0.00     0.015 A 
ENDBRANCH  28  30
ENDBRANCH  22  28
ENDBRANCH   1  21
TORSDOF 6
ENDMDL
MODEL 7
REMARK VINA RESULT:      -8.5      2.343      4.501
REMARK  6 active torsions:
REMARK  status: ('A' for Active; 'I' for Inactive)
REMARK    1  A    between atoms: C_4  and  C_5 
REMARK    2  A    between atoms: C_5  and  C_6 
REMARK    3  A    between atoms: C_7  and  N_8 
REMARK       I    between atoms: N_8  and  C_9 
REMARK    4  A    between atoms: C_9  and  C_10 
REMARK    5  A    between atoms: C_15  and  C_16 
REMARK       I    between atoms: C_16  and  N_17 
REMARK    6  A    between atoms: N_17  and  C_18 
ROOT
HETATM    1  N   UNL     1      26.099  44.395  49.821  1.00  0.00    -0.321 N 
HETATM    2  C   UNL     1      26.373  43.703  50.980  1.00  0.00     0.277 C 
HETATM    3  O   UNL     1      25.979  43.987  52.102  1.00  0.00    -0.266 OA
HETATM    4  H   UNL     1      26.278  43.840  48.984  1.00  0.00     0.169 HD
ENDROOT
BRANCH   2   5
HETATM    5  C   UNL     1      27.176  42.507  50.717  1.00  0.00     0.158 A 
HETATM    6  N   UNL     1      27.143  41.897  49.463  1.00  0.00    -0.236 NA
HETATM    7  C   UNL     1      27.963  40.878  49.547  1.00  0.00     0.208 A 
HETATM    8  N   UNL     1      28.536  40.806  50.779  1.00  0.00    -0.344 N 
HETATM    9  H   UNL     1      29.219  40.127  51.094  1.00  0.00     0.167 HD
HETATM   10  C   UNL     1      28.061  41.843  51.558  1.00  0.00     0.136 A 
BRANCH  10  11
HETATM   11  C   UNL     1      28.565  42.035  52.906  1.00  0.00     0.275 C 
HETATM   12  N   UNL     1      28.850  43.329  53.277  1.00  0.00    -0.322 N 
HETATM   13  H   UNL     1      28.601  44.069  52.623  1.00  0.00     0.169 HD
HETATM   14  O   UNL     1      28.696  41.054  53.633  1.00  0.00    -0.266 OA
BRANCH  12  15
HETATM   15  C   UNL     1      29.467  43.782  54.460  1.00  0.00     0.035 A 
HETATM   16  C   UNL     1      30.569  43.171  55.058  1.00  0.00     0.029 A 
HETATM   17  C   UNL     1      31.146  43.722  56.207  1.00  0.00     0.002 A 
HETATM   18  C   UNL     1      30.624  44.886  56.768  1.00  0.00     0.000 A 
HETATM   19  C   UNL     1      29.521  45.500  56.184  1.00  0.00     0.002 A 
HETATM   20  C   UNL     1      28.947  44.951  55.035  1.00  0.00     0.029 A 
ENDBRANCH  12  15
ENDBRANCH  10  11
ENDBRANCH   2   5
BRANCH   1  21
HETATM   21  C   UNL     1      25.416  45.620  49.683  1.00  0.00     0.049 A 
HETATM   22  C   UNL     1      24.032  45.801  49.483  1.00  0.00     0.043 A 
HETATM   23  C   UNL     1      23.514  47.093  49.279  1.00  0.00     0.041 A 
HETATM   24  C   UNL     1      24.350  48.203  49.328  1.00  0.00     0.035 A 
HETATM   25  C   UNL     1      25.705  48.044  49.590  1.00  0.00     0.026 A 
HETATM   26 CL   UNL     1      23.702  49.779  49.099  1.00  0.00    -0.084 Cl
HETATM   27  C   UNL     1      26.232  46.762  49.772  1.00  0.00     0.032 A 
BRANCH  22  28
HETATM   28  C   UNL     1      22.993  44.745  49.580  1.00  0.00     0.194 C 
HETATM   29  O   UNL     1      23.035  43.976  50.539  1.00  0.00    -0.287 OA
BRANCH  28  30
HETATM   30  C   UNL     1      21.982  44.532  48.504  1.00  0.00     0.015 A 
HETATM   31  C   UNL     1      20.712  45.101  48.673  1.00  0.00     0.015 A 
HETATM   32  C   UNL     1      19.735  44.961  47.687  1.00  0.00     0.001 A 
HETATM   33  C   UNL     1      20.012  44.230  46.535  1.00  0.00     0.000 A 
HETATM   34  C   UNL     1      21.262  43.635  46.371  1.00  0.00     0.001 A 
HETATM   35  C   UNL     1      22.246  43.779  47.354  1.00  0.00     0.015 A 
ENDBRANCH  28  30
ENDBRANCH  22  28
ENDBRANCH   1  21
TORSDOF 6
ENDMDL
MODEL 8
REMARK VINA RESULT:      -8.3      3.103      5.825
REMARK  6 active torsions:
REMARK  status: ('A' for Active; 'I' for Inactive)
REMARK    1  A    between atoms: C_4  and  C_5 
REMARK    2  A    between atoms: C_5  and  C_6 
REMARK    3  A    between atoms: C_7  and  N_8 
REMARK       I    between atoms: N_8  and  C_9 
REMARK    4  A    between atoms: C_9  and  C_10 
REMARK    5  A    between atoms: C_15  and  C_16 
REMARK       I    between atoms: C_16  and  N_17 
REMARK    6  A    between atoms: N_17  and  C_18 
ROOT
HETATM    1  N   UNL     1      24.922  44.107  49.180  1.00  0.00    -0.321 N 
HETATM    2  C   UNL     1      23.686  44.454  49.678  1.00  0.00     0.277 C 
HETATM    3  O   UNL     1      22.934  43.731  50.317  1.00  0.00    -0.266 OA
HETATM    4  H   UNL     1      25.487  44.920  48.938  1.00  0.00     0.169 HD
ENDROOT
BRANCH   2   5
HETATM    5  C   UNL     1      23.367  45.856  49.400  1.00  0.00     0.158 A 
HETATM    6  N   UNL     1      22.296  46.184  48.569  1.00  0.00    -0.236 NA
HETATM    7  C   UNL     1      22.269  47.494  48.532  1.00  0.00     0.208 A 
HETATM    8  N   UNL     1      23.253  48.030  49.305  1.00  0.00    -0.344 N 
HETATM    9  H   UNL     1      23.434  49.013  49.464  1.00  0.00     0.167 HD
HETATM   10  C   UNL     1      23.975  47.007  49.889  1.00  0.00     0.136 A 
BRANCH  10  11
HETATM   11  C   UNL     1      25.048  47.307  50.819  1.00  0.00     0.275 C 
HETATM   12  N   UNL     1      25.069  46.583  51.988  1.00  0.00    -0.322 N 
HETATM   13  H   UNL     1      24.394  45.825  52.081  1.00  0.00     0.169 HD
HETATM   14  O   UNL     1      25.871  48.166  50.513  1.00  0.00    -0.266 OA
BRANCH  12  15
HETATM   15  C   UNL     1      25.905  46.757  53.109  1.00  0.00     0.035 A 
HETATM   16  C   UNL     1      25.822  47.832  53.994  1.00  0.00     0.029 A 
HETATM   17  C   UNL     1      26.664  47.895  55.109  1.00  0.00     0.002 A 
HETATM   18  C   UNL     1      27.596  46.887  55.347  1.00  0.00     0.000 A 
HETATM   19  C   UNL     1      27.691  45.814  54.466  1.00  0.00     0.002 A 
HETATM   20  C   UNL     1      26.849  45.750  53.354  1.00  0.00     0.029 A 
ENDBRANCH  12  15
ENDBRANCH  10  11
ENDBRANCH   2   5
BRANCH   1  21
HETATM   21  C   UNL     1      25.538  42.839  49.193  1.00  0.00     0.049 A 
HETATM   22  C   UNL     1      26.786  42.510  49.760  1.00  0.00     0.043 A 
HETATM   23  C   UNL     1      27.303  41.209  49.615  1.00  0.00     0.041 A 
HETATM   24  C   UNL     1      26.566  40.227  48.963  1.00  0.00     0.035 A 
HETATM   25  C   UNL     1      25.305  40.521  48.459  1.00  0.00     0.026 A 
HETATM   26 CL   UNL     1      27.198  38.635  48.811  1.00  0.00    -0.084 Cl
HETATM   27  C   UNL     1      24.794  41.816  48.578  1.00  0.00     0.032 A 
BRANCH  22  28
HETATM   28  C   UNL     1      27.607  43.389  50.630  1.00  0.00     0.194 C 
HETATM   29  O   UNL     1      27.881  44.516  50.222  1.00  0.00    -0.287 OA
BRANCH  28  30
HETATM   30  C   UNL     1      28.186  42.907  51.917  1.00  0.00     0.015 A 
HETATM   31  C   UNL     1      29.498  43.286  52.231  1.00  0.00     0.015 A 
HETATM   32  C   UNL     1      30.084  42.890  53.434  1.00  0.00     0.001 A 
HETATM   33  C   UNL     1      29.369  42.092  54.322  1.00  0.00     0.000 A 
HETATM   34  C   UNL     1      28.074  41.684  54.007  1.00  0.00     0.001 A 
HETATM   35  C   UNL     1      27.482  42.084  52.805  1.00  0.00     0.015 A 
ENDBRANCH  28  30
ENDBRANCH  22  28
ENDBRANCH   1  21
TORSDOF 6
ENDMDL
MODEL 9
REMARK VINA RESULT:      -8.3      2.334      4.451
REMARK  6 active torsions:
REMARK  status: ('A' for Active; 'I' for Inactive)
REMARK    1  A    between atoms: C_4  and  C_5 
REMARK    2  A    between atoms: C_5  and  C_6 
REMARK    3  A    between atoms: C_7  and  N_8 
REMARK       I    between atoms: N_8  and  C_9 
REMARK    4  A    between atoms: C_9  and  C_10 
REMARK    5  A    between atoms: C_15  and  C_16 
REMARK       I    between atoms: C_16  and  N_17 
REMARK    6  A    between atoms: N_17  and  C_18 
ROOT
HETATM    1  N   UNL     1      25.728  44.420  50.181  1.00  0.00    -0.321 N 
HETATM    2  C   UNL     1      25.629  43.643  51.313  1.00  0.00     0.277 C 
HETATM    3  O   UNL     1      24.741  43.697  52.152  1.00  0.00    -0.266 OA
HETATM    4  H   UNL     1      26.367  44.025  49.491  1.00  0.00     0.169 HD
ENDROOT
BRANCH   2   5
HETATM    5  C   UNL     1      26.713  42.662  51.391  1.00  0.00     0.158 A 
HETATM    6  N   UNL     1      26.979  41.818  50.313  1.00  0.00    -0.236 NA
HETATM    7  C   UNL     1      27.996  41.080  50.688  1.00  0.00     0.208 A 
HETATM    8  N   UNL     1      28.411  41.412  51.940  1.00  0.00    -0.344 N 
HETATM    9  H   UNL     1      29.188  41.010  52.451  1.00  0.00     0.167 HD
HETATM   10  C   UNL     1      27.616  42.434  52.423  1.00  0.00     0.136 A 
BRANCH  10  11
HETATM   11  C   UNL     1      27.890  43.022  53.722  1.00  0.00     0.275 C 
HETATM   12  N   UNL     1      29.143  43.562  53.900  1.00  0.00    -0.322 N 
HETATM   13  H   UNL     1      29.756  43.600  53.088  1.00  0.00     0.169 HD
HETATM   14  O   UNL     1      27.003  43.018  54.570  1.00  0.00    -0.266 OA
BRANCH  12  15
HETATM   15  C   UNL     1      29.714  44.071  55.084  1.00  0.00     0.035 A 
HETATM   16  C   UNL     1      29.303  45.245  55.715  1.00  0.00     0.029 A 
HETATM   17  C   UNL     1      29.897  45.647  56.916  1.00  0.00     0.002 A 
HETATM   18  C   UNL     1      30.908  44.881  57.493  1.00  0.00     0.000 A 
HETATM   19  C   UNL     1      31.330  43.712  56.868  1.00  0.00     0.002 A 
HETATM   20  C   UNL     1      30.735  43.309  55.670  1.00  0.00     0.029 A 
ENDBRANCH  12  15
ENDBRANCH  10  11
ENDBRANCH   2   5
BRANCH   1  21
HETATM   21  C   UNL     1      24.914  45.505  49.799  1.00  0.00     0.049 A 
HETATM   22  C   UNL     1      23.647  45.438  49.184  1.00  0.00     0.043 A 
HETATM   23  C   UNL     1      22.995  46.620  48.786  1.00  0.00     0.041 A 
HETATM   24  C   UNL     1      23.565  47.861  49.046  1.00  0.00     0.035 A 
HETATM   25  C   UNL     1      24.782  47.943  49.712  1.00  0.00     0.026 A 
HETATM   26 CL   UNL     1      22.749  49.299  48.575  1.00  0.00    -0.084 Cl
HETATM   27  C   UNL     1      25.448  46.773  50.090  1.00  0.00     0.032 A 
BRANCH  22  28
HETATM   28  C   UNL     1      22.832  44.211  48.999  1.00  0.00     0.194 C 
HETATM   29  O   UNL     1      21.847  44.055  49.718  1.00  0.00    -0.287 OA
BRANCH  28  30
HETATM   30  C   UNL     1      23.235  43.131  48.052  1.00  0.00     0.015 A 
HETATM   31  C   UNL     1      23.735  41.938  48.589  1.00  0.00     0.015 A 
HETATM   32  C   UNL     1      24.100  40.881  47.755  1.00  0.00     0.001 A 
HETATM   33  C   UNL     1      23.990  41.019  46.374  1.00  0.00     0.000 A 
HETATM   34  C   UNL     1      23.521  42.213  45.827  1.00  0.00     0.001 A 
HETATM   35  C   UNL     1      23.149  43.271  46.661  1.00  0.00     0.015 A 
ENDBRANCH  28  30
ENDBRANCH  22  28
ENDBRANCH   1  21
TORSDOF 6
ENDMDL
MODEL 10
REMARK VINA RESULT:      -8.1     16.991     19.502
REMARK  6 active torsions:
REMARK  status: ('A' for Active; 'I' for Inactive)
REMARK    1  A    between atoms: C_4  and  C_5 
REMARK    2  A    between atoms: C_5  and  C_6 
REMARK    3  A    between atoms: C_7  and  N_8 
REMARK       I    between atoms: N_8  and  C_9 
REMARK    4  A    between atoms: C_9  and  C_10 
REMARK    5  A    between atoms: C_15  and  C_16 
REMARK       I    between atoms: C_16  and  N_17 
REMARK    6  A    between atoms: N_17  and  C_18 
ROOT
HETATM    1  N   UNL     1      38.522  41.073  65.256  1.00  0.00    -0.321 N 
HETATM    2  C   UNL     1      37.913  41.838  64.286  1.00  0.00     0.277 C 
HETATM    3  O   UNL     1      38.283  41.967  63.128  1.00  0.00    -0.266 OA
HETATM    4  H   UNL     1      37.906  40.881  66.046  1.00  0.00     0.169 HD
ENDROOT
BRANCH   2   5
HETATM    5  C   UNL     1      36.690  42.470  64.786  1.00  0.00     0.158 A 
HETATM    6  N   UNL     1      35.706  41.704  65.412  1.00  0.00    -0.236 NA
HETATM    7  C   UNL     1      34.763  42.552  65.747  1.00  0.00     0.208 A 
HETATM    8  N   UNL     1      35.091  43.822  65.388  1.00  0.00    -0.344 N 
HETATM    9  H   UNL     1      34.547  44.661  65.551  1.00  0.00     0.167 HD
HETATM   10  C   UNL     1      36.330  43.812  64.775  1.00  0.00     0.136 A 
BRANCH  10  11
HETATM   11  C   UNL     1      36.946  45.056  64.350  1.00  0.00     0.275 C 
HETATM   12  N   UNL     1      37.551  45.808  65.331  1.00  0.00    -0.322 N 
HETATM   13  H   UNL     1      37.610  45.401  66.263  1.00  0.00     0.169 HD
HETATM   14  O   UNL     1      36.906  45.359  63.161  1.00  0.00    -0.266 OA
BRANCH  12  15
HETATM   15  C   UNL     1      38.101  47.101  65.225  1.00  0.00     0.035 A 
HETATM   16  C   UNL     1      37.356  48.280  65.262  1.00  0.00     0.029 A 
HETATM   17  C   UNL     1      37.995  49.522  65.200  1.00  0.00     0.002 A 
HETATM   18  C   UNL     1      39.383  49.596  65.097  1.00  0.00     0.000 A 
HETATM   19  C   UNL     1      40.135  48.427  65.053  1.00  0.00     0.002 A 
HETATM   20  C   UNL     1      39.497  47.186  65.117  1.00  0.00     0.029 A 
ENDBRANCH  12  15
ENDBRANCH  10  11
ENDBRANCH   2   5
BRANCH   1  21
HETATM   21  C   UNL     1      39.743  40.375  65.170  1.00  0.00     0.049 A 
HETATM   22  C   UNL     1      41.024  40.865  65.496  1.00  0.00     0.043 A 
HETATM   23  C   UNL     1      42.161  40.066  65.274  1.00  0.00     0.041 A 
HETATM   24  C   UNL     1      42.026  38.770  64.788  1.00  0.00     0.035 A 
HETATM   25  C   UNL     1      40.764  38.251  64.527  1.00  0.00     0.026 A 
HETATM   26 CL   UNL     1      43.420  37.795  64.542  1.00  0.00    -0.084 Cl
HETATM   27  C   UNL     1      39.632  39.046  64.722  1.00  0.00     0.032 A 
BRANCH  22  28
HETATM   28  C   UNL     1      41.317  42.149  66.183  1.00  0.00     0.194 C 
HETATM   29  O   UNL     1      40.924  42.290  67.339  1.00  0.00    -0.287 OA
BRANCH  28  30
HETATM   30  C   UNL     1      41.971  43.289  65.479  1.00  0.00     0.015 A 
HETATM   31  C   UNL     1      41.321  43.832  64.362  1.00  0.00     0.015 A 
HETATM   32  C   UNL     1      41.870  44.919  63.680  1.00  0.00     0.001 A 
HETATM   33  C   UNL     1      43.084  45.457  64.097  1.00  0.00     0.000 A 
HETATM   34  C   UNL     1      43.753  44.906  65.189  1.00  0.00     0.001 A 
HETATM   35  C   UNL     1      43.204  43.821  65.877  1.00  0.00     0.015 A 
ENDBRANCH  28  30
ENDBRANCH  22  28
ENDBRANCH   1  21
TORSDOF 6
ENDMDL
