MODEL 1
REMARK VINA RESULT:     -11.6      0.000      0.000
REMARK  6 active torsions:
REMARK  status: ('A' for Active; 'I' for Inactive)
REMARK    1  A    between atoms: C_8  and  C_9 
REMARK    2  A    between atoms: C_9  and  C_10 
REMARK    3  A    between atoms: C_10  and  N_11 
REMARK       I    between atoms: N_11  and  C_12 
REMARK    4  A    between atoms: C_12  and  C_13 
REMARK    5  A    between atoms: C_18  and  C_19 
REMARK    6  A    between atoms: C_29  and  C_30 
ROOT
HETATM    1  C   UNL     1      25.863  47.439  49.678  1.00  0.00     0.148 C 
HETATM    2  N   UNL     1      24.877  46.856  50.401  1.00  0.00    -0.165 NA
HETATM    3  N   UNL     1      25.410  45.671  50.742  1.00  0.00    -0.240 N 
HETATM    4  C   UNL     1      26.724  45.532  50.405  1.00  0.00     0.123 C 
HETATM    5  N   UNL     1      27.433  44.465  50.821  1.00  0.00    -0.366 N 
HETATM    6  C   UNL     1      27.028  43.679  51.990  1.00  0.00     0.118 C 
HETATM    7  C   UNL     1      25.663  44.113  52.580  1.00  0.00     0.066 C 
HETATM    8  C   UNL     1      24.702  44.686  51.531  1.00  0.00     0.221 C 
HETATM    9  C   UNL     1      27.029  46.624  49.639  1.00  0.00     0.088 C 
HETATM   10  H   UNL     1      28.426  44.399  50.595  1.00  0.00     0.161 HD
ENDROOT
BRANCH   1  11
HETATM   11  C   UNL     1      25.708  48.764  49.057  1.00  0.00     0.272 C 
HETATM   12  N   UNL     1      24.395  49.135  48.876  1.00  0.00    -0.355 N 
HETATM   13  H   UNL     1      23.703  48.519  49.292  1.00  0.00     0.162 HD
HETATM   14  O   UNL     1      26.663  49.473  48.754  1.00  0.00    -0.266 OA
BRANCH  12  15
HETATM   15  C   UNL     1      24.034  50.435  48.358  1.00  0.00     0.127 C 
BRANCH  15  16
HETATM   16  C   UNL     1      22.705  50.437  47.603  1.00  0.00     0.060 C 
BRANCH  16  17
HETATM   17  C   UNL     1      21.550  50.000  48.452  1.00  0.00    -0.029 A 
HETATM   18  C   UNL     1      20.370  50.748  48.768  1.00  0.00    -0.002 A 
HETATM   19  C   UNL     1      19.900  52.037  48.435  1.00  0.00     0.014 A 
HETATM   20  C   UNL     1      19.574  49.947  49.590  1.00  0.00     0.042 A 
HETATM   21  C   UNL     1      18.665  52.472  48.932  1.00  0.00     0.001 A 
HETATM   22  C   UNL     1      17.898  51.647  49.749  1.00  0.00     0.002 A 
HETATM   23  C   UNL     1      18.338  50.367  50.094  1.00  0.00     0.030 A 
HETATM   24  N   UNL     1      20.243  48.759  49.767  1.00  0.00    -0.365 N 
HETATM   25  H   UNL     1      19.902  47.986  50.322  1.00  0.00     0.165 HD
HETATM   26  C   UNL     1      21.433  48.781  49.093  1.00  0.00     0.096 A 
ENDBRANCH  16  17
ENDBRANCH  15  16
ENDBRANCH  12  15
ENDBRANCH   1  11
BRANCH   8  27
HETATM   27  C   UNL     1      24.113  43.621  50.636  1.00  0.00     0.409 C 
HETATM   28  F   UNL     1      24.624  43.658  49.385  1.00  0.00    -0.169 F 
HETATM   29  F   UNL     1      24.260  42.367  51.109  1.00  0.00    -0.169 F 
HETATM   30  F   UNL     1      22.774  43.827  50.507  1.00  0.00    -0.169 F 
ENDBRANCH   8  27
BRANCH   6  31
HETATM   31  C   UNL     1      28.130  43.786  53.036  1.00  0.00    -0.033 A 
HETATM   32  C   UNL     1      28.051  44.740  54.063  1.00  0.00     0.049 A 
HETATM   33  C   UNL     1      29.070  44.779  54.995  1.00  0.00     0.105 A 
HETATM   34  C   UNL     1      30.144  43.921  54.939  1.00  0.00     0.105 A 
HETATM   35  O   UNL     1      29.146  45.632  56.051  1.00  0.00    -0.323 OA
HETATM   36  O   UNL     1      31.030  44.128  55.949  1.00  0.00    -0.323 OA
HETATM   37  C   UNL     1      30.260  42.969  53.954  1.00  0.00     0.040 A 
HETATM   38  C   UNL     1      30.386  45.205  56.658  1.00  0.00     0.352 A 
HETATM   39  C   UNL     1      29.240  42.899  53.002  1.00  0.00     0.012 A 
ENDBRANCH   6  31
TORSDOF 6
ENDMDL
MODEL 2
REMARK VINA RESULT:     -11.2      3.415     10.727
REMARK  6 active torsions:
REMARK  status: ('A' for Active; 'I' for Inactive)
REMARK    1  A    between atoms: C_8  and  C_9 
REMARK    2  A    between atoms: C_9  and  C_10 
REMARK    3  A    between atoms: C_10  and  N_11 
REMARK       I    between atoms: N_11  and  C_12 
REMARK    4  A    between atoms: C_12  and  C_13 
REMARK    5  A    between atoms: C_18  and  C_19 
REMARK    6  A    between atoms: C_29  and  C_30 
ROOT
HETATM    1  C   UNL     1      24.706  46.270  50.688  1.00  0.00     0.148 C 
HETATM    2  N   UNL     1      25.283  47.490  50.809  1.00  0.00    -0.165 NA
HETATM    3  N   UNL     1      24.791  48.165  49.757  1.00  0.00    -0.240 N 
HETATM    4  C   UNL     1      23.825  47.495  49.066  1.00  0.00     0.123 C 
HETATM    5  N   UNL     1      23.131  48.105  48.086  1.00  0.00    -0.366 N 
HETATM    6  C   UNL     1      23.013  49.565  48.019  1.00  0.00     0.118 C 
HETATM    7  C   UNL     1      23.868  50.300  49.082  1.00  0.00     0.066 C 
HETATM    8  C   UNL     1      25.142  49.539  49.470  1.00  0.00     0.221 C 
HETATM    9  C   UNL     1      23.802  46.231  49.589  1.00  0.00     0.088 C 
HETATM   10  H   UNL     1      22.383  47.602  47.608  1.00  0.00     0.161 HD
ENDROOT
BRANCH   1  11
HETATM   11  C   UNL     1      24.986  45.168  51.622  1.00  0.00     0.272 C 
HETATM   12  N   UNL     1      26.286  45.148  52.072  1.00  0.00    -0.355 N 
HETATM   13  H   UNL     1      26.855  45.948  51.809  1.00  0.00     0.162 HD
HETATM   14  O   UNL     1      24.132  44.361  51.976  1.00  0.00    -0.266 OA
BRANCH  12  15
HETATM   15  C   UNL     1      26.738  44.193  53.059  1.00  0.00     0.127 C 
BRANCH  15  16
HETATM   16  C   UNL     1      28.253  44.205  53.262  1.00  0.00     0.060 C 
BRANCH  16  17
HETATM   17  C   UNL     1      28.667  44.878  54.535  1.00  0.00    -0.029 A 
HETATM   18  C   UNL     1      29.675  44.451  55.459  1.00  0.00    -0.002 A 
HETATM   19  C   UNL     1      30.562  43.354  55.512  1.00  0.00     0.014 A 
HETATM   20  C   UNL     1      29.711  45.381  56.499  1.00  0.00     0.042 A 
HETATM   21  C   UNL     1      31.444  43.231  56.593  1.00  0.00     0.001 A 
HETATM   22  C   UNL     1      31.454  44.177  57.614  1.00  0.00     0.002 A 
HETATM   23  C   UNL     1      30.587  45.273  57.586  1.00  0.00     0.030 A 
HETATM   24  N   UNL     1      28.763  46.337  56.221  1.00  0.00    -0.365 N 
HETATM   25  H   UNL     1      28.567  47.137  56.806  1.00  0.00     0.165 HD
HETATM   26  C   UNL     1      28.126  46.044  55.046  1.00  0.00     0.096 A 
ENDBRANCH  16  17
ENDBRANCH  15  16
ENDBRANCH  12  15
ENDBRANCH   1  11
BRANCH   8  27
HETATM   27  C   UNL     1      26.205  49.596  48.398  1.00  0.00     0.409 C 
HETATM   28  F   UNL     1      26.896  48.439  48.294  1.00  0.00    -0.169 F 
HETATM   29  F   UNL     1      25.732  49.909  47.175  1.00  0.00    -0.169 F 
HETATM   30  F   UNL     1      27.115  50.557  48.714  1.00  0.00    -0.169 F 
ENDBRANCH   8  27
BRANCH   6  31
HETATM   31  C   UNL     1      21.540  49.926  48.163  1.00  0.00    -0.033 A 
HETATM   32  C   UNL     1      20.549  48.934  48.079  1.00  0.00     0.049 A 
HETATM   33  C   UNL     1      19.231  49.316  48.236  1.00  0.00     0.105 A 
HETATM   34  C   UNL     1      18.873  50.624  48.465  1.00  0.00     0.105 A 
HETATM   35  O   UNL     1      18.155  48.486  48.190  1.00  0.00    -0.323 OA
HETATM   36  O   UNL     1      17.528  50.782  48.590  1.00  0.00    -0.323 OA
HETATM   37  C   UNL     1      19.809  51.626  48.559  1.00  0.00     0.040 A 
HETATM   38  C   UNL     1      17.080  49.422  48.428  1.00  0.00     0.352 A 
HETATM   39  C   UNL     1      21.151  51.270  48.414  1.00  0.00     0.012 A 
ENDBRANCH   6  31
TORSDOF 6
ENDMDL
MODEL 3
REMARK VINA RESULT:     -11.1      3.006      4.693
REMARK  6 active torsions:
REMARK  status: ('A' for Active; 'I' for Inactive)
REMARK    1  A    between atoms: C_8  and  C_9 
REMARK    2  A    between atoms: C_9  and  C_10 
REMARK    3  A    between atoms: C_10  and  N_11 
REMARK       I    between atoms: N_11  and  C_12 
REMARK    4  A    between atoms: C_12  and  C_13 
REMARK    5  A    between atoms: C_18  and  C_19 
REMARK    6  A    between atoms: C_29  and  C_30 
ROOT
HETATM    1  C   UNL     1      25.200  43.766  50.647  1.00  0.00     0.148 C 
HETATM    2  N   UNL     1      25.323  42.479  51.053  1.00  0.00    -0.165 NA
HETATM    3  N   UNL     1      26.622  42.387  51.383  1.00  0.00    -0.240 N 
HETATM    4  C   UNL     1      27.291  43.574  51.352  1.00  0.00     0.123 C 
HETATM    5  N   UNL     1      28.555  43.664  51.809  1.00  0.00    -0.366 N 
HETATM    6  C   UNL     1      29.102  42.692  52.761  1.00  0.00     0.118 C 
HETATM    7  C   UNL     1      28.141  41.513  53.055  1.00  0.00     0.066 C 
HETATM    8  C   UNL     1      27.225  41.167  51.875  1.00  0.00     0.221 C 
HETATM    9  C   UNL     1      26.425  44.476  50.799  1.00  0.00     0.088 C 
HETATM   10  H   UNL     1      29.026  44.569  51.818  1.00  0.00     0.161 HD
ENDROOT
BRANCH   1  11
HETATM   11  C   UNL     1      23.931  44.319  50.150  1.00  0.00     0.272 C 
HETATM   12  N   UNL     1      24.094  45.396  49.310  1.00  0.00    -0.355 N 
HETATM   13  H   UNL     1      25.051  45.603  49.041  1.00  0.00     0.162 HD
HETATM   14  O   UNL     1      22.837  43.846  50.445  1.00  0.00    -0.266 OA
BRANCH  12  15
HETATM   15  C   UNL     1      22.972  46.028  48.653  1.00  0.00     0.127 C 
BRANCH  15  16
HETATM   16  C   UNL     1      22.621  47.397  49.237  1.00  0.00     0.060 C 
BRANCH  16  17
HETATM   17  C   UNL     1      23.496  48.496  48.716  1.00  0.00    -0.029 A 
HETATM   18  C   UNL     1      24.901  48.669  48.937  1.00  0.00    -0.002 A 
HETATM   19  C   UNL     1      25.883  47.948  49.649  1.00  0.00     0.014 A 
HETATM   20  C   UNL     1      25.290  49.830  48.266  1.00  0.00     0.042 A 
HETATM   21  C   UNL     1      27.206  48.410  49.663  1.00  0.00     0.001 A 
HETATM   22  C   UNL     1      27.559  49.572  48.983  1.00  0.00     0.002 A 
HETATM   23  C   UNL     1      26.607  50.305  48.269  1.00  0.00     0.030 A 
HETATM   24  N   UNL     1      24.167  50.344  47.661  1.00  0.00    -0.365 N 
HETATM   25  H   UNL     1      24.152  51.186  47.104  1.00  0.00     0.165 HD
HETATM   26  C   UNL     1      23.083  49.554  47.928  1.00  0.00     0.096 A 
ENDBRANCH  16  17
ENDBRANCH  15  16
ENDBRANCH  12  15
ENDBRANCH   1  11
BRANCH   8  27
HETATM   27  C   UNL     1      27.953  40.454  50.759  1.00  0.00     0.409 C 
HETATM   28  F   UNL     1      28.315  41.291  49.762  1.00  0.00    -0.169 F 
HETATM   29  F   UNL     1      29.054  39.789  51.164  1.00  0.00    -0.169 F 
HETATM   30  F   UNL     1      27.129  39.527  50.200  1.00  0.00    -0.169 F 
ENDBRANCH   8  27
BRANCH   6  31
HETATM   31  C   UNL     1      29.458  43.435  54.042  1.00  0.00    -0.033 A 
HETATM   32  C   UNL     1      30.459  42.946  54.898  1.00  0.00     0.049 A 
HETATM   33  C   UNL     1      30.753  43.671  56.036  1.00  0.00     0.105 A 
HETATM   34  C   UNL     1      30.099  44.840  56.347  1.00  0.00     0.105 A 
HETATM   35  O   UNL     1      31.693  43.344  56.963  1.00  0.00    -0.323 OA
HETATM   36  O   UNL     1      30.540  45.393  57.507  1.00  0.00    -0.323 OA
HETATM   37  C   UNL     1      29.117  45.358  55.535  1.00  0.00     0.040 A 
HETATM   38  C   UNL     1      31.560  44.447  57.887  1.00  0.00     0.352 A 
HETATM   39  C   UNL     1      28.803  44.652  54.372  1.00  0.00     0.012 A 
ENDBRANCH   6  31
TORSDOF 6
ENDMDL
MODEL 4
REMARK VINA RESULT:     -10.7      2.575      3.528
REMARK  6 active torsions:
REMARK  status: ('A' for Active; 'I' for Inactive)
REMARK    1  A    between atoms: C_8  and  C_9 
REMARK    2  A    between atoms: C_9  and  C_10 
REMARK    3  A    between atoms: C_10  and  N_11 
REMARK       I    between atoms: N_11  and  C_12 
REMARK    4  A    between atoms: C_12  and  C_13 
REMARK    5  A    between atoms: C_18  and  C_19 
REMARK    6  A    between atoms: C_29  and  C_30 
ROOT
HETATM    1  C   UNL     1      25.226  43.796  50.772  1.00  0.00     0.148 C 
HETATM    2  N   UNL     1      25.371  42.522  51.212  1.00  0.00    -0.165 NA
HETATM    3  N   UNL     1      26.666  42.468  51.566  1.00  0.00    -0.240 N 
HETATM    4  C   UNL     1      27.309  43.669  51.516  1.00  0.00     0.123 C 
HETATM    5  N   UNL     1      28.563  43.799  51.990  1.00  0.00    -0.366 N 
HETATM    6  C   UNL     1      29.116  42.864  52.975  1.00  0.00     0.118 C 
HETATM    7  C   UNL     1      28.176  41.671  53.283  1.00  0.00     0.066 C 
HETATM    8  C   UNL     1      27.287  41.275  52.098  1.00  0.00     0.221 C 
HETATM    9  C   UNL     1      26.432  44.537  50.926  1.00  0.00     0.088 C 
HETATM   10  H   UNL     1      29.014  44.715  51.983  1.00  0.00     0.161 HD
ENDROOT
BRANCH   1  11
HETATM   11  C   UNL     1      23.954  44.307  50.241  1.00  0.00     0.272 C 
HETATM   12  N   UNL     1      24.112  45.257  49.258  1.00  0.00    -0.355 N 
HETATM   13  H   UNL     1      25.064  45.403  48.936  1.00  0.00     0.162 HD
HETATM   14  O   UNL     1      22.861  43.905  50.627  1.00  0.00    -0.266 OA
BRANCH  12  15
HETATM   15  C   UNL     1      22.983  45.821  48.553  1.00  0.00     0.127 C 
BRANCH  15  16
HETATM   16  C   UNL     1      22.839  47.330  48.751  1.00  0.00     0.060 C 
BRANCH  16  17
HETATM   17  C   UNL     1      21.641  47.900  48.055  1.00  0.00    -0.029 A 
HETATM   18  C   UNL     1      21.096  49.217  48.197  1.00  0.00    -0.002 A 
HETATM   19  C   UNL     1      21.445  50.351  48.961  1.00  0.00     0.014 A 
HETATM   20  C   UNL     1      19.979  49.300  47.362  1.00  0.00     0.042 A 
HETATM   21  C   UNL     1      20.671  51.515  48.863  1.00  0.00     0.001 A 
HETATM   22  C   UNL     1      19.564  51.564  48.020  1.00  0.00     0.002 A 
HETATM   23  C   UNL     1      19.197  50.456  47.252  1.00  0.00     0.030 A 
HETATM   24  N   UNL     1      19.850  48.082  46.737  1.00  0.00    -0.365 N 
HETATM   25  H   UNL     1      19.123  47.854  46.074  1.00  0.00     0.165 HD
HETATM   26  C   UNL     1      20.839  47.232  47.149  1.00  0.00     0.096 A 
ENDBRANCH  16  17
ENDBRANCH  15  16
ENDBRANCH  12  15
ENDBRANCH   1  11
BRANCH   8  27
HETATM   27  C   UNL     1      28.050  40.551  51.013  1.00  0.00     0.409 C 
HETATM   28  F   UNL     1      28.437  41.377  50.016  1.00  0.00    -0.169 F 
HETATM   29  F   UNL     1      29.141  39.895  51.457  1.00  0.00    -0.169 F 
HETATM   30  F   UNL     1      27.245  39.614  50.443  1.00  0.00    -0.169 F 
ENDBRANCH   8  27
BRANCH   6  31
HETATM   31  C   UNL     1      29.434  43.647  54.243  1.00  0.00    -0.033 A 
HETATM   32  C   UNL     1      30.411  43.187  55.141  1.00  0.00     0.049 A 
HETATM   33  C   UNL     1      30.672  43.948  56.263  1.00  0.00     0.105 A 
HETATM   34  C   UNL     1      30.005  45.123  56.520  1.00  0.00     0.105 A 
HETATM   35  O   UNL     1      31.586  43.652  57.226  1.00  0.00    -0.323 OA
HETATM   36  O   UNL     1      30.413  45.713  57.676  1.00  0.00    -0.323 OA
HETATM   37  C   UNL     1      29.045  45.613  55.667  1.00  0.00     0.040 A 
HETATM   38  C   UNL     1      31.424  44.783  58.112  1.00  0.00     0.352 A 
HETATM   39  C   UNL     1      28.765  44.870  54.517  1.00  0.00     0.012 A 
ENDBRANCH   6  31
TORSDOF 6
ENDMDL
MODEL 5
REMARK VINA RESULT:     -10.4      4.026     10.983
REMARK  6 active torsions:
REMARK  status: ('A' for Active; 'I' for Inactive)
REMARK    1  A    between atoms: C_8  and  C_9 
REMARK    2  A    between atoms: C_9  and  C_10 
REMARK    3  A    between atoms: C_10  and  N_11 
REMARK       I    between atoms: N_11  and  C_12 
REMARK    4  A    between atoms: C_12  and  C_13 
REMARK    5  A    between atoms: C_18  and  C_19 
REMARK    6  A    between atoms: C_29  and  C_30 
ROOT
HETATM    1  C   UNL     1      23.778  46.407  49.552  1.00  0.00     0.148 C 
HETATM    2  N   UNL     1      23.794  47.669  50.045  1.00  0.00    -0.165 NA
HETATM    3  N   UNL     1      23.012  48.342  49.185  1.00  0.00    -0.240 N 
HETATM    4  C   UNL     1      22.384  47.553  48.266  1.00  0.00     0.123 C 
HETATM    5  N   UNL     1      21.450  48.066  47.443  1.00  0.00    -0.366 N 
HETATM    6  C   UNL     1      20.726  49.298  47.770  1.00  0.00     0.118 C 
HETATM    7  C   UNL     1      21.244  49.993  49.054  1.00  0.00     0.066 C 
HETATM    8  C   UNL     1      22.738  49.757  49.312  1.00  0.00     0.221 C 
HETATM    9  C   UNL     1      22.921  46.304  48.419  1.00  0.00     0.088 C 
HETATM   10  H   UNL     1      20.961  47.453  46.790  1.00  0.00     0.161 HD
ENDROOT
BRANCH   1  11
HETATM   11  C   UNL     1      24.542  45.309  50.165  1.00  0.00     0.272 C 
HETATM   12  N   UNL     1      24.486  45.304  51.539  1.00  0.00    -0.355 N 
HETATM   13  H   UNL     1      23.841  45.969  51.956  1.00  0.00     0.162 HD
HETATM   14  O   UNL     1      25.150  44.471  49.506  1.00  0.00    -0.266 OA
BRANCH  12  15
HETATM   15  C   UNL     1      25.103  44.258  52.324  1.00  0.00     0.127 C 
BRANCH  15  16
HETATM   16  C   UNL     1      25.936  44.789  53.491  1.00  0.00     0.060 C 
BRANCH  16  17
HETATM   17  C   UNL     1      27.163  43.970  53.753  1.00  0.00    -0.029 A 
HETATM   18  C   UNL     1      28.295  44.329  54.555  1.00  0.00    -0.002 A 
HETATM   19  C   UNL     1      28.642  45.465  55.317  1.00  0.00     0.014 A 
HETATM   20  C   UNL     1      29.196  43.264  54.508  1.00  0.00     0.042 A 
HETATM   21  C   UNL     1      29.867  45.493  55.997  1.00  0.00     0.001 A 
HETATM   22  C   UNL     1      30.742  44.413  55.929  1.00  0.00     0.002 A 
HETATM   23  C   UNL     1      30.422  43.275  55.182  1.00  0.00     0.030 A 
HETATM   24  N   UNL     1      28.636  42.295  53.710  1.00  0.00    -0.365 N 
HETATM   25  H   UNL     1      29.069  41.407  53.496  1.00  0.00     0.165 HD
HETATM   26  C   UNL     1      27.417  42.709  53.247  1.00  0.00     0.096 A 
ENDBRANCH  16  17
ENDBRANCH  15  16
ENDBRANCH  12  15
ENDBRANCH   1  11
BRANCH   8  27
HETATM   27  C   UNL     1      23.624  50.550  48.380  1.00  0.00     0.409 C 
HETATM   28  F   UNL     1      24.938  50.349  48.622  1.00  0.00    -0.169 F 
HETATM   29  F   UNL     1      23.399  50.305  47.074  1.00  0.00    -0.169 F 
HETATM   30  F   UNL     1      23.400  51.879  48.565  1.00  0.00    -0.169 F 
ENDBRANCH   8  27
BRANCH   6  31
HETATM   31  C   UNL     1      19.247  48.956  47.896  1.00  0.00    -0.033 A 
HETATM   32  C   UNL     1      18.326  49.394  46.930  1.00  0.00     0.049 A 
HETATM   33  C   UNL     1      17.001  49.038  47.085  1.00  0.00     0.105 A 
HETATM   34  C   UNL     1      16.569  48.280  48.148  1.00  0.00     0.105 A 
HETATM   35  O   UNL     1      15.987  49.372  46.243  1.00  0.00    -0.323 OA
HETATM   36  O   UNL     1      15.230  48.043  48.110  1.00  0.00    -0.323 OA
HETATM   37  C   UNL     1      17.435  47.825  49.114  1.00  0.00     0.040 A 
HETATM   38  C   UNL     1      14.869  48.727  46.894  1.00  0.00     0.352 A 
HETATM   39  C   UNL     1      18.784  48.162  48.979  1.00  0.00     0.012 A 
ENDBRANCH   6  31
TORSDOF 6
ENDMDL
MODEL 6
REMARK VINA RESULT:     -10.3      3.654      5.031
REMARK  6 active torsions:
REMARK  status: ('A' for Active; 'I' for Inactive)
REMARK    1  A    between atoms: C_8  and  C_9 
REMARK    2  A    between atoms: C_9  and  C_10 
REMARK    3  A    between atoms: C_10  and  N_11 
REMARK       I    between atoms: N_11  and  C_12 
REMARK    4  A    between atoms: C_12  and  C_13 
REMARK    5  A    between atoms: C_18  and  C_19 
REMARK    6  A    between atoms: C_29  and  C_30 
ROOT
HETATM    1  C   UNL     1      22.596  44.193  49.401  1.00  0.00     0.148 C 
HETATM    2  N   UNL     1      23.564  45.131  49.544  1.00  0.00    -0.165 NA
HETATM    3  N   UNL     1      24.479  44.510  50.307  1.00  0.00    -0.240 N 
HETATM    4  C   UNL     1      24.217  43.190  50.530  1.00  0.00     0.123 C 
HETATM    5  N   UNL     1      25.122  42.403  51.144  1.00  0.00    -0.366 N 
HETATM    6  C   UNL     1      26.547  42.746  51.174  1.00  0.00     0.118 C 
HETATM    7  C   UNL     1      26.858  44.138  50.568  1.00  0.00     0.066 C 
HETATM    8  C   UNL     1      25.710  45.142  50.731  1.00  0.00     0.221 C 
HETATM    9  C   UNL     1      22.964  42.969  50.030  1.00  0.00     0.088 C 
HETATM   10  H   UNL     1      24.927  41.409  51.265  1.00  0.00     0.161 HD
ENDROOT
BRANCH   1  11
HETATM   11  C   UNL     1      21.355  44.447  48.654  1.00  0.00     0.272 C 
HETATM   12  N   UNL     1      20.503  45.323  49.287  1.00  0.00    -0.355 N 
HETATM   13  H   UNL     1      20.874  45.775  50.118  1.00  0.00     0.162 HD
HETATM   14  O   UNL     1      21.119  43.940  47.562  1.00  0.00    -0.266 OA
BRANCH  12  15
HETATM   15  C   UNL     1      19.269  45.764  48.676  1.00  0.00     0.127 C 
BRANCH  15  16
HETATM   16  C   UNL     1      19.407  47.090  47.928  1.00  0.00     0.060 C 
BRANCH  16  17
HETATM   17  C   UNL     1      19.836  48.220  48.814  1.00  0.00    -0.029 A 
HETATM   18  C   UNL     1      20.974  49.074  48.647  1.00  0.00    -0.002 A 
HETATM   19  C   UNL     1      22.007  49.164  47.689  1.00  0.00     0.014 A 
HETATM   20  C   UNL     1      20.979  49.977  49.712  1.00  0.00     0.042 A 
HETATM   21  C   UNL     1      22.997  50.145  47.831  1.00  0.00     0.001 A 
HETATM   22  C   UNL     1      22.972  51.029  48.906  1.00  0.00     0.002 A 
HETATM   23  C   UNL     1      21.960  50.963  49.867  1.00  0.00     0.030 A 
HETATM   24  N   UNL     1      19.888  49.685  50.496  1.00  0.00    -0.365 N 
HETATM   25  H   UNL     1      19.641  50.181  51.341  1.00  0.00     0.165 HD
HETATM   26  C   UNL     1      19.196  48.628  49.969  1.00  0.00     0.096 A 
ENDBRANCH  16  17
ENDBRANCH  15  16
ENDBRANCH  12  15
ENDBRANCH   1  11
BRANCH   8  27
HETATM   27  C   UNL     1      25.578  45.653  52.147  1.00  0.00     0.409 C 
HETATM   28  F   UNL     1      25.241  46.960  52.193  1.00  0.00    -0.169 F 
HETATM   29  F   UNL     1      24.691  44.967  52.894  1.00  0.00    -0.169 F 
HETATM   30  F   UNL     1      26.778  45.544  52.779  1.00  0.00    -0.169 F 
ENDBRANCH   8  27
BRANCH   6  31
HETATM   31  C   UNL     1      27.311  41.651  50.439  1.00  0.00    -0.033 A 
HETATM   32  C   UNL     1      28.031  40.679  51.154  1.00  0.00     0.049 A 
HETATM   33  C   UNL     1      28.688  39.699  50.436  1.00  0.00     0.105 A 
HETATM   34  C   UNL     1      28.657  39.655  49.062  1.00  0.00     0.105 A 
HETATM   35  O   UNL     1      29.422  38.685  50.969  1.00  0.00    -0.323 OA
HETATM   36  O   UNL     1      29.368  38.612  48.557  1.00  0.00    -0.323 OA
HETATM   37  C   UNL     1      27.961  40.582  48.323  1.00  0.00     0.040 A 
HETATM   38  C   UNL     1      29.839  37.993  49.771  1.00  0.00     0.352 A 
HETATM   39  C   UNL     1      27.279  41.581  49.021  1.00  0.00     0.012 A 
ENDBRANCH   6  31
TORSDOF 6
ENDMDL
MODEL 7
REMARK VINA RESULT:     -10.2      4.933      9.114
REMARK  6 active torsions:
REMARK  status: ('A' for Active; 'I' for Inactive)
REMARK    1  A    between atoms: C_8  and  C_9 
REMARK    2  A    between atoms: C_9  and  C_10 
REMARK    3  A    between atoms: C_10  and  N_11 
REMARK       I    between atoms: N_11  and  C_12 
REMARK    4  A    between atoms: C_12  and  C_13 
REMARK    5  A    between atoms: C_18  and  C_19 
REMARK    6  A    between atoms: C_29  and  C_30 
ROOT
HETATM    1  C   UNL     1      27.130  41.831  48.931  1.00  0.00     0.148 C 
HETATM    2  N   UNL     1      26.705  43.117  48.921  1.00  0.00    -0.165 NA
HETATM    3  N   UNL     1      26.424  43.355  50.212  1.00  0.00    -0.240 N 
HETATM    4  C   UNL     1      26.785  42.348  51.058  1.00  0.00     0.123 C 
HETATM    5  N   UNL     1      26.709  42.509  52.393  1.00  0.00    -0.366 N 
HETATM    6  C   UNL     1      26.709  43.839  53.010  1.00  0.00     0.118 C 
HETATM    7  C   UNL     1      26.660  44.995  51.980  1.00  0.00     0.066 C 
HETATM    8  C   UNL     1      25.921  44.626  50.687  1.00  0.00     0.221 C 
HETATM    9  C   UNL     1      27.169  41.309  50.256  1.00  0.00     0.088 C 
HETATM   10  H   UNL     1      27.023  41.760  53.011  1.00  0.00     0.161 HD
ENDROOT
BRANCH   1  11
HETATM   11  C   UNL     1      27.521  41.118  47.705  1.00  0.00     0.272 C 
HETATM   12  N   UNL     1      26.606  40.173  47.305  1.00  0.00    -0.355 N 
HETATM   13  H   UNL     1      25.731  40.161  47.821  1.00  0.00     0.162 HD
HETATM   14  O   UNL     1      28.556  41.365  47.093  1.00  0.00    -0.266 OA
BRANCH  12  15
HETATM   15  C   UNL     1      26.768  39.425  46.078  1.00  0.00     0.127 C 
BRANCH  15  16
HETATM   16  C   UNL     1      27.775  38.281  46.197  1.00  0.00     0.060 C 
BRANCH  16  17
HETATM   17  C   UNL     1      27.704  37.573  47.515  1.00  0.00    -0.029 A 
HETATM   18  C   UNL     1      28.620  37.680  48.612  1.00  0.00    -0.002 A 
HETATM   19  C   UNL     1      29.805  38.412  48.838  1.00  0.00     0.014 A 
HETATM   20  C   UNL     1      28.158  36.839  49.626  1.00  0.00     0.042 A 
HETATM   21  C   UNL     1      30.477  38.277  50.060  1.00  0.00     0.001 A 
HETATM   22  C   UNL     1      29.989  37.429  51.050  1.00  0.00     0.002 A 
HETATM   23  C   UNL     1      28.818  36.693  50.852  1.00  0.00     0.030 A 
HETATM   24  N   UNL     1      27.007  36.244  49.166  1.00  0.00    -0.365 N 
HETATM   25  H   UNL     1      26.455  35.581  49.693  1.00  0.00     0.165 HD
HETATM   26  C   UNL     1      26.727  36.673  47.898  1.00  0.00     0.096 A 
ENDBRANCH  16  17
ENDBRANCH  15  16
ENDBRANCH  12  15
ENDBRANCH   1  11
BRANCH   8  27
HETATM   27  C   UNL     1      24.422  44.564  50.869  1.00  0.00     0.409 C 
HETATM   28  F   UNL     1      23.765  45.379  50.015  1.00  0.00    -0.169 F 
HETATM   29  F   UNL     1      23.908  43.325  50.741  1.00  0.00    -0.169 F 
HETATM   30  F   UNL     1      24.101  44.985  52.123  1.00  0.00    -0.169 F 
ENDBRANCH   8  27
BRANCH   6  31
HETATM   31  C   UNL     1      27.945  43.949  53.893  1.00  0.00    -0.033 A 
HETATM   32  C   UNL     1      28.055  44.976  54.845  1.00  0.00     0.049 A 
HETATM   33  C   UNL     1      29.190  45.016  55.631  1.00  0.00     0.105 A 
HETATM   34  C   UNL     1      30.199  44.091  55.503  1.00  0.00     0.105 A 
HETATM   35  O   UNL     1      29.451  45.934  56.600  1.00  0.00    -0.323 OA
HETATM   36  O   UNL     1      31.223  44.312  56.371  1.00  0.00    -0.323 OA
HETATM   37  C   UNL     1      30.132  43.067  54.588  1.00  0.00     0.040 A 
HETATM   38  C   UNL     1      30.737  45.473  57.072  1.00  0.00     0.352 A 
HETATM   39  C   UNL     1      28.992  42.995  53.784  1.00  0.00     0.012 A 
ENDBRANCH   6  31
TORSDOF 6
ENDMDL
MODEL 8
REMARK VINA RESULT:     -10.1      3.434      4.431
REMARK  6 active torsions:
REMARK  status: ('A' for Active; 'I' for Inactive)
REMARK    1  A    between atoms: C_8  and  C_9 
REMARK    2  A    between atoms: C_9  and  C_10 
REMARK    3  A    between atoms: C_10  and  N_11 
REMARK       I    between atoms: N_11  and  C_12 
REMARK    4  A    between atoms: C_12  and  C_13 
REMARK    5  A    between atoms: C_18  and  C_19 
REMARK    6  A    between atoms: C_29  and  C_30 
ROOT
HETATM    1  C   UNL     1      24.789  46.295  50.687  1.00  0.00     0.148 C 
HETATM    2  N   UNL     1      25.854  46.498  51.501  1.00  0.00    -0.165 NA
HETATM    3  N   UNL     1      26.103  45.272  51.988  1.00  0.00    -0.240 N 
HETATM    4  C   UNL     1      25.357  44.282  51.419  1.00  0.00     0.123 C 
HETATM    5  N   UNL     1      25.606  42.987  51.693  1.00  0.00    -0.366 N 
HETATM    6  C   UNL     1      26.911  42.543  52.193  1.00  0.00     0.118 C 
HETATM    7  C   UNL     1      27.883  43.710  52.496  1.00  0.00     0.066 C 
HETATM    8  C   UNL     1      27.171  44.999  52.925  1.00  0.00     0.221 C 
HETATM    9  C   UNL     1      24.436  44.917  50.631  1.00  0.00     0.088 C 
HETATM   10  H   UNL     1      25.066  42.259  51.226  1.00  0.00     0.161 HD
ENDROOT
BRANCH   1  11
HETATM   11  C   UNL     1      24.138  47.389  49.950  1.00  0.00     0.272 C 
HETATM   12  N   UNL     1      23.076  46.975  49.180  1.00  0.00    -0.355 N 
HETATM   13  H   UNL     1      22.795  46.007  49.301  1.00  0.00     0.162 HD
HETATM   14  O   UNL     1      24.500  48.559  50.037  1.00  0.00    -0.266 OA
BRANCH  12  15
HETATM   15  C   UNL     1      22.254  47.912  48.447  1.00  0.00     0.127 C 
BRANCH  15  16
HETATM   16  C   UNL     1      20.762  47.588  48.514  1.00  0.00     0.060 C 
BRANCH  16  17
HETATM   17  C   UNL     1      19.914  48.582  47.780  1.00  0.00    -0.029 A 
HETATM   18  C   UNL     1      19.576  49.912  48.192  1.00  0.00    -0.002 A 
HETATM   19  C   UNL     1      19.882  50.701  49.321  1.00  0.00     0.014 A 
HETATM   20  C   UNL     1      18.765  50.464  47.199  1.00  0.00     0.042 A 
HETATM   21  C   UNL     1      19.369  52.001  49.414  1.00  0.00     0.001 A 
HETATM   22  C   UNL     1      18.563  52.521  48.406  1.00  0.00     0.002 A 
HETATM   23  C   UNL     1      18.246  51.761  47.276  1.00  0.00     0.030 A 
HETATM   24  N   UNL     1      18.615  49.509  46.221  1.00  0.00    -0.365 N 
HETATM   25  H   UNL     1      18.073  49.634  45.377  1.00  0.00     0.165 HD
HETATM   26  C   UNL     1      19.296  48.372  46.561  1.00  0.00     0.096 A 
ENDBRANCH  16  17
ENDBRANCH  15  16
ENDBRANCH  12  15
ENDBRANCH   1  11
BRANCH   8  27
HETATM   27  C   UNL     1      26.629  44.925  54.334  1.00  0.00     0.409 C 
HETATM   28  F   UNL     1      26.565  43.657  54.795  1.00  0.00    -0.169 F 
HETATM   29  F   UNL     1      27.324  45.658  55.226  1.00  0.00    -0.169 F 
HETATM   30  F   UNL     1      25.355  45.404  54.354  1.00  0.00    -0.169 F 
ENDBRANCH   8  27
BRANCH   6  31
HETATM   31  C   UNL     1      27.509  41.589  51.167  1.00  0.00    -0.033 A 
HETATM   32  C   UNL     1      28.283  40.491  51.577  1.00  0.00     0.049 A 
HETATM   33  C   UNL     1      28.784  39.649  50.604  1.00  0.00     0.105 A 
HETATM   34  C   UNL     1      28.550  39.859  49.265  1.00  0.00     0.105 A 
HETATM   35  O   UNL     1      29.543  38.542  50.827  1.00  0.00    -0.323 OA
HETATM   36  O   UNL     1      29.132  38.915  48.479  1.00  0.00    -0.323 OA
HETATM   37  C   UNL     1      27.794  40.918  48.819  1.00  0.00     0.040 A 
HETATM   38  C   UNL     1      29.749  38.076  49.475  1.00  0.00     0.352 A 
HETATM   39  C   UNL     1      27.266  41.783  49.781  1.00  0.00     0.012 A 
ENDBRANCH   6  31
TORSDOF 6
ENDMDL
MODEL 9
REMARK VINA RESULT:      -9.9      4.064     11.013
REMARK  6 active torsions:
REMARK  status: ('A' for Active; 'I' for Inactive)
REMARK    1  A    between atoms: C_8  and  C_9 
REMARK    2  A    between atoms: C_9  and  C_10 
REMARK    3  A    between atoms: C_10  and  N_11 
REMARK       I    between atoms: N_11  and  C_12 
REMARK    4  A    between atoms: C_12  and  C_13 
REMARK    5  A    between atoms: C_18  and  C_19 
REMARK    6  A    between atoms: C_29  and  C_30 
ROOT
HETATM    1  C   UNL     1      22.361  46.613  48.690  1.00  0.00     0.148 C 
HETATM    2  N   UNL     1      22.942  47.614  49.395  1.00  0.00    -0.165 NA
HETATM    3  N   UNL     1      22.412  48.720  48.847  1.00  0.00    -0.240 N 
HETATM    4  C   UNL     1      21.421  48.475  47.942  1.00  0.00     0.123 C 
HETATM    5  N   UNL     1      20.692  49.485  47.430  1.00  0.00    -0.366 N 
HETATM    6  C   UNL     1      20.572  50.775  48.116  1.00  0.00     0.118 C 
HETATM    7  C   UNL     1      21.465  50.885  49.377  1.00  0.00     0.066 C 
HETATM    8  C   UNL     1      22.752  50.056  49.285  1.00  0.00     0.221 C 
HETATM    9  C   UNL     1      21.417  47.121  47.751  1.00  0.00     0.088 C 
HETATM   10  H   UNL     1      19.927  49.280  46.786  1.00  0.00     0.161 HD
ENDROOT
BRANCH   1  11
HETATM   11  C   UNL     1      22.675  45.196  48.925  1.00  0.00     0.272 C 
HETATM   12  N   UNL     1      23.589  44.997  49.935  1.00  0.00    -0.355 N 
HETATM   13  H   UNL     1      23.842  45.824  50.468  1.00  0.00     0.162 HD
HETATM   14  O   UNL     1      22.152  44.283  48.293  1.00  0.00    -0.266 OA
BRANCH  12  15
HETATM   15  C   UNL     1      23.965  43.672  50.374  1.00  0.00     0.127 C 
BRANCH  15  16
HETATM   16  C   UNL     1      25.271  43.177  49.751  1.00  0.00     0.060 C 
BRANCH  16  17
HETATM   17  C   UNL     1      26.047  42.274  50.660  1.00  0.00    -0.029 A 
HETATM   18  C   UNL     1      26.980  42.656  51.678  1.00  0.00    -0.002 A 
HETATM   19  C   UNL     1      27.466  43.891  52.156  1.00  0.00     0.014 A 
HETATM   20  C   UNL     1      27.461  41.484  52.265  1.00  0.00     0.042 A 
HETATM   21  C   UNL     1      28.407  43.909  53.194  1.00  0.00     0.001 A 
HETATM   22  C   UNL     1      28.866  42.721  53.757  1.00  0.00     0.002 A 
HETATM   23  C   UNL     1      28.400  41.484  53.303  1.00  0.00     0.030 A 
HETATM   24  N   UNL     1      26.846  40.431  51.631  1.00  0.00    -0.365 N 
HETATM   25  H   UNL     1      27.005  39.458  51.851  1.00  0.00     0.165 HD
HETATM   26  C   UNL     1      25.998  40.893  50.661  1.00  0.00     0.096 A 
ENDBRANCH  16  17
ENDBRANCH  15  16
ENDBRANCH  12  15
ENDBRANCH   1  11
BRANCH   8  27
HETATM   27  C   UNL     1      23.776  50.669  48.357  1.00  0.00     0.409 C 
HETATM   28  F   UNL     1      23.778  50.089  47.137  1.00  0.00    -0.169 F 
HETATM   29  F   UNL     1      23.631  51.998  48.186  1.00  0.00    -0.169 F 
HETATM   30  F   UNL     1      25.021  50.482  48.872  1.00  0.00    -0.169 F 
ENDBRANCH   8  27
BRANCH   6  31
HETATM   31  C   UNL     1      19.105  50.986  48.469  1.00  0.00    -0.033 A 
HETATM   32  C   UNL     1      18.699  52.124  49.187  1.00  0.00     0.049 A 
HETATM   33  C   UNL     1      17.354  52.273  49.462  1.00  0.00     0.105 A 
HETATM   34  C   UNL     1      16.419  51.348  49.060  1.00  0.00     0.105 A 
HETATM   35  O   UNL     1      16.793  53.312  50.137  1.00  0.00    -0.323 OA
HETATM   36  O   UNL     1      15.156  51.686  49.432  1.00  0.00    -0.323 OA
HETATM   37  C   UNL     1      16.771  50.223  48.351  1.00  0.00     0.040 A 
HETATM   38  C   UNL     1      15.398  52.938  50.103  1.00  0.00     0.352 A 
HETATM   39  C   UNL     1      18.124  50.048  48.050  1.00  0.00     0.012 A 
ENDBRANCH   6  31
TORSDOF 6
ENDMDL
MODEL 10
REMARK VINA RESULT:      -9.7      3.162      4.146
REMARK  6 active torsions:
REMARK  status: ('A' for Active; 'I' for Inactive)
REMARK    1  A    between atoms: C_8  and  C_9 
REMARK    2  A    between atoms: C_9  and  C_10 
REMARK    3  A    between atoms: C_10  and  N_11 
REMARK       I    between atoms: N_11  and  C_12 
REMARK    4  A    between atoms: C_12  and  C_13 
REMARK    5  A    between atoms: C_18  and  C_19 
REMARK    6  A    between atoms: C_29  and  C_30 
ROOT
HETATM    1  C   UNL     1      24.947  43.725  50.666  1.00  0.00     0.148 C 
HETATM    2  N   UNL     1      25.117  42.435  51.045  1.00  0.00    -0.165 NA
HETATM    3  N   UNL     1      26.428  42.371  51.330  1.00  0.00    -0.240 N 
HETATM    4  C   UNL     1      27.066  43.576  51.296  1.00  0.00     0.123 C 
HETATM    5  N   UNL     1      28.342  43.691  51.711  1.00  0.00    -0.366 N 
HETATM    6  C   UNL     1      28.947  42.718  52.626  1.00  0.00     0.118 C 
HETATM    7  C   UNL     1      28.027  41.510  52.933  1.00  0.00     0.066 C 
HETATM    8  C   UNL     1      27.079  41.159  51.779  1.00  0.00     0.221 C 
HETATM    9  C   UNL     1      26.158  44.464  50.788  1.00  0.00     0.088 C 
HETATM   10  H   UNL     1      28.790  44.608  51.719  1.00  0.00     0.161 HD
ENDROOT
BRANCH   1  11
HETATM   11  C   UNL     1      23.648  44.253  50.223  1.00  0.00     0.272 C 
HETATM   12  N   UNL     1      23.754  45.361  49.414  1.00  0.00    -0.355 N 
HETATM   13  H   UNL     1      24.696  45.606  49.125  1.00  0.00     0.162 HD
HETATM   14  O   UNL     1      22.578  43.736  50.532  1.00  0.00    -0.266 OA
BRANCH  12  15
HETATM   15  C   UNL     1      22.594  45.977  48.809  1.00  0.00     0.127 C 
BRANCH  15  16
HETATM   16  C   UNL     1      22.045  45.191  47.618  1.00  0.00     0.060 C 
BRANCH  16  17
HETATM   17  C   UNL     1      20.547  45.167  47.574  1.00  0.00    -0.029 A 
HETATM   18  C   UNL     1      19.644  46.111  48.161  1.00  0.00    -0.002 A 
HETATM   19  C   UNL     1      19.806  47.290  48.920  1.00  0.00     0.014 A 
HETATM   20  C   UNL     1      18.346  45.686  47.869  1.00  0.00     0.042 A 
HETATM   21  C   UNL     1      18.675  47.993  49.354  1.00  0.00     0.001 A 
HETATM   22  C   UNL     1      17.395  47.541  49.045  1.00  0.00     0.002 A 
HETATM   23  C   UNL     1      17.206  46.377  48.295  1.00  0.00     0.030 A 
HETATM   24  N   UNL     1      18.455  44.529  47.134  1.00  0.00    -0.365 N 
HETATM   25  H   UNL     1      17.671  43.998  46.783  1.00  0.00     0.165 HD
HETATM   26  C   UNL     1      19.772  44.205  46.954  1.00  0.00     0.096 A 
ENDBRANCH  16  17
ENDBRANCH  15  16
ENDBRANCH  12  15
ENDBRANCH   1  11
BRANCH   8  27
HETATM   27  C   UNL     1      27.786  40.484  50.627  1.00  0.00     0.409 C 
HETATM   28  F   UNL     1      27.033  39.519  50.055  1.00  0.00    -0.169 F 
HETATM   29  F   UNL     1      28.183  41.332  49.657  1.00  0.00    -0.169 F 
HETATM   30  F   UNL     1      28.911  39.871  51.084  1.00  0.00    -0.169 F 
ENDBRANCH   8  27
BRANCH   6  31
HETATM   31  C   UNL     1      29.328  43.449  53.907  1.00  0.00    -0.033 A 
HETATM   32  C   UNL     1      30.323  42.935  54.755  1.00  0.00     0.049 A 
HETATM   33  C   UNL     1      30.642  43.650  55.892  1.00  0.00     0.105 A 
HETATM   34  C   UNL     1      30.016  44.832  56.211  1.00  0.00     0.105 A 
HETATM   35  O   UNL     1      31.580  43.299  56.812  1.00  0.00    -0.323 OA
HETATM   36  O   UNL     1      30.478  45.372  57.370  1.00  0.00    -0.323 OA
HETATM   37  C   UNL     1      29.040  45.375  55.408  1.00  0.00     0.040 A 
HETATM   38  C   UNL     1      31.478  44.403  57.740  1.00  0.00     0.352 A 
HETATM   39  C   UNL     1      28.702  44.679  54.245  1.00  0.00     0.012 A 
ENDBRANCH   6  31
TORSDOF 6
ENDMDL
