MODEL 1
REMARK VINA RESULT:      -8.1      0.000      0.000
REMARK  4 active torsions:
REMARK  status: ('A' for Active; 'I' for Inactive)
REMARK    1  A    between atoms: N_2  and  C_4 
REMARK    2  A    between atoms: C_4  and  C_5 
REMARK    3  A    between atoms: C_8  and  C_9 
REMARK       I    between atoms: C_9  and  N_10 
REMARK    4  A    between atoms: N_10  and  C_11 
ROOT
HETATM    1  C   UNL     1      21.472  50.649  49.998  1.00  0.00     0.269 C 
HETATM    2  N   UNL     1      21.890  49.542  49.286  1.00  0.00    -0.153 N 
HETATM    3  O   UNL     1      22.096  51.279  50.843  1.00  0.00    -0.267 OA
HETATM    4  H   UNL     1      21.221  48.984  48.780  1.00  0.00     0.187 HD
ENDROOT
BRANCH   1   5
HETATM    5  C   UNL     1      20.089  51.111  49.701  1.00  0.00     0.032 A 
HETATM    6  C   UNL     1      19.907  52.057  48.685  1.00  0.00     0.017 A 
HETATM    7  C   UNL     1      18.621  52.416  48.274  1.00  0.00     0.010 A 
HETATM    8  C   UNL     1      17.498  51.821  48.866  1.00  0.00    -0.033 A 
HETATM    9  C   UNL     1      17.683  50.895  49.905  1.00  0.00     0.010 A 
HETATM   10  C   UNL     1      18.972  50.537  50.318  1.00  0.00     0.017 A 
BRANCH   8  11
HETATM   11  C   UNL     1      16.118  52.109  48.332  1.00  0.00     0.272 C 
BRANCH  11  12
HETATM   12  N   UNL     1      15.655  53.520  48.628  1.00  0.00    -0.075 N 
HETATM   13  C   UNL     1      15.514  53.803  50.101  1.00  0.00     0.269 C 
HETATM   14  H   UNL     1      16.391  54.149  48.284  1.00  0.00     0.279 HD
HETATM   15  C   UNL     1      14.398  53.860  47.881  1.00  0.00     0.269 C 
ENDBRANCH  11  12
ENDBRANCH   8  11
ENDBRANCH   1   5
BRANCH   2  16
HETATM   16  C   UNL     1      23.215  49.177  49.253  1.00  0.00     0.708 A 
HETATM   17  N   UNL     1      23.778  48.112  49.772  1.00  0.00    -0.062 NA
HETATM   18  C   UNL     1      25.124  48.239  49.542  1.00  0.00     0.103 A 
HETATM   19  C   UNL     1      25.397  49.417  48.857  1.00  0.00     0.078 A 
HETATM   20  C   UNL     1      26.180  47.391  49.898  1.00  0.00     0.034 A 
HETATM   21  N   UNL     1      24.163  49.987  48.674  1.00  0.00    -0.187 N 
HETATM   22  C   UNL     1      26.685  49.815  48.498  1.00  0.00     0.032 A 
HETATM   23  H   UNL     1      23.990  50.859  48.200  1.00  0.00     0.184 HD
HETATM   24  C   UNL     1      27.730  48.959  48.867  1.00  0.00     0.002 A 
HETATM   25  C   UNL     1      27.485  47.766  49.553  1.00  0.00     0.002 A 
ENDBRANCH   2  16
TORSDOF 4
ENDMDL
MODEL 2
REMARK VINA RESULT:      -8.1      5.936      8.846
REMARK  4 active torsions:
REMARK  status: ('A' for Active; 'I' for Inactive)
REMARK    1  A    between atoms: N_2  and  C_4 
REMARK    2  A    between atoms: C_4  and  C_5 
REMARK    3  A    between atoms: C_8  and  C_9 
REMARK       I    between atoms: C_9  and  N_10 
REMARK    4  A    between atoms: N_10  and  C_11 
ROOT
HETATM    1  C   UNL     1      26.509  45.414  53.298  1.00  0.00     0.269 C 
HETATM    2  N   UNL     1      27.748  44.839  53.097  1.00  0.00    -0.153 N 
HETATM    3  O   UNL     1      25.944  45.634  54.362  1.00  0.00    -0.267 OA
HETATM    4  H   UNL     1      28.014  44.516  52.181  1.00  0.00     0.187 HD
ENDROOT
BRANCH   1   5
HETATM    5  C   UNL     1      25.777  45.796  52.059  1.00  0.00     0.032 A 
HETATM    6  C   UNL     1      24.833  44.900  51.541  1.00  0.00     0.017 A 
HETATM    7  C   UNL     1      24.023  45.271  50.466  1.00  0.00     0.010 A 
HETATM    8  C   UNL     1      24.135  46.550  49.902  1.00  0.00    -0.033 A 
HETATM    9  C   UNL     1      25.103  47.435  50.405  1.00  0.00     0.010 A 
HETATM   10  C   UNL     1      25.917  47.063  51.481  1.00  0.00     0.017 A 
BRANCH   8  11
HETATM   11  C   UNL     1      23.170  46.995  48.833  1.00  0.00     0.272 C 
BRANCH  11  12
HETATM   12  N   UNL     1      22.102  47.933  49.359  1.00  0.00    -0.075 N 
HETATM   13  C   UNL     1      20.729  47.632  48.819  1.00  0.00     0.269 C 
HETATM   14  H   UNL     1      22.052  47.780  50.373  1.00  0.00     0.279 HD
HETATM   15  C   UNL     1      22.473  49.372  49.146  1.00  0.00     0.269 C 
ENDBRANCH  11  12
ENDBRANCH   8  11
ENDBRANCH   1   5
BRANCH   2  16
HETATM   16  C   UNL     1      28.639  44.693  54.134  1.00  0.00     0.708 A 
HETATM   17  N   UNL     1      29.501  43.724  54.334  1.00  0.00    -0.062 NA
HETATM   18  C   UNL     1      30.101  43.988  55.538  1.00  0.00     0.103 A 
HETATM   19  C   UNL     1      29.597  45.158  56.094  1.00  0.00     0.078 A 
HETATM   20  C   UNL     1      31.082  43.267  56.230  1.00  0.00     0.034 A 
HETATM   21  N   UNL     1      28.678  45.592  55.172  1.00  0.00    -0.187 N 
HETATM   22  C   UNL     1      30.014  45.665  57.325  1.00  0.00     0.032 A 
HETATM   23  H   UNL     1      28.123  46.429  55.255  1.00  0.00     0.184 HD
HETATM   24  C   UNL     1      30.992  44.929  58.005  1.00  0.00     0.002 A 
HETATM   25  C   UNL     1      31.520  43.751  57.470  1.00  0.00     0.002 A 
ENDBRANCH   2  16
TORSDOF 4
ENDMDL
MODEL 3
REMARK VINA RESULT:      -7.7      3.367      9.852
REMARK  4 active torsions:
REMARK  status: ('A' for Active; 'I' for Inactive)
REMARK    1  A    between atoms: N_2  and  C_4 
REMARK    2  A    between atoms: C_4  and  C_5 
REMARK    3  A    between atoms: C_8  and  C_9 
REMARK       I    between atoms: C_9  and  N_10 
REMARK    4  A    between atoms: N_10  and  C_11 
ROOT
HETATM    1  C   UNL     1      24.710  47.696  49.829  1.00  0.00     0.269 C 
HETATM    2  N   UNL     1      23.432  47.252  49.553  1.00  0.00    -0.153 N 
HETATM    3  O   UNL     1      25.213  48.774  49.537  1.00  0.00    -0.267 OA
HETATM    4  H   UNL     1      23.203  46.276  49.652  1.00  0.00     0.187 HD
ENDROOT
BRANCH   1   5
HETATM    5  C   UNL     1      25.575  46.728  50.559  1.00  0.00     0.032 A 
HETATM    6  C   UNL     1      25.497  46.689  51.957  1.00  0.00     0.017 A 
HETATM    7  C   UNL     1      26.181  45.706  52.676  1.00  0.00     0.010 A 
HETATM    8  C   UNL     1      26.942  44.738  52.004  1.00  0.00    -0.033 A 
HETATM    9  C   UNL     1      27.042  44.799  50.604  1.00  0.00     0.010 A 
HETATM   10  C   UNL     1      26.359  45.785  49.884  1.00  0.00     0.017 A 
BRANCH   8  11
HETATM   11  C   UNL     1      27.568  43.601  52.769  1.00  0.00     0.272 C 
BRANCH  11  12
HETATM   12  N   UNL     1      28.976  43.910  53.235  1.00  0.00    -0.075 N 
HETATM   13  C   UNL     1      29.952  42.796  52.961  1.00  0.00     0.269 C 
HETATM   14  H   UNL     1      29.297  44.715  52.683  1.00  0.00     0.279 HD
HETATM   15  C   UNL     1      29.006  44.323  54.678  1.00  0.00     0.269 C 
ENDBRANCH  11  12
ENDBRANCH   8  11
ENDBRANCH   1   5
BRANCH   2  16
HETATM   16  C   UNL     1      22.453  48.123  49.138  1.00  0.00     0.708 A 
HETATM   17  N   UNL     1      21.600  47.977  48.153  1.00  0.00    -0.062 NA
HETATM   18  C   UNL     1      20.884  49.145  48.089  1.00  0.00     0.103 A 
HETATM   19  C   UNL     1      21.308  50.035  49.068  1.00  0.00     0.078 A 
HETATM   20  C   UNL     1      19.860  49.524  47.212  1.00  0.00     0.034 A 
HETATM   21  N   UNL     1      22.297  49.354  49.729  1.00  0.00    -0.187 N 
HETATM   22  C   UNL     1      20.766  51.311  49.231  1.00  0.00     0.032 A 
HETATM   23  H   UNL     1      22.822  49.707  50.513  1.00  0.00     0.184 HD
HETATM   24  C   UNL     1      19.747  51.676  48.342  1.00  0.00     0.002 A 
HETATM   25  C   UNL     1      19.298  50.800  47.350  1.00  0.00     0.002 A 
ENDBRANCH   2  16
TORSDOF 4
ENDMDL
MODEL 4
REMARK VINA RESULT:      -7.7     11.237     13.402
REMARK  4 active torsions:
REMARK  status: ('A' for Active; 'I' for Inactive)
REMARK    1  A    between atoms: N_2  and  C_4 
REMARK    2  A    between atoms: C_4  and  C_5 
REMARK    3  A    between atoms: C_8  and  C_9 
REMARK       I    between atoms: C_9  and  N_10 
REMARK    4  A    between atoms: N_10  and  C_11 
ROOT
HETATM    1  C   UNL     1      27.881  41.226  51.499  1.00  0.00     0.269 C 
HETATM    2  N   UNL     1      28.884  40.510  50.875  1.00  0.00    -0.153 N 
HETATM    3  O   UNL     1      26.694  41.274  51.202  1.00  0.00    -0.267 OA
HETATM    4  H   UNL     1      29.850  40.715  51.072  1.00  0.00     0.187 HD
ENDROOT
BRANCH   1   5
HETATM    5  C   UNL     1      28.316  42.047  52.662  1.00  0.00     0.032 A 
HETATM    6  C   UNL     1      29.688  42.174  52.911  1.00  0.00     0.017 A 
HETATM    7  C   UNL     1      30.150  43.044  53.902  1.00  0.00     0.010 A 
HETATM    8  C   UNL     1      29.243  43.812  54.648  1.00  0.00    -0.033 A 
HETATM    9  C   UNL     1      27.867  43.660  54.415  1.00  0.00     0.010 A 
HETATM   10  C   UNL     1      27.404  42.786  53.424  1.00  0.00     0.017 A 
BRANCH   8  11
HETATM   11  C   UNL     1      29.747  44.847  55.621  1.00  0.00     0.272 C 
BRANCH  11  12
HETATM   12  N   UNL     1      28.648  45.753  56.136  1.00  0.00    -0.075 N 
HETATM   13  C   UNL     1      28.425  46.968  55.274  1.00  0.00     0.269 C 
HETATM   14  H   UNL     1      27.777  45.209  56.097  1.00  0.00     0.279 HD
HETATM   15  C   UNL     1      28.868  46.132  57.572  1.00  0.00     0.269 C 
ENDBRANCH  11  12
ENDBRANCH   8  11
ENDBRANCH   1   5
BRANCH   2  16
HETATM   16  C   UNL     1      28.590  39.511  49.977  1.00  0.00     0.708 A 
HETATM   17  N   UNL     1      29.133  39.287  48.805  1.00  0.00    -0.062 NA
HETATM   18  C   UNL     1      28.449  38.230  48.261  1.00  0.00     0.103 A 
HETATM   19  C   UNL     1      27.457  37.789  49.127  1.00  0.00     0.078 A 
HETATM   20  C   UNL     1      28.611  37.597  47.023  1.00  0.00     0.034 A 
HETATM   21  N   UNL     1      27.578  38.613  50.217  1.00  0.00    -0.187 N 
HETATM   22  C   UNL     1      26.593  36.733  48.831  1.00  0.00     0.032 A 
HETATM   23  H   UNL     1      27.010  38.565  51.048  1.00  0.00     0.184 HD
HETATM   24  C   UNL     1      26.766  36.114  47.587  1.00  0.00     0.002 A 
HETATM   25  C   UNL     1      27.757  36.535  46.696  1.00  0.00     0.002 A 
ENDBRANCH   2  16
TORSDOF 4
ENDMDL
MODEL 5
REMARK VINA RESULT:      -7.4      5.791      8.637
REMARK  4 active torsions:
REMARK  status: ('A' for Active; 'I' for Inactive)
REMARK    1  A    between atoms: N_2  and  C_4 
REMARK    2  A    between atoms: C_4  and  C_5 
REMARK    3  A    between atoms: C_8  and  C_9 
REMARK       I    between atoms: C_9  and  N_10 
REMARK    4  A    between atoms: N_10  and  C_11 
ROOT
HETATM    1  C   UNL     1      25.971  44.573  52.632  1.00  0.00     0.269 C 
HETATM    2  N   UNL     1      27.313  44.349  52.392  1.00  0.00    -0.153 N 
HETATM    3  O   UNL     1      25.383  44.544  53.706  1.00  0.00    -0.267 OA
HETATM    4  H   UNL     1      27.639  44.190  51.452  1.00  0.00     0.187 HD
ENDROOT
BRANCH   1   5
HETATM    5  C   UNL     1      25.151  44.872  51.426  1.00  0.00     0.032 A 
HETATM    6  C   UNL     1      24.337  43.857  50.907  1.00  0.00     0.017 A 
HETATM    7  C   UNL     1      23.446  44.128  49.866  1.00  0.00     0.010 A 
HETATM    8  C   UNL     1      23.345  45.424  49.340  1.00  0.00    -0.033 A 
HETATM    9  C   UNL     1      24.184  46.432  49.843  1.00  0.00     0.010 A 
HETATM   10  C   UNL     1      25.079  46.160  50.883  1.00  0.00     0.017 A 
BRANCH   8  11
HETATM   11  C   UNL     1      22.291  45.745  48.312  1.00  0.00     0.272 C 
BRANCH  11  12
HETATM   12  N   UNL     1      21.380  46.878  48.739  1.00  0.00    -0.075 N 
HETATM   13  C   UNL     1      19.923  46.495  48.756  1.00  0.00     0.269 C 
HETATM   14  H   UNL     1      21.629  47.104  49.710  1.00  0.00     0.279 HD
HETATM   15  C   UNL     1      21.613  48.116  47.923  1.00  0.00     0.269 C 
ENDBRANCH  11  12
ENDBRANCH   8  11
ENDBRANCH   1   5
BRANCH   2  16
HETATM   16  C   UNL     1      28.225  44.337  53.420  1.00  0.00     0.708 A 
HETATM   17  N   UNL     1      29.159  43.449  53.667  1.00  0.00    -0.062 NA
HETATM   18  C   UNL     1      29.753  43.834  54.841  1.00  0.00     0.103 A 
HETATM   19  C   UNL     1      29.170  44.997  55.329  1.00  0.00     0.078 A 
HETATM   20  C   UNL     1      30.794  43.233  55.560  1.00  0.00     0.034 A 
HETATM   21  N   UNL     1      28.210  45.301  54.398  1.00  0.00    -0.187 N 
HETATM   22  C   UNL     1      29.564  45.612  56.518  1.00  0.00     0.032 A 
HETATM   23  H   UNL     1      27.595  46.099  54.437  1.00  0.00     0.184 HD
HETATM   24  C   UNL     1      30.603  44.996  57.227  1.00  0.00     0.002 A 
HETATM   25  C   UNL     1      31.210  43.828  56.758  1.00  0.00     0.002 A 
ENDBRANCH   2  16
TORSDOF 4
ENDMDL
MODEL 6
REMARK VINA RESULT:      -7.4      4.884      7.397
REMARK  4 active torsions:
REMARK  status: ('A' for Active; 'I' for Inactive)
REMARK    1  A    between atoms: N_2  and  C_4 
REMARK    2  A    between atoms: C_4  and  C_5 
REMARK    3  A    between atoms: C_8  and  C_9 
REMARK       I    between atoms: C_9  and  N_10 
REMARK    4  A    between atoms: N_10  and  C_11 
ROOT
HETATM    1  C   UNL     1      25.710  46.418  51.499  1.00  0.00     0.269 C 
HETATM    2  N   UNL     1      25.956  45.128  51.927  1.00  0.00    -0.153 N 
HETATM    3  O   UNL     1      26.227  47.454  51.897  1.00  0.00    -0.267 OA
HETATM    4  H   UNL     1      25.323  44.384  51.682  1.00  0.00     0.187 HD
ENDROOT
BRANCH   1   5
HETATM    5  C   UNL     1      24.678  46.548  50.435  1.00  0.00     0.032 A 
HETATM    6  C   UNL     1      24.095  45.380  49.925  1.00  0.00     0.017 A 
HETATM    7  C   UNL     1      23.026  45.456  49.030  1.00  0.00     0.010 A 
HETATM    8  C   UNL     1      22.514  46.702  48.643  1.00  0.00    -0.033 A 
HETATM    9  C   UNL     1      23.119  47.871  49.133  1.00  0.00     0.010 A 
HETATM   10  C   UNL     1      24.192  47.796  50.028  1.00  0.00     0.017 A 
BRANCH   8  11
HETATM   11  C   UNL     1      21.277  46.781  47.784  1.00  0.00     0.272 C 
BRANCH  11  12
HETATM   12  N   UNL     1      20.013  46.432  48.543  1.00  0.00    -0.075 N 
HETATM   13  C   UNL     1      19.238  45.301  47.918  1.00  0.00     0.269 C 
HETATM   14  H   UNL     1      20.308  46.100  49.469  1.00  0.00     0.279 HD
HETATM   15  C   UNL     1      19.145  47.638  48.760  1.00  0.00     0.269 C 
ENDBRANCH  11  12
ENDBRANCH   8  11
ENDBRANCH   1   5
BRANCH   2  16
HETATM   16  C   UNL     1      27.059  44.832  52.692  1.00  0.00     0.708 A 
HETATM   17  N   UNL     1      27.913  43.848  52.541  1.00  0.00    -0.062 NA
HETATM   18  C   UNL     1      28.785  43.931  53.596  1.00  0.00     0.103 A 
HETATM   19  C   UNL     1      28.460  45.002  54.419  1.00  0.00     0.078 A 
HETATM   20  C   UNL     1      29.877  43.119  53.925  1.00  0.00     0.034 A 
HETATM   21  N   UNL     1      27.366  45.566  53.813  1.00  0.00    -0.187 N 
HETATM   22  C   UNL     1      29.168  45.322  55.579  1.00  0.00     0.032 A 
HETATM   23  H   UNL     1      26.871  46.378  54.145  1.00  0.00     0.184 HD
HETATM   24  C   UNL     1      30.253  44.496  55.896  1.00  0.00     0.002 A 
HETATM   25  C   UNL     1      30.606  43.414  55.085  1.00  0.00     0.002 A 
ENDBRANCH   2  16
TORSDOF 4
ENDMDL
MODEL 7
REMARK VINA RESULT:      -7.4     11.244     12.689
REMARK  4 active torsions:
REMARK  status: ('A' for Active; 'I' for Inactive)
REMARK    1  A    between atoms: N_2  and  C_4 
REMARK    2  A    between atoms: C_4  and  C_5 
REMARK    3  A    between atoms: C_8  and  C_9 
REMARK       I    between atoms: C_9  and  N_10 
REMARK    4  A    between atoms: N_10  and  C_11 
ROOT
HETATM    1  C   UNL     1      28.698  41.917  52.671  1.00  0.00     0.269 C 
HETATM    2  N   UNL     1      29.305  43.149  52.813  1.00  0.00    -0.153 N 
HETATM    3  O   UNL     1      28.550  41.049  53.521  1.00  0.00    -0.267 OA
HETATM    4  H   UNL     1      29.557  43.686  51.998  1.00  0.00     0.187 HD
ENDROOT
BRANCH   1   5
HETATM    5  C   UNL     1      28.177  41.618  51.309  1.00  0.00     0.032 A 
HETATM    6  C   UNL     1      28.362  40.328  50.794  1.00  0.00     0.017 A 
HETATM    7  C   UNL     1      27.771  39.958  49.584  1.00  0.00     0.010 A 
HETATM    8  C   UNL     1      26.973  40.870  48.878  1.00  0.00    -0.033 A 
HETATM    9  C   UNL     1      26.815  42.172  49.382  1.00  0.00     0.010 A 
HETATM   10  C   UNL     1      27.409  42.544  50.593  1.00  0.00     0.017 A 
BRANCH   8  11
HETATM   11  C   UNL     1      26.228  40.429  47.644  1.00  0.00     0.272 C 
BRANCH  11  12
HETATM   12  N   UNL     1      26.645  41.190  46.403  1.00  0.00    -0.075 N 
HETATM   13  C   UNL     1      25.752  40.931  45.218  1.00  0.00     0.269 C 
HETATM   14  H   UNL     1      26.547  42.188  46.623  1.00  0.00     0.279 HD
HETATM   15  C   UNL     1      28.088  40.951  46.064  1.00  0.00     0.269 C 
ENDBRANCH  11  12
ENDBRANCH   8  11
ENDBRANCH   1   5
BRANCH   2  16
HETATM   16  C   UNL     1      29.580  43.667  54.056  1.00  0.00     0.708 A 
HETATM   17  N   UNL     1      29.073  44.736  54.622  1.00  0.00    -0.062 NA
HETATM   18  C   UNL     1      29.720  44.878  55.822  1.00  0.00     0.103 A 
HETATM   19  C   UNL     1      30.651  43.863  56.002  1.00  0.00     0.078 A 
HETATM   20  C   UNL     1      29.573  45.858  56.811  1.00  0.00     0.034 A 
HETATM   21  N   UNL     1      30.531  43.099  54.869  1.00  0.00    -0.187 N 
HETATM   22  C   UNL     1      31.468  43.761  57.130  1.00  0.00     0.032 A 
HETATM   23  H   UNL     1      31.062  42.266  54.671  1.00  0.00     0.184 HD
HETATM   24  C   UNL     1      31.312  44.752  58.106  1.00  0.00     0.002 A 
HETATM   25  C   UNL     1      30.381  45.783  57.954  1.00  0.00     0.002 A 
ENDBRANCH   2  16
TORSDOF 4
ENDMDL
MODEL 8
REMARK VINA RESULT:      -7.3      4.536      6.880
REMARK  4 active torsions:
REMARK  status: ('A' for Active; 'I' for Inactive)
REMARK    1  A    between atoms: N_2  and  C_4 
REMARK    2  A    between atoms: C_4  and  C_5 
REMARK    3  A    between atoms: C_8  and  C_9 
REMARK       I    between atoms: C_9  and  N_10 
REMARK    4  A    between atoms: N_10  and  C_11 
ROOT
HETATM    1  C   UNL     1      25.825  46.143  50.568  1.00  0.00     0.269 C 
HETATM    2  N   UNL     1      25.709  45.733  51.882  1.00  0.00    -0.153 N 
HETATM    3  O   UNL     1      26.847  46.253  49.902  1.00  0.00    -0.267 OA
HETATM    4  H   UNL     1      24.849  45.886  52.385  1.00  0.00     0.187 HD
ENDROOT
BRANCH   1   5
HETATM    5  C   UNL     1      24.546  46.504  49.898  1.00  0.00     0.032 A 
HETATM    6  C   UNL     1      24.232  47.861  49.749  1.00  0.00     0.017 A 
HETATM    7  C   UNL     1      23.116  48.251  49.006  1.00  0.00     0.010 A 
HETATM    8  C   UNL     1      22.306  47.288  48.387  1.00  0.00    -0.033 A 
HETATM    9  C   UNL     1      22.606  45.928  48.563  1.00  0.00     0.010 A 
HETATM   10  C   UNL     1      23.723  45.536  49.311  1.00  0.00     0.017 A 
BRANCH   8  11
HETATM   11  C   UNL     1      21.183  47.714  47.476  1.00  0.00     0.272 C 
BRANCH  11  12
HETATM   12  N   UNL     1      20.176  48.613  48.165  1.00  0.00    -0.075 N 
HETATM   13  C   UNL     1      19.313  47.885  49.162  1.00  0.00     0.269 C 
HETATM   14  H   UNL     1      20.717  49.302  48.702  1.00  0.00     0.279 HD
HETATM   15  C   UNL     1      19.346  49.377  47.174  1.00  0.00     0.269 C 
ENDBRANCH  11  12
ENDBRANCH   8  11
ENDBRANCH   1   5
BRANCH   2  16
HETATM   16  C   UNL     1      26.752  45.116  52.529  1.00  0.00     0.708 A 
HETATM   17  N   UNL     1      27.228  45.365  53.725  1.00  0.00    -0.062 NA
HETATM   18  C   UNL     1      28.313  44.543  53.885  1.00  0.00     0.103 A 
HETATM   19  C   UNL     1      28.509  43.761  52.754  1.00  0.00     0.078 A 
HETATM   20  C   UNL     1      29.191  44.414  54.969  1.00  0.00     0.034 A 
HETATM   21  N   UNL     1      27.494  44.137  51.912  1.00  0.00    -0.187 N 
HETATM   22  C   UNL     1      29.550  42.839  52.628  1.00  0.00     0.032 A 
HETATM   23  H   UNL     1      27.330  43.758  50.993  1.00  0.00     0.184 HD
HETATM   24  C   UNL     1      30.421  42.727  53.719  1.00  0.00     0.002 A 
HETATM   25  C   UNL     1      30.247  43.498  54.871  1.00  0.00     0.002 A 
ENDBRANCH   2  16
TORSDOF 4
ENDMDL
MODEL 9
REMARK VINA RESULT:      -7.2      3.136      9.542
REMARK  4 active torsions:
REMARK  status: ('A' for Active; 'I' for Inactive)
REMARK    1  A    between atoms: N_2  and  C_4 
REMARK    2  A    between atoms: C_4  and  C_5 
REMARK    3  A    between atoms: C_8  and  C_9 
REMARK       I    between atoms: C_9  and  N_10 
REMARK    4  A    between atoms: N_10  and  C_11 
ROOT
HETATM    1  C   UNL     1      23.648  47.904  49.712  1.00  0.00     0.269 C 
HETATM    2  N   UNL     1      22.338  47.696  49.330  1.00  0.00    -0.153 N 
HETATM    3  O   UNL     1      24.264  48.963  49.742  1.00  0.00    -0.267 OA
HETATM    4  H   UNL     1      22.008  46.763  49.142  1.00  0.00     0.187 HD
ENDROOT
BRANCH   1   5
HETATM    5  C   UNL     1      24.394  46.682  50.120  1.00  0.00     0.032 A 
HETATM    6  C   UNL     1      25.429  46.815  51.054  1.00  0.00     0.017 A 
HETATM    7  C   UNL     1      26.062  45.684  51.573  1.00  0.00     0.010 A 
HETATM    8  C   UNL     1      25.659  44.401  51.175  1.00  0.00    -0.033 A 
HETATM    9  C   UNL     1      24.640  44.273  50.217  1.00  0.00     0.010 A 
HETATM   10  C   UNL     1      24.007  45.406  49.694  1.00  0.00     0.017 A 
BRANCH   8  11
HETATM   11  C   UNL     1      26.249  43.181  51.835  1.00  0.00     0.272 C 
BRANCH  11  12
HETATM   12  N   UNL     1      26.853  42.210  50.841  1.00  0.00    -0.075 N 
HETATM   13  C   UNL     1      25.960  41.035  50.540  1.00  0.00     0.269 C 
HETATM   14  H   UNL     1      26.959  42.723  49.957  1.00  0.00     0.279 HD
HETATM   15  C   UNL     1      28.223  41.765  51.262  1.00  0.00     0.269 C 
ENDBRANCH  11  12
ENDBRANCH   8  11
ENDBRANCH   1   5
BRANCH   2  16
HETATM   16  C   UNL     1      21.461  48.747  49.196  1.00  0.00     0.708 A 
HETATM   17  N   UNL     1      21.564  49.796  48.416  1.00  0.00    -0.062 NA
HETATM   18  C   UNL     1      20.484  50.592  48.701  1.00  0.00     0.103 A 
HETATM   19  C   UNL     1      19.691  50.012  49.683  1.00  0.00     0.078 A 
HETATM   20  C   UNL     1      20.118  51.834  48.166  1.00  0.00     0.034 A 
HETATM   21  N   UNL     1      20.329  48.833  49.971  1.00  0.00    -0.187 N 
HETATM   22  C   UNL     1      18.531  50.606  50.182  1.00  0.00     0.032 A 
HETATM   23  H   UNL     1      20.017  48.152  50.644  1.00  0.00     0.184 HD
HETATM   24  C   UNL     1      18.182  51.850  49.641  1.00  0.00     0.002 A 
HETATM   25  C   UNL     1      18.959  52.455  48.649  1.00  0.00     0.002 A 
ENDBRANCH   2  16
TORSDOF 4
ENDMDL
MODEL 10
REMARK VINA RESULT:      -6.9      2.276      2.998
REMARK  4 active torsions:
REMARK  status: ('A' for Active; 'I' for Inactive)
REMARK    1  A    between atoms: N_2  and  C_4 
REMARK    2  A    between atoms: C_4  and  C_5 
REMARK    3  A    between atoms: C_8  and  C_9 
REMARK       I    between atoms: C_9  and  N_10 
REMARK    4  A    between atoms: N_10  and  C_11 
ROOT
HETATM    1  C   UNL     1      22.503  49.337  49.233  1.00  0.00     0.269 C 
HETATM    2  N   UNL     1      22.344  47.967  49.316  1.00  0.00    -0.153 N 
HETATM    3  O   UNL     1      23.460  50.007  49.601  1.00  0.00    -0.267 OA
HETATM    4  H   UNL     1      21.435  47.555  49.180  1.00  0.00     0.187 HD
ENDROOT
BRANCH   1   5
HETATM    5  C   UNL     1      21.358  50.075  48.634  1.00  0.00     0.032 A 
HETATM    6  C   UNL     1      20.601  49.438  47.643  1.00  0.00     0.017 A 
HETATM    7  C   UNL     1      19.436  50.032  47.152  1.00  0.00     0.010 A 
HETATM    8  C   UNL     1      19.002  51.266  47.659  1.00  0.00    -0.033 A 
HETATM    9  C   UNL     1      19.779  51.915  48.632  1.00  0.00     0.010 A 
HETATM   10  C   UNL     1      20.949  51.322  49.122  1.00  0.00     0.017 A 
BRANCH   8  11
HETATM   11  C   UNL     1      17.677  51.840  47.227  1.00  0.00     0.272 C 
BRANCH  11  12
HETATM   12  N   UNL     1      16.501  51.203  47.939  1.00  0.00    -0.075 N 
HETATM   13  C   UNL     1      15.610  50.409  47.022  1.00  0.00     0.269 C 
HETATM   14  H   UNL     1      16.893  50.533  48.611  1.00  0.00     0.279 HD
HETATM   15  C   UNL     1      15.718  52.212  48.727  1.00  0.00     0.269 C 
ENDBRANCH  11  12
ENDBRANCH   8  11
ENDBRANCH   1   5
BRANCH   2  16
HETATM   16  C   UNL     1      23.411  47.143  49.585  1.00  0.00     0.708 A 
HETATM   17  N   UNL     1      23.810  46.086  48.920  1.00  0.00    -0.062 NA
HETATM   18  C   UNL     1      24.862  45.563  49.625  1.00  0.00     0.103 A 
HETATM   19  C   UNL     1      25.122  46.324  50.758  1.00  0.00     0.078 A 
HETATM   20  C   UNL     1      25.643  44.430  49.366  1.00  0.00     0.034 A 
HETATM   21  N   UNL     1      24.192  47.331  50.700  1.00  0.00    -0.187 N 
HETATM   22  C   UNL     1      26.131  46.020  51.673  1.00  0.00     0.032 A 
HETATM   23  H   UNL     1      24.099  48.076  51.372  1.00  0.00     0.184 HD
HETATM   24  C   UNL     1      26.899  44.881  51.401  1.00  0.00     0.002 A 
HETATM   25  C   UNL     1      26.663  44.098  50.268  1.00  0.00     0.002 A 
ENDBRANCH   2  16
TORSDOF 4
ENDMDL
