MODEL 1
REMARK VINA RESULT:      -9.1      0.000      0.000
REMARK  7 active torsions:
REMARK  status: ('A' for Active; 'I' for Inactive)
REMARK    1  A    between atoms: O_2  and  C_3 
REMARK    2  A    between atoms: C_6  and  N_7 
REMARK       I    between atoms: N_7  and  C_8 
REMARK    3  A    between atoms: C_8  and  C_9 
REMARK    4  A    between atoms: C_9  and  C_10 
REMARK    5  A    between atoms: C_10  and  N_11 
REMARK    6  A    between atoms: C_10  and  C_20 
REMARK       I    between atoms: N_11  and  C_12 
REMARK    7  A    between atoms: C_12  and  C_13 
ROOT
HETATM    1  C   UNL     1      26.143  45.211  53.070  1.00  0.00     0.126 C 
ENDROOT
BRANCH   1   2
HETATM    2  C   UNL     1      25.789  45.685  54.493  1.00  0.00     0.133 C 
BRANCH   2   3
HETATM    3  C   UNL     1      26.229  47.110  54.723  1.00  0.00     0.224 C 
HETATM    4  N   UNL     1      27.311  47.434  55.483  1.00  0.00    -0.326 N 
HETATM    5  H   UNL     1      27.435  48.441  55.475  1.00  0.00     0.169 HD
HETATM    6  O   UNL     1      25.583  48.062  54.265  1.00  0.00    -0.273 OA
BRANCH   4   7
HETATM    7  C   UNL     1      28.294  46.710  56.180  1.00  0.00     0.052 A 
HETATM    8  C   UNL     1      28.387  46.510  57.552  1.00  0.00     0.149 A 
HETATM    9  N   UNL     1      29.337  45.747  58.156  1.00  0.00    -0.235 NA
HETATM   10  C   UNL     1      30.249  45.160  57.357  1.00  0.00     0.163 A 
HETATM   11  C   UNL     1      30.287  45.340  55.988  1.00  0.00     0.060 A 
HETATM   12  C   UNL     1      29.296  46.122  55.398  1.00  0.00     0.035 A 
BRANCH  10  13
HETATM   13  O   UNL     1      31.221  44.343  57.896  1.00  0.00    -0.339 OA
HETATM   14  C   UNL     1      31.670  43.349  56.982  1.00  0.00     0.211 C 
ENDBRANCH  10  13
ENDBRANCH   4   7
ENDBRANCH   2   3
ENDBRANCH   1   2
BRANCH   1  15
HETATM   15  N   UNL     1      26.311  46.276  52.073  1.00  0.00    -0.348 N 
HETATM   16  C   UNL     1      25.465  46.541  51.018  1.00  0.00     0.252 C 
HETATM   17  O   UNL     1      24.435  45.920  50.788  1.00  0.00    -0.268 OA
HETATM   18  H   UNL     1      27.008  46.967  52.306  1.00  0.00     0.163 HD
BRANCH  16  19
HETATM   19  C   UNL     1      25.842  47.668  50.116  1.00  0.00     0.032 A 
HETATM   20  C   UNL     1      27.175  48.007  49.852  1.00  0.00     0.017 A 
HETATM   21  C   UNL     1      27.468  49.050  48.969  1.00  0.00     0.001 A 
HETATM   22  C   UNL     1      26.438  49.747  48.337  1.00  0.00     0.000 A 
HETATM   23  C   UNL     1      25.110  49.405  48.583  1.00  0.00     0.001 A 
HETATM   24  C   UNL     1      24.813  48.367  49.468  1.00  0.00     0.017 A 
ENDBRANCH  16  19
ENDBRANCH   1  15
BRANCH   1  25
HETATM   25  C   UNL     1      27.308  44.230  53.073  1.00  0.00    -0.035 A 
HETATM   26  C   UNL     1      27.484  43.381  54.181  1.00  0.00     0.009 A 
HETATM   27  C   UNL     1      28.550  42.482  54.235  1.00  0.00     0.001 A 
HETATM   28  C   UNL     1      29.458  42.417  53.182  1.00  0.00     0.000 A 
HETATM   29  C   UNL     1      29.304  43.259  52.082  1.00  0.00     0.001 A 
HETATM   30  C   UNL     1      28.241  44.164  52.030  1.00  0.00     0.009 A 
ENDBRANCH   1  25
TORSDOF 7
ENDMDL
MODEL 2
REMARK VINA RESULT:      -8.0     12.784     15.676
REMARK  7 active torsions:
REMARK  status: ('A' for Active; 'I' for Inactive)
REMARK    1  A    between atoms: O_2  and  C_3 
REMARK    2  A    between atoms: C_6  and  N_7 
REMARK       I    between atoms: N_7  and  C_8 
REMARK    3  A    between atoms: C_8  and  C_9 
REMARK    4  A    between atoms: C_9  and  C_10 
REMARK    5  A    between atoms: C_10  and  N_11 
REMARK    6  A    between atoms: C_10  and  C_20 
REMARK       I    between atoms: N_11  and  C_12 
REMARK    7  A    between atoms: C_12  and  C_13 
ROOT
HETATM    1  C   UNL     1      31.904  50.430  42.773  1.00  0.00     0.126 C 
ENDROOT
BRANCH   1   2
HETATM    2  C   UNL     1      31.514  48.979  42.431  1.00  0.00     0.133 C 
BRANCH   2   3
HETATM    3  C   UNL     1      32.257  48.482  41.216  1.00  0.00     0.224 C 
HETATM    4  N   UNL     1      31.768  48.605  39.951  1.00  0.00    -0.326 N 
HETATM    5  H   UNL     1      32.444  48.230  39.294  1.00  0.00     0.169 HD
HETATM    6  O   UNL     1      33.336  47.885  41.324  1.00  0.00    -0.273 OA
BRANCH   4   7
HETATM    7  C   UNL     1      30.622  49.180  39.375  1.00  0.00     0.052 A 
HETATM    8  C   UNL     1      30.559  50.270  38.515  1.00  0.00     0.149 A 
HETATM    9  N   UNL     1      29.415  50.740  37.949  1.00  0.00    -0.235 NA
HETATM   10  C   UNL     1      28.272  50.100  38.262  1.00  0.00     0.163 A 
HETATM   11  C   UNL     1      28.209  49.045  39.152  1.00  0.00     0.060 A 
HETATM   12  C   UNL     1      29.400  48.584  39.710  1.00  0.00     0.035 A 
BRANCH  10  13
HETATM   13  O   UNL     1      27.077  50.498  37.697  1.00  0.00    -0.339 OA
HETATM   14  C   UNL     1      26.132  49.437  37.611  1.00  0.00     0.211 C 
ENDBRANCH  10  13
ENDBRANCH   4   7
ENDBRANCH   2   3
ENDBRANCH   1   2
BRANCH   1  15
HETATM   15  N   UNL     1      33.338  50.736  42.684  1.00  0.00    -0.348 N 
HETATM   16  C   UNL     1      34.031  51.620  43.482  1.00  0.00     0.252 C 
HETATM   17  O   UNL     1      33.528  52.260  44.398  1.00  0.00    -0.268 OA
HETATM   18  H   UNL     1      33.870  50.103  42.106  1.00  0.00     0.163 HD
BRANCH  16  19
HETATM   19  C   UNL     1      35.486  51.786  43.202  1.00  0.00     0.032 A 
HETATM   20  C   UNL     1      36.268  52.760  43.835  1.00  0.00     0.017 A 
HETATM   21  C   UNL     1      37.636  52.844  43.562  1.00  0.00     0.001 A 
HETATM   22  C   UNL     1      38.231  51.952  42.669  1.00  0.00     0.000 A 
HETATM   23  C   UNL     1      37.462  50.970  42.047  1.00  0.00     0.001 A 
HETATM   24  C   UNL     1      36.095  50.886  42.314  1.00  0.00     0.017 A 
ENDBRANCH  16  19
ENDBRANCH   1  15
BRANCH   1  25
HETATM   25  C   UNL     1      31.048  51.440  42.019  1.00  0.00    -0.035 A 
HETATM   26  C   UNL     1      29.648  51.317  42.063  1.00  0.00     0.009 A 
HETATM   27  C   UNL     1      28.825  52.207  41.371  1.00  0.00     0.001 A 
HETATM   28  C   UNL     1      29.391  53.235  40.623  1.00  0.00     0.000 A 
HETATM   29  C   UNL     1      30.777  53.366  40.560  1.00  0.00     0.001 A 
HETATM   30  C   UNL     1      31.600  52.471  41.248  1.00  0.00     0.009 A 
ENDBRANCH   1  25
TORSDOF 7
ENDMDL
MODEL 3
REMARK VINA RESULT:      -8.0      3.157      5.705
REMARK  7 active torsions:
REMARK  status: ('A' for Active; 'I' for Inactive)
REMARK    1  A    between atoms: O_2  and  C_3 
REMARK    2  A    between atoms: C_6  and  N_7 
REMARK       I    between atoms: N_7  and  C_8 
REMARK    3  A    between atoms: C_8  and  C_9 
REMARK    4  A    between atoms: C_9  and  C_10 
REMARK    5  A    between atoms: C_10  and  N_11 
REMARK    6  A    between atoms: C_10  and  C_20 
REMARK       I    between atoms: N_11  and  C_12 
REMARK    7  A    between atoms: C_12  and  C_13 
ROOT
HETATM    1  C   UNL     1      26.726  44.880  52.195  1.00  0.00     0.126 C 
ENDROOT
BRANCH   1   2
HETATM    2  C   UNL     1      25.662  43.795  52.452  1.00  0.00     0.133 C 
BRANCH   2   3
HETATM    3  C   UNL     1      24.691  43.695  51.302  1.00  0.00     0.224 C 
HETATM    4  N   UNL     1      24.926  42.925  50.204  1.00  0.00    -0.326 N 
HETATM    5  H   UNL     1      24.131  42.986  49.577  1.00  0.00     0.169 HD
HETATM    6  O   UNL     1      23.647  44.359  51.285  1.00  0.00    -0.273 OA
BRANCH   4   7
HETATM    7  C   UNL     1      25.945  42.044  49.802  1.00  0.00     0.052 A 
HETATM    8  C   UNL     1      26.869  42.225  48.779  1.00  0.00     0.149 A 
HETATM    9  N   UNL     1      27.868  41.351  48.481  1.00  0.00    -0.235 NA
HETATM   10  C   UNL     1      27.949  40.235  49.232  1.00  0.00     0.163 A 
HETATM   11  C   UNL     1      27.048  39.926  50.233  1.00  0.00     0.060 A 
HETATM   12  C   UNL     1      26.040  40.844  50.518  1.00  0.00     0.035 A 
BRANCH  10  13
HETATM   13  O   UNL     1      28.959  39.322  49.011  1.00  0.00    -0.339 OA
HETATM   14  C   UNL     1      28.863  38.183  49.859  1.00  0.00     0.211 C 
ENDBRANCH  10  13
ENDBRANCH   4   7
ENDBRANCH   2   3
ENDBRANCH   1   2
BRANCH   1  15
HETATM   15  N   UNL     1      26.262  46.055  51.445  1.00  0.00    -0.348 N 
HETATM   16  C   UNL     1      26.597  46.372  50.146  1.00  0.00     0.252 C 
HETATM   17  O   UNL     1      27.323  45.689  49.435  1.00  0.00    -0.268 OA
HETATM   18  H   UNL     1      25.497  46.554  51.872  1.00  0.00     0.163 HD
BRANCH  16  19
HETATM   19  C   UNL     1      26.018  47.628  49.587  1.00  0.00     0.032 A 
HETATM   20  C   UNL     1      26.810  48.638  49.028  1.00  0.00     0.017 A 
HETATM   21  C   UNL     1      26.210  49.777  48.484  1.00  0.00     0.001 A 
HETATM   22  C   UNL     1      24.820  49.907  48.484  1.00  0.00     0.000 A 
HETATM   23  C   UNL     1      24.025  48.899  49.024  1.00  0.00     0.001 A 
HETATM   24  C   UNL     1      24.621  47.762  49.572  1.00  0.00     0.017 A 
ENDBRANCH  16  19
ENDBRANCH   1  15
BRANCH   1  25
HETATM   25  C   UNL     1      27.465  45.263  53.471  1.00  0.00    -0.035 A 
HETATM   26  C   UNL     1      27.178  46.495  54.084  1.00  0.00     0.009 A 
HETATM   27  C   UNL     1      27.846  46.895  55.243  1.00  0.00     0.001 A 
HETATM   28  C   UNL     1      28.812  46.067  55.807  1.00  0.00     0.000 A 
HETATM   29  C   UNL     1      29.116  44.847  55.207  1.00  0.00     0.001 A 
HETATM   30  C   UNL     1      28.453  44.450  54.043  1.00  0.00     0.009 A 
ENDBRANCH   1  25
TORSDOF 7
ENDMDL
MODEL 4
REMARK VINA RESULT:      -8.0      3.289      7.181
REMARK  7 active torsions:
REMARK  status: ('A' for Active; 'I' for Inactive)
REMARK    1  A    between atoms: O_2  and  C_3 
REMARK    2  A    between atoms: C_6  and  N_7 
REMARK       I    between atoms: N_7  and  C_8 
REMARK    3  A    between atoms: C_8  and  C_9 
REMARK    4  A    between atoms: C_9  and  C_10 
REMARK    5  A    between atoms: C_10  and  N_11 
REMARK    6  A    between atoms: C_10  and  C_20 
REMARK       I    between atoms: N_11  and  C_12 
REMARK    7  A    between atoms: C_12  and  C_13 
ROOT
HETATM    1  C   UNL     1      25.618  45.458  51.038  1.00  0.00     0.126 C 
ENDROOT
BRANCH   1   2
HETATM    2  C   UNL     1      25.386  44.266  50.090  1.00  0.00     0.133 C 
BRANCH   2   3
HETATM    3  C   UNL     1      24.522  43.211  50.736  1.00  0.00     0.224 C 
HETATM    4  N   UNL     1      24.943  41.930  50.929  1.00  0.00    -0.326 N 
HETATM    5  H   UNL     1      24.214  41.407  51.402  1.00  0.00     0.169 HD
HETATM    6  O   UNL     1      23.357  43.455  51.074  1.00  0.00    -0.273 OA
BRANCH   4   7
HETATM    7  C   UNL     1      26.138  41.227  50.699  1.00  0.00     0.052 A 
HETATM    8  C   UNL     1      27.312  41.283  51.440  1.00  0.00     0.149 A 
HETATM    9  N   UNL     1      28.417  40.529  51.191  1.00  0.00    -0.235 NA
HETATM   10  C   UNL     1      28.354  39.681  50.146  1.00  0.00     0.163 A 
HETATM   11  C   UNL     1      27.261  39.587  49.307  1.00  0.00     0.060 A 
HETATM   12  C   UNL     1      26.143  40.369  49.593  1.00  0.00     0.035 A 
BRANCH  10  13
HETATM   13  O   UNL     1      29.423  38.858  49.857  1.00  0.00    -0.339 OA
HETATM   14  C   UNL     1      29.851  38.098  50.983  1.00  0.00     0.211 C 
ENDBRANCH  10  13
ENDBRANCH   4   7
ENDBRANCH   2   3
ENDBRANCH   1   2
BRANCH   1  15
HETATM   15  N   UNL     1      26.727  45.302  51.989  1.00  0.00    -0.348 N 
HETATM   16  C   UNL     1      26.633  44.817  53.274  1.00  0.00     0.252 C 
HETATM   17  O   UNL     1      25.591  44.428  53.789  1.00  0.00    -0.268 OA
HETATM   18  H   UNL     1      27.647  45.393  51.583  1.00  0.00     0.163 HD
BRANCH  16  19
HETATM   19  C   UNL     1      27.893  44.760  54.070  1.00  0.00     0.032 A 
HETATM   20  C   UNL     1      28.269  45.776  54.957  1.00  0.00     0.017 A 
HETATM   21  C   UNL     1      29.443  45.651  55.705  1.00  0.00     0.001 A 
HETATM   22  C   UNL     1      30.237  44.510  55.583  1.00  0.00     0.000 A 
HETATM   23  C   UNL     1      29.859  43.487  54.714  1.00  0.00     0.001 A 
HETATM   24  C   UNL     1      28.690  43.611  53.962  1.00  0.00     0.017 A 
ENDBRANCH  16  19
ENDBRANCH   1  15
BRANCH   1  25
HETATM   25  C   UNL     1      25.684  46.779  50.282  1.00  0.00    -0.035 A 
HETATM   26  C   UNL     1      24.486  47.414  49.911  1.00  0.00     0.009 A 
HETATM   27  C   UNL     1      24.499  48.615  49.199  1.00  0.00     0.001 A 
HETATM   28  C   UNL     1      25.713  49.200  48.848  1.00  0.00     0.000 A 
HETATM   29  C   UNL     1      26.909  48.578  49.199  1.00  0.00     0.001 A 
HETATM   30  C   UNL     1      26.896  47.373  49.905  1.00  0.00     0.009 A 
ENDBRANCH   1  25
TORSDOF 7
ENDMDL
MODEL 5
REMARK VINA RESULT:      -7.9      3.369      7.015
REMARK  7 active torsions:
REMARK  status: ('A' for Active; 'I' for Inactive)
REMARK    1  A    between atoms: O_2  and  C_3 
REMARK    2  A    between atoms: C_6  and  N_7 
REMARK       I    between atoms: N_7  and  C_8 
REMARK    3  A    between atoms: C_8  and  C_9 
REMARK    4  A    between atoms: C_9  and  C_10 
REMARK    5  A    between atoms: C_10  and  N_11 
REMARK    6  A    between atoms: C_10  and  C_20 
REMARK       I    between atoms: N_11  and  C_12 
REMARK    7  A    between atoms: C_12  and  C_13 
ROOT
HETATM    1  C   UNL     1      27.663  41.271  50.899  1.00  0.00     0.126 C 
ENDROOT
BRANCH   1   2
HETATM    2  C   UNL     1      26.158  40.944  50.963  1.00  0.00     0.133 C 
BRANCH   2   3
HETATM    3  C   UNL     1      25.436  41.432  49.731  1.00  0.00     0.224 C 
HETATM    4  N   UNL     1      25.011  42.717  49.586  1.00  0.00    -0.326 N 
HETATM    5  H   UNL     1      24.580  42.825  48.674  1.00  0.00     0.169 HD
HETATM    6  O   UNL     1      25.150  40.659  48.808  1.00  0.00    -0.273 OA
BRANCH   4   7
HETATM    7  C   UNL     1      25.102  43.891  50.354  1.00  0.00     0.052 A 
HETATM    8  C   UNL     1      24.880  44.033  51.718  1.00  0.00     0.149 A 
HETATM    9  N   UNL     1      25.042  45.193  52.408  1.00  0.00    -0.235 NA
HETATM   10  C   UNL     1      25.436  46.273  51.705  1.00  0.00     0.163 A 
HETATM   11  C   UNL     1      25.627  46.260  50.337  1.00  0.00     0.060 A 
HETATM   12  C   UNL     1      25.459  45.054  49.660  1.00  0.00     0.035 A 
BRANCH  10  13
HETATM   13  O   UNL     1      25.656  47.475  52.345  1.00  0.00    -0.339 OA
HETATM   14  C   UNL     1      25.857  47.321  53.746  1.00  0.00     0.211 C 
ENDBRANCH  10  13
ENDBRANCH   4   7
ENDBRANCH   2   3
ENDBRANCH   1   2
BRANCH   1  15
HETATM   15  N   UNL     1      28.225  41.897  52.102  1.00  0.00    -0.348 N 
HETATM   16  C   UNL     1      28.524  43.233  52.258  1.00  0.00     0.252 C 
HETATM   17  O   UNL     1      28.335  44.086  51.399  1.00  0.00    -0.268 OA
HETATM   18  H   UNL     1      28.212  41.315  52.926  1.00  0.00     0.163 HD
BRANCH  16  19
HETATM   19  C   UNL     1      29.104  43.647  53.568  1.00  0.00     0.032 A 
HETATM   20  C   UNL     1      30.223  43.019  54.128  1.00  0.00     0.017 A 
HETATM   21  C   UNL     1      30.747  43.475  55.341  1.00  0.00     0.001 A 
HETATM   22  C   UNL     1      30.167  44.564  55.992  1.00  0.00     0.000 A 
HETATM   23  C   UNL     1      29.063  45.205  55.432  1.00  0.00     0.001 A 
HETATM   24  C   UNL     1      28.535  44.749  54.224  1.00  0.00     0.017 A 
ENDBRANCH  16  19
ENDBRANCH   1  15
BRANCH   1  25
HETATM   25  C   UNL     1      28.482  40.076  50.430  1.00  0.00    -0.035 A 
HETATM   26  C   UNL     1      28.520  39.768  49.058  1.00  0.00     0.009 A 
HETATM   27  C   UNL     1      29.241  38.669  48.587  1.00  0.00     0.001 A 
HETATM   28  C   UNL     1      29.937  37.861  49.482  1.00  0.00     0.000 A 
HETATM   29  C   UNL     1      29.903  38.146  50.845  1.00  0.00     0.001 A 
HETATM   30  C   UNL     1      29.175  39.241  51.317  1.00  0.00     0.009 A 
ENDBRANCH   1  25
TORSDOF 7
ENDMDL
MODEL 6
REMARK VINA RESULT:      -7.8     14.797     16.978
REMARK  7 active torsions:
REMARK  status: ('A' for Active; 'I' for Inactive)
REMARK    1  A    between atoms: O_2  and  C_3 
REMARK    2  A    between atoms: C_6  and  N_7 
REMARK       I    between atoms: N_7  and  C_8 
REMARK    3  A    between atoms: C_8  and  C_9 
REMARK    4  A    between atoms: C_9  and  C_10 
REMARK    5  A    between atoms: C_10  and  N_11 
REMARK    6  A    between atoms: C_10  and  C_20 
REMARK       I    between atoms: N_11  and  C_12 
REMARK    7  A    between atoms: C_12  and  C_13 
ROOT
HETATM    1  C   UNL     1      38.763  46.378  64.801  1.00  0.00     0.126 C 
ENDROOT
BRANCH   1   2
HETATM    2  C   UNL     1      38.047  45.079  65.222  1.00  0.00     0.133 C 
BRANCH   2   3
HETATM    3  C   UNL     1      36.998  44.678  64.213  1.00  0.00     0.224 C 
HETATM    4  N   UNL     1      36.973  43.450  63.625  1.00  0.00    -0.326 N 
HETATM    5  H   UNL     1      36.170  43.393  63.007  1.00  0.00     0.169 HD
HETATM    6  O   UNL     1      36.135  45.480  63.834  1.00  0.00    -0.273 OA
BRANCH   4   7
HETATM    7  C   UNL     1      37.733  42.274  63.737  1.00  0.00     0.052 A 
HETATM    8  C   UNL     1      37.717  41.348  64.773  1.00  0.00     0.149 A 
HETATM    9  N   UNL     1      38.441  40.197  64.789  1.00  0.00    -0.235 NA
HETATM   10  C   UNL     1      39.231  39.958  63.724  1.00  0.00     0.163 A 
HETATM   11  C   UNL     1      39.371  40.837  62.668  1.00  0.00     0.060 A 
HETATM   12  C   UNL     1      38.610  42.004  62.679  1.00  0.00     0.035 A 
BRANCH  10  13
HETATM   13  O   UNL     1      39.968  38.793  63.655  1.00  0.00    -0.339 OA
HETATM   14  C   UNL     1      41.171  38.859  64.413  1.00  0.00     0.211 C 
ENDBRANCH  10  13
ENDBRANCH   4   7
ENDBRANCH   2   3
ENDBRANCH   1   2
BRANCH   1  15
HETATM   15  N   UNL     1      38.472  47.556  65.629  1.00  0.00    -0.348 N 
HETATM   16  C   UNL     1      37.659  48.612  65.280  1.00  0.00     0.252 C 
HETATM   17  O   UNL     1      37.049  48.691  64.220  1.00  0.00    -0.268 OA
HETATM   18  H   UNL     1      38.755  47.474  66.594  1.00  0.00     0.163 HD
BRANCH  16  19
HETATM   19  C   UNL     1      37.518  49.714  66.275  1.00  0.00     0.032 A 
HETATM   20  C   UNL     1      37.077  49.493  67.585  1.00  0.00     0.017 A 
HETATM   21  C   UNL     1      37.000  50.559  68.486  1.00  0.00     0.001 A 
HETATM   22  C   UNL     1      37.374  51.843  68.089  1.00  0.00     0.000 A 
HETATM   23  C   UNL     1      37.830  52.067  66.792  1.00  0.00     0.001 A 
HETATM   24  C   UNL     1      37.903  51.006  65.888  1.00  0.00     0.017 A 
ENDBRANCH  16  19
ENDBRANCH   1  15
BRANCH   1  25
HETATM   25  C   UNL     1      40.258  46.162  64.605  1.00  0.00    -0.035 A 
HETATM   26  C   UNL     1      40.700  45.006  63.937  1.00  0.00     0.009 A 
HETATM   27  C   UNL     1      42.061  44.758  63.753  1.00  0.00     0.001 A 
HETATM   28  C   UNL     1      43.003  45.664  64.235  1.00  0.00     0.000 A 
HETATM   29  C   UNL     1      42.582  46.809  64.907  1.00  0.00     0.001 A 
HETATM   30  C   UNL     1      41.220  47.054  65.097  1.00  0.00     0.009 A 
ENDBRANCH   1  25
TORSDOF 7
ENDMDL
MODEL 7
REMARK VINA RESULT:      -7.8     12.753     14.402
REMARK  7 active torsions:
REMARK  status: ('A' for Active; 'I' for Inactive)
REMARK    1  A    between atoms: O_2  and  C_3 
REMARK    2  A    between atoms: C_6  and  N_7 
REMARK       I    between atoms: N_7  and  C_8 
REMARK    3  A    between atoms: C_8  and  C_9 
REMARK    4  A    between atoms: C_9  and  C_10 
REMARK    5  A    between atoms: C_10  and  N_11 
REMARK    6  A    between atoms: C_10  and  C_20 
REMARK       I    between atoms: N_11  and  C_12 
REMARK    7  A    between atoms: C_12  and  C_13 
ROOT
HETATM    1  C   UNL     1      29.677  49.882  38.963  1.00  0.00     0.126 C 
ENDROOT
BRANCH   1   2
HETATM    2  C   UNL     1      30.772  48.798  38.913  1.00  0.00     0.133 C 
BRANCH   2   3
HETATM    3  C   UNL     1      30.645  47.835  40.067  1.00  0.00     0.224 C 
HETATM    4  N   UNL     1      31.302  48.009  41.248  1.00  0.00    -0.326 N 
HETATM    5  H   UNL     1      31.047  47.261  41.884  1.00  0.00     0.169 HD
HETATM    6  O   UNL     1      29.969  46.803  39.970  1.00  0.00    -0.273 OA
BRANCH   4   7
HETATM    7  C   UNL     1      32.154  48.991  41.780  1.00  0.00     0.052 A 
HETATM    8  C   UNL     1      33.436  49.322  41.359  1.00  0.00     0.149 A 
HETATM    9  N   UNL     1      34.185  50.327  41.887  1.00  0.00    -0.235 NA
HETATM   10  C   UNL     1      33.635  51.035  42.893  1.00  0.00     0.163 A 
HETATM   11  C   UNL     1      32.394  50.755  43.430  1.00  0.00     0.060 A 
HETATM   12  C   UNL     1      31.649  49.723  42.863  1.00  0.00     0.035 A 
BRANCH  10  13
HETATM   13  O   UNL     1      34.322  52.093  43.453  1.00  0.00    -0.339 OA
HETATM   14  C   UNL     1      35.725  52.017  43.223  1.00  0.00     0.211 C 
ENDBRANCH  10  13
ENDBRANCH   4   7
ENDBRANCH   2   3
ENDBRANCH   1   2
BRANCH   1  15
HETATM   15  N   UNL     1      28.339  49.411  39.343  1.00  0.00    -0.348 N 
HETATM   16  C   UNL     1      27.178  49.597  38.624  1.00  0.00     0.252 C 
HETATM   17  O   UNL     1      27.121  50.175  37.545  1.00  0.00    -0.268 OA
HETATM   18  H   UNL     1      28.325  48.745  40.101  1.00  0.00     0.163 HD
BRANCH  16  19
HETATM   19  C   UNL     1      25.924  49.043  39.211  1.00  0.00     0.032 A 
HETATM   20  C   UNL     1      24.652  49.456  38.795  1.00  0.00     0.017 A 
HETATM   21  C   UNL     1      23.511  48.874  39.354  1.00  0.00     0.001 A 
HETATM   22  C   UNL     1      23.633  47.872  40.317  1.00  0.00     0.000 A 
HETATM   23  C   UNL     1      24.895  47.444  40.723  1.00  0.00     0.001 A 
HETATM   24  C   UNL     1      26.037  48.026  40.171  1.00  0.00     0.017 A 
ENDBRANCH  16  19
ENDBRANCH   1  15
BRANCH   1  25
HETATM   25  C   UNL     1      30.117  51.094  39.773  1.00  0.00    -0.035 A 
HETATM   26  C   UNL     1      29.272  51.583  40.785  1.00  0.00     0.009 A 
HETATM   27  C   UNL     1      29.625  52.704  41.538  1.00  0.00     0.001 A 
HETATM   28  C   UNL     1      30.831  53.354  41.290  1.00  0.00     0.000 A 
HETATM   29  C   UNL     1      31.675  52.888  40.285  1.00  0.00     0.001 A 
HETATM   30  C   UNL     1      31.318  51.771  39.526  1.00  0.00     0.009 A 
ENDBRANCH   1  25
TORSDOF 7
ENDMDL
MODEL 8
REMARK VINA RESULT:      -7.8      3.691      9.142
REMARK  7 active torsions:
REMARK  status: ('A' for Active; 'I' for Inactive)
REMARK    1  A    between atoms: O_2  and  C_3 
REMARK    2  A    between atoms: C_6  and  N_7 
REMARK       I    between atoms: N_7  and  C_8 
REMARK    3  A    between atoms: C_8  and  C_9 
REMARK    4  A    between atoms: C_9  and  C_10 
REMARK    5  A    between atoms: C_10  and  N_11 
REMARK    6  A    between atoms: C_10  and  C_20 
REMARK       I    between atoms: N_11  and  C_12 
REMARK    7  A    between atoms: C_12  and  C_13 
ROOT
HETATM    1  C   UNL     1      25.064  46.748  50.627  1.00  0.00     0.126 C 
ENDROOT
BRANCH   1   2
HETATM    2  C   UNL     1      24.551  45.602  49.734  1.00  0.00     0.133 C 
BRANCH   2   3
HETATM    3  C   UNL     1      23.676  44.650  50.511  1.00  0.00     0.224 C 
HETATM    4  N   UNL     1      22.471  44.212  50.049  1.00  0.00    -0.326 N 
HETATM    5  H   UNL     1      22.074  43.562  50.719  1.00  0.00     0.169 HD
HETATM    6  O   UNL     1      23.997  44.261  51.641  1.00  0.00    -0.273 OA
BRANCH   4   7
HETATM    7  C   UNL     1      21.728  44.394  48.871  1.00  0.00     0.052 A 
HETATM    8  C   UNL     1      20.620  45.212  48.683  1.00  0.00     0.149 A 
HETATM    9  N   UNL     1      19.982  45.384  47.494  1.00  0.00    -0.235 NA
HETATM   10  C   UNL     1      20.464  44.700  46.438  1.00  0.00     0.163 A 
HETATM   11  C   UNL     1      21.520  43.814  46.523  1.00  0.00     0.060 A 
HETATM   12  C   UNL     1      22.157  43.665  47.754  1.00  0.00     0.035 A 
BRANCH  10  13
HETATM   13  O   UNL     1      19.889  44.852  45.193  1.00  0.00    -0.339 OA
HETATM   14  C   UNL     1      19.712  46.219  44.836  1.00  0.00     0.211 C 
ENDBRANCH  10  13
ENDBRANCH   4   7
ENDBRANCH   2   3
ENDBRANCH   1   2
BRANCH   1  15
HETATM   15  N   UNL     1      26.005  46.353  51.683  1.00  0.00    -0.348 N 
HETATM   16  C   UNL     1      26.081  46.895  52.948  1.00  0.00     0.252 C 
HETATM   17  O   UNL     1      25.343  47.781  53.363  1.00  0.00    -0.268 OA
HETATM   18  H   UNL     1      26.502  45.493  51.507  1.00  0.00     0.163 HD
BRANCH  16  19
HETATM   19  C   UNL     1      27.129  46.347  53.857  1.00  0.00     0.032 A 
HETATM   20  C   UNL     1      27.690  47.098  54.897  1.00  0.00     0.017 A 
HETATM   21  C   UNL     1      28.641  46.519  55.742  1.00  0.00     0.001 A 
HETATM   22  C   UNL     1      29.026  45.190  55.561  1.00  0.00     0.000 A 
HETATM   23  C   UNL     1      28.460  44.433  54.538  1.00  0.00     0.001 A 
HETATM   24  C   UNL     1      27.513  45.008  53.690  1.00  0.00     0.017 A 
ENDBRANCH  16  19
ENDBRANCH   1  15
BRANCH   1  25
HETATM   25  C   UNL     1      25.578  47.922  49.803  1.00  0.00    -0.035 A 
HETATM   26  C   UNL     1      24.655  48.724  49.107  1.00  0.00     0.009 A 
HETATM   27  C   UNL     1      25.083  49.797  48.324  1.00  0.00     0.001 A 
HETATM   28  C   UNL     1      26.441  50.085  48.224  1.00  0.00     0.000 A 
HETATM   29  C   UNL     1      27.369  49.295  48.899  1.00  0.00     0.001 A 
HETATM   30  C   UNL     1      26.941  48.217  49.678  1.00  0.00     0.009 A 
ENDBRANCH   1  25
TORSDOF 7
ENDMDL
MODEL 9
REMARK VINA RESULT:      -7.7      3.611      8.377
REMARK  7 active torsions:
REMARK  status: ('A' for Active; 'I' for Inactive)
REMARK    1  A    between atoms: O_2  and  C_3 
REMARK    2  A    between atoms: C_6  and  N_7 
REMARK       I    between atoms: N_7  and  C_8 
REMARK    3  A    between atoms: C_8  and  C_9 
REMARK    4  A    between atoms: C_9  and  C_10 
REMARK    5  A    between atoms: C_10  and  N_11 
REMARK    6  A    between atoms: C_10  and  C_20 
REMARK       I    between atoms: N_11  and  C_12 
REMARK    7  A    between atoms: C_12  and  C_13 
ROOT
HETATM    1  C   UNL     1      27.506  43.611  52.797  1.00  0.00     0.126 C 
ENDROOT
BRANCH   1   2
HETATM    2  C   UNL     1      28.202  42.592  51.873  1.00  0.00     0.133 C 
BRANCH   2   3
HETATM    3  C   UNL     1      27.760  41.182  52.179  1.00  0.00     0.224 C 
HETATM    4  N   UNL     1      26.762  40.558  51.495  1.00  0.00    -0.326 N 
HETATM    5  H   UNL     1      26.655  39.613  51.849  1.00  0.00     0.169 HD
HETATM    6  O   UNL     1      28.260  40.542  53.113  1.00  0.00    -0.273 OA
BRANCH   4   7
HETATM    7  C   UNL     1      25.937  40.891  50.407  1.00  0.00     0.052 A 
HETATM    8  C   UNL     1      25.920  40.309  49.145  1.00  0.00     0.149 A 
HETATM    9  N   UNL     1      25.052  40.646  48.153  1.00  0.00    -0.235 NA
HETATM   10  C   UNL     1      24.161  41.619  48.426  1.00  0.00     0.163 A 
HETATM   11  C   UNL     1      24.128  42.306  49.623  1.00  0.00     0.060 A 
HETATM   12  C   UNL     1      25.026  41.933  50.621  1.00  0.00     0.035 A 
BRANCH  10  13
HETATM   13  O   UNL     1      23.226  41.988  47.480  1.00  0.00    -0.339 OA
HETATM   14  C   UNL     1      23.376  43.340  47.060  1.00  0.00     0.211 C 
ENDBRANCH  10  13
ENDBRANCH   4   7
ENDBRANCH   2   3
ENDBRANCH   1   2
BRANCH   1  15
HETATM   15  N   UNL     1      28.249  43.973  54.011  1.00  0.00    -0.348 N 
HETATM   16  C   UNL     1      29.584  43.728  54.249  1.00  0.00     0.252 C 
HETATM   17  O   UNL     1      30.337  43.183  53.451  1.00  0.00    -0.268 OA
HETATM   18  H   UNL     1      27.768  44.611  54.626  1.00  0.00     0.163 HD
BRANCH  16  19
HETATM   19  C   UNL     1      30.129  44.173  55.564  1.00  0.00     0.032 A 
HETATM   20  C   UNL     1      29.680  45.330  56.212  1.00  0.00     0.017 A 
HETATM   21  C   UNL     1      30.200  45.677  57.462  1.00  0.00     0.001 A 
HETATM   22  C   UNL     1      31.157  44.867  58.075  1.00  0.00     0.000 A 
HETATM   23  C   UNL     1      31.596  43.706  57.443  1.00  0.00     0.001 A 
HETATM   24  C   UNL     1      31.082  43.358  56.193  1.00  0.00     0.017 A 
ENDBRANCH  16  19
ENDBRANCH   1  15
BRANCH   1  25
HETATM   25  C   UNL     1      27.020  44.833  52.028  1.00  0.00    -0.035 A 
HETATM   26  C   UNL     1      26.444  45.902  52.738  1.00  0.00     0.009 A 
HETATM   27  C   UNL     1      25.966  47.032  52.072  1.00  0.00     0.001 A 
HETATM   28  C   UNL     1      26.057  47.111  50.685  1.00  0.00     0.000 A 
HETATM   29  C   UNL     1      26.616  46.056  49.966  1.00  0.00     0.001 A 
HETATM   30  C   UNL     1      27.088  44.922  50.632  1.00  0.00     0.009 A 
ENDBRANCH   1  25
TORSDOF 7
ENDMDL
MODEL 10
REMARK VINA RESULT:      -7.6      6.527     11.822
REMARK  7 active torsions:
REMARK  status: ('A' for Active; 'I' for Inactive)
REMARK    1  A    between atoms: O_2  and  C_3 
REMARK    2  A    between atoms: C_6  and  N_7 
REMARK       I    between atoms: N_7  and  C_8 
REMARK    3  A    between atoms: C_8  and  C_9 
REMARK    4  A    between atoms: C_9  and  C_10 
REMARK    5  A    between atoms: C_10  and  N_11 
REMARK    6  A    between atoms: C_10  and  C_20 
REMARK       I    between atoms: N_11  and  C_12 
REMARK    7  A    between atoms: C_12  and  C_13 
ROOT
HETATM    1  C   UNL     1      21.173  48.422  49.026  1.00  0.00     0.126 C 
ENDROOT
BRANCH   1   2
HETATM    2  C   UNL     1      20.674  47.479  47.915  1.00  0.00     0.133 C 
BRANCH   2   3
HETATM    3  C   UNL     1      19.928  46.299  48.488  1.00  0.00     0.224 C 
HETATM    4  N   UNL     1      18.577  46.159  48.384  1.00  0.00    -0.326 N 
HETATM    5  H   UNL     1      18.299  45.284  48.814  1.00  0.00     0.169 HD
HETATM    6  O   UNL     1      20.516  45.422  49.133  1.00  0.00    -0.273 OA
BRANCH   4   7
HETATM    7  C   UNL     1      17.543  46.889  47.774  1.00  0.00     0.052 A 
HETATM    8  C   UNL     1      17.245  46.968  46.419  1.00  0.00     0.149 A 
HETATM    9  N   UNL     1      16.189  47.651  45.901  1.00  0.00    -0.235 NA
HETATM   10  C   UNL     1      15.392  48.297  46.775  1.00  0.00     0.163 A 
HETATM   11  C   UNL     1      15.628  48.336  48.135  1.00  0.00     0.060 A 
HETATM   12  C   UNL     1      16.715  47.620  48.635  1.00  0.00     0.035 A 
BRANCH  10  13
HETATM   13  O   UNL     1      14.281  48.981  46.325  1.00  0.00    -0.339 OA
HETATM   14  C   UNL     1      13.418  48.166  45.538  1.00  0.00     0.211 C 
ENDBRANCH  10  13
ENDBRANCH   4   7
ENDBRANCH   2   3
ENDBRANCH   1   2
BRANCH   1  15
HETATM   15  N   UNL     1      22.603  48.756  48.976  1.00  0.00    -0.348 N 
HETATM   16  C   UNL     1      23.644  47.926  49.331  1.00  0.00     0.252 C 
HETATM   17  O   UNL     1      23.502  46.774  49.724  1.00  0.00    -0.268 OA
HETATM   18  H   UNL     1      22.822  49.598  48.466  1.00  0.00     0.163 HD
BRANCH  16  19
HETATM   19  C   UNL     1      25.023  48.482  49.214  1.00  0.00     0.032 A 
HETATM   20  C   UNL     1      26.137  47.858  49.788  1.00  0.00     0.017 A 
HETATM   21  C   UNL     1      27.411  48.405  49.613  1.00  0.00     0.001 A 
HETATM   22  C   UNL     1      27.580  49.565  48.856  1.00  0.00     0.000 A 
HETATM   23  C   UNL     1      26.478  50.182  48.268  1.00  0.00     0.001 A 
HETATM   24  C   UNL     1      25.203  49.641  48.444  1.00  0.00     0.017 A 
ENDBRANCH  16  19
ENDBRANCH   1  15
BRANCH   1  25
HETATM   25  C   UNL     1      20.294  49.658  49.158  1.00  0.00    -0.035 A 
HETATM   26  C   UNL     1      20.619  50.811  48.421  1.00  0.00     0.009 A 
HETATM   27  C   UNL     1      19.853  51.973  48.528  1.00  0.00     0.001 A 
HETATM   28  C   UNL     1      18.748  52.000  49.374  1.00  0.00     0.000 A 
HETATM   29  C   UNL     1      18.417  50.870  50.119  1.00  0.00     0.001 A 
HETATM   30  C   UNL     1      19.188  49.709  50.017  1.00  0.00     0.009 A 
ENDBRANCH   1  25
TORSDOF 7
ENDMDL
