MODEL 1
REMARK VINA RESULT:      -7.7      0.000      0.000
REMARK  4 active torsions:
REMARK  status: ('A' for Active; 'I' for Inactive)
REMARK    1  A    between atoms: O_2  and  C_3 
REMARK    2  A    between atoms: C_5  and  N_6 
REMARK    3  A    between atoms: N_6  and  C_7 
REMARK    4  A    between atoms: C_7  and  C_8 
ROOT
HETATM    1  N   UNL     1      28.593  41.724  53.326  1.00  0.00    -0.372 N 
HETATM    2  H   UNL     1      28.472  40.950  53.967  1.00  0.00     0.161 HD
ENDROOT
BRANCH   1   3
HETATM    3  C   UNL     1      27.818  41.801  52.193  1.00  0.00     0.103 A 
HETATM    4  C   UNL     1      27.727  42.918  51.350  1.00  0.00     0.085 A 
HETATM    5  C   UNL     1      26.894  42.889  50.233  1.00  0.00     0.073 A 
HETATM    6  C   UNL     1      26.133  41.755  49.981  1.00  0.00     0.053 A 
HETATM    7  C   UNL     1      26.231  40.679  50.843  1.00  0.00     0.092 A 
HETATM    8  N   UNL     1      27.051  40.737  51.900  1.00  0.00    -0.352 N 
HETATM    9  H   UNL     1      27.097  39.939  52.525  1.00  0.00     0.166 HD
BRANCH   5  10
HETATM   10  O   UNL     1      26.725  43.895  49.329  1.00  0.00    -0.356 OA
HETATM   11  C   UNL     1      26.898  45.234  49.785  1.00  0.00     0.210 C 
ENDBRANCH   5  10
ENDBRANCH   1   3
BRANCH   1  12
HETATM   12  C   UNL     1      29.905  42.357  53.444  1.00  0.00     0.160 C 
BRANCH  12  13
HETATM   13  C   UNL     1      29.902  43.409  54.526  1.00  0.00    -0.036 A 
HETATM   14  C   UNL     1      29.081  44.557  54.411  1.00  0.00     0.031 A 
HETATM   15  C   UNL     1      29.065  45.533  55.413  1.00  0.00     0.047 A 
HETATM   16 BR   UNL     1      27.946  47.042  55.236  1.00  0.00    -0.048 Br
HETATM   17  C   UNL     1      29.876  45.358  56.515  1.00  0.00     0.122 A 
HETATM   18  C   UNL     1      30.682  44.250  56.626  1.00  0.00     0.107 A 
HETATM   19  O   UNL     1      30.000  46.187  57.587  1.00  0.00    -0.322 OA
HETATM   20  O   UNL     1      31.411  44.246  57.774  1.00  0.00    -0.323 OA
HETATM   21  C   UNL     1      30.722  43.266  55.658  1.00  0.00     0.048 A 
HETATM   22  C   UNL     1      31.004  45.500  58.362  1.00  0.00     0.352 A 
ENDBRANCH  12  13
ENDBRANCH   1  12
TORSDOF 4
ENDMDL
MODEL 2
REMARK VINA RESULT:      -7.4      4.236      5.864
REMARK  4 active torsions:
REMARK  status: ('A' for Active; 'I' for Inactive)
REMARK    1  A    between atoms: O_2  and  C_3 
REMARK    2  A    between atoms: C_5  and  N_6 
REMARK    3  A    between atoms: N_6  and  C_7 
REMARK    4  A    between atoms: C_7  and  C_8 
ROOT
HETATM    1  N   UNL     1      25.061  46.938  50.995  1.00  0.00    -0.372 N 
HETATM    2  H   UNL     1      24.170  47.019  51.467  1.00  0.00     0.161 HD
ENDROOT
BRANCH   1   3
HETATM    3  C   UNL     1      25.434  47.885  50.070  1.00  0.00     0.103 A 
HETATM    4  C   UNL     1      24.559  48.560  49.207  1.00  0.00     0.085 A 
HETATM    5  C   UNL     1      25.052  49.493  48.296  1.00  0.00     0.073 A 
HETATM    6  C   UNL     1      26.420  49.723  48.232  1.00  0.00     0.053 A 
HETATM    7  C   UNL     1      27.257  49.026  49.082  1.00  0.00     0.092 A 
HETATM    8  N   UNL     1      26.747  48.147  49.954  1.00  0.00    -0.352 N 
HETATM    9  H   UNL     1      27.382  47.639  50.561  1.00  0.00     0.166 HD
BRANCH   5  10
HETATM   10  O   UNL     1      24.313  50.226  47.415  1.00  0.00    -0.356 OA
HETATM   11  C   UNL     1      22.918  50.359  47.668  1.00  0.00     0.210 C 
ENDBRANCH   5  10
ENDBRANCH   1   3
BRANCH   1  12
HETATM   12  C   UNL     1      25.580  45.572  50.996  1.00  0.00     0.160 C 
BRANCH  12  13
HETATM   13  C   UNL     1      26.526  45.354  52.153  1.00  0.00    -0.036 A 
HETATM   14  C   UNL     1      27.466  44.296  52.123  1.00  0.00     0.031 A 
HETATM   15  C   UNL     1      28.352  44.093  53.187  1.00  0.00     0.047 A 
HETATM   16 BR   UNL     1      29.605  42.684  53.109  1.00  0.00    -0.048 Br
HETATM   17  C   UNL     1      28.284  44.941  54.272  1.00  0.00     0.122 A 
HETATM   18  C   UNL     1      27.365  45.963  54.309  1.00  0.00     0.107 A 
HETATM   19  O   UNL     1      29.053  44.908  55.394  1.00  0.00    -0.322 OA
HETATM   20  O   UNL     1      27.441  46.694  55.453  1.00  0.00    -0.323 OA
HETATM   21  C   UNL     1      26.478  46.195  53.277  1.00  0.00     0.048 A 
HETATM   22  C   UNL     1      28.489  45.994  56.158  1.00  0.00     0.352 A 
ENDBRANCH  12  13
ENDBRANCH   1  12
TORSDOF 4
ENDMDL
MODEL 3
REMARK VINA RESULT:      -7.4      3.140      3.909
REMARK  4 active torsions:
REMARK  status: ('A' for Active; 'I' for Inactive)
REMARK    1  A    between atoms: O_2  and  C_3 
REMARK    2  A    between atoms: C_5  and  N_6 
REMARK    3  A    between atoms: N_6  and  C_7 
REMARK    4  A    between atoms: C_7  and  C_8 
ROOT
HETATM    1  N   UNL     1      26.000  46.289  53.959  1.00  0.00    -0.372 N 
HETATM    2  H   UNL     1      25.656  45.526  54.529  1.00  0.00     0.161 HD
ENDROOT
BRANCH   1   3
HETATM    3  C   UNL     1      25.682  46.340  52.623  1.00  0.00     0.103 A 
HETATM    4  C   UNL     1      26.072  47.355  51.737  1.00  0.00     0.085 A 
HETATM    5  C   UNL     1      25.678  47.311  50.400  1.00  0.00     0.073 A 
HETATM    6  C   UNL     1      24.869  46.270  49.964  1.00  0.00     0.053 A 
HETATM    7  C   UNL     1      24.485  45.297  50.867  1.00  0.00     0.092 A 
HETATM    8  N   UNL     1      24.894  45.364  52.140  1.00  0.00    -0.352 N 
HETATM    9  H   UNL     1      24.590  44.644  52.787  1.00  0.00     0.166 HD
BRANCH   5  10
HETATM   10  O   UNL     1      25.997  48.221  49.437  1.00  0.00    -0.356 OA
HETATM   11  C   UNL     1      27.378  48.478  49.198  1.00  0.00     0.210 C 
ENDBRANCH   5  10
ENDBRANCH   1   3
BRANCH   1  12
HETATM   12  C   UNL     1      27.185  46.929  54.526  1.00  0.00     0.160 C 
BRANCH  12  13
HETATM   13  C   UNL     1      28.235  45.904  54.880  1.00  0.00    -0.036 A 
HETATM   14  C   UNL     1      28.465  44.790  54.038  1.00  0.00     0.031 A 
HETATM   15  C   UNL     1      29.443  43.840  54.354  1.00  0.00     0.047 A 
HETATM   16 BR   UNL     1      29.736  42.376  53.201  1.00  0.00    -0.048 Br
HETATM   17  C   UNL     1      30.173  44.008  55.512  1.00  0.00     0.122 A 
HETATM   18  C   UNL     1      29.946  45.083  56.337  1.00  0.00     0.107 A 
HETATM   19  O   UNL     1      31.160  43.201  55.988  1.00  0.00    -0.322 OA
HETATM   20  O   UNL     1      30.756  45.085  57.430  1.00  0.00    -0.323 OA
HETATM   21  C   UNL     1      28.992  46.041  56.056  1.00  0.00     0.048 A 
HETATM   22  C   UNL     1      31.498  43.864  57.224  1.00  0.00     0.352 A 
ENDBRANCH  12  13
ENDBRANCH   1  12
TORSDOF 4
ENDMDL
MODEL 4
REMARK VINA RESULT:      -7.3      1.215      1.372
REMARK  4 active torsions:
REMARK  status: ('A' for Active; 'I' for Inactive)
REMARK    1  A    between atoms: O_2  and  C_3 
REMARK    2  A    between atoms: C_5  and  N_6 
REMARK    3  A    between atoms: N_6  and  C_7 
REMARK    4  A    between atoms: C_7  and  C_8 
ROOT
HETATM    1  N   UNL     1      28.222  42.280  52.723  1.00  0.00    -0.372 N 
HETATM    2  H   UNL     1      28.042  41.294  52.867  1.00  0.00     0.161 HD
ENDROOT
BRANCH   1   3
HETATM    3  C   UNL     1      27.389  43.016  51.915  1.00  0.00     0.103 A 
HETATM    4  C   UNL     1      27.803  44.024  51.031  1.00  0.00     0.085 A 
HETATM    5  C   UNL     1      26.865  44.718  50.268  1.00  0.00     0.073 A 
HETATM    6  C   UNL     1      25.517  44.423  50.416  1.00  0.00     0.053 A 
HETATM    7  C   UNL     1      25.140  43.439  51.310  1.00  0.00     0.092 A 
HETATM    8  N   UNL     1      26.069  42.783  52.017  1.00  0.00    -0.352 N 
HETATM    9  H   UNL     1      25.769  42.073  52.675  1.00  0.00     0.166 HD
BRANCH   5  10
HETATM   10  O   UNL     1      27.133  45.705  49.366  1.00  0.00    -0.356 OA
HETATM   11  C   UNL     1      26.559  46.988  49.597  1.00  0.00     0.210 C 
ENDBRANCH   5  10
ENDBRANCH   1   3
BRANCH   1  12
HETATM   12  C   UNL     1      29.613  42.645  52.986  1.00  0.00     0.160 C 
BRANCH  12  13
HETATM   13  C   UNL     1      29.718  43.524  54.210  1.00  0.00    -0.036 A 
HETATM   14  C   UNL     1      28.901  44.673  54.342  1.00  0.00     0.031 A 
HETATM   15  C   UNL     1      28.986  45.487  55.477  1.00  0.00     0.047 A 
HETATM   16 BR   UNL     1      27.872  47.002  55.630  1.00  0.00    -0.048 Br
HETATM   17  C   UNL     1      29.891  45.151  56.462  1.00  0.00     0.122 A 
HETATM   18  C   UNL     1      30.693  44.042  56.332  1.00  0.00     0.107 A 
HETATM   19  O   UNL     1      30.121  45.810  57.630  1.00  0.00    -0.322 OA
HETATM   20  O   UNL     1      31.522  43.868  57.396  1.00  0.00    -0.323 OA
HETATM   21  C   UNL     1      30.635  43.215  55.228  1.00  0.00     0.048 A 
HETATM   22  C   UNL     1      31.183  45.018  58.200  1.00  0.00     0.352 A 
ENDBRANCH  12  13
ENDBRANCH   1  12
TORSDOF 4
ENDMDL
MODEL 5
REMARK VINA RESULT:      -7.3      2.189      2.996
REMARK  4 active torsions:
REMARK  status: ('A' for Active; 'I' for Inactive)
REMARK    1  A    between atoms: O_2  and  C_3 
REMARK    2  A    between atoms: C_5  and  N_6 
REMARK    3  A    between atoms: N_6  and  C_7 
REMARK    4  A    between atoms: C_7  and  C_8 
ROOT
HETATM    1  N   UNL     1      27.412  41.033  52.583  1.00  0.00    -0.372 N 
HETATM    2  H   UNL     1      26.904  40.384  53.170  1.00  0.00     0.161 HD
ENDROOT
BRANCH   1   3
HETATM    3  C   UNL     1      26.976  41.284  51.305  1.00  0.00     0.103 A 
HETATM    4  C   UNL     1      27.780  41.256  50.156  1.00  0.00     0.085 A 
HETATM    5  C   UNL     1      27.231  41.543  48.907  1.00  0.00     0.073 A 
HETATM    6  C   UNL     1      25.890  41.889  48.817  1.00  0.00     0.053 A 
HETATM    7  C   UNL     1      25.130  41.928  49.971  1.00  0.00     0.092 A 
HETATM    8  N   UNL     1      25.687  41.632  51.152  1.00  0.00    -0.352 N 
HETATM    9  H   UNL     1      25.112  41.678  51.987  1.00  0.00     0.166 HD
BRANCH   5  10
HETATM   10  O   UNL     1      27.895  41.538  47.716  1.00  0.00    -0.356 OA
HETATM   11  C   UNL     1      27.820  40.359  46.920  1.00  0.00     0.210 C 
ENDBRANCH   5  10
ENDBRANCH   1   3
BRANCH   1  12
HETATM   12  C   UNL     1      28.801  41.207  53.006  1.00  0.00     0.160 C 
BRANCH  12  13
HETATM   13  C   UNL     1      28.968  42.484  53.795  1.00  0.00    -0.036 A 
HETATM   14  C   UNL     1      29.976  42.590  54.784  1.00  0.00     0.031 A 
HETATM   15  C   UNL     1      30.144  43.772  55.514  1.00  0.00     0.047 A 
HETATM   16 BR   UNL     1      31.507  43.886  56.814  1.00  0.00    -0.048 Br
HETATM   17  C   UNL     1      29.300  44.831  55.255  1.00  0.00     0.122 A 
HETATM   18  C   UNL     1      28.314  44.728  54.302  1.00  0.00     0.107 A 
HETATM   19  O   UNL     1      29.304  46.054  55.853  1.00  0.00    -0.322 OA
HETATM   20  O   UNL     1      27.580  45.867  54.185  1.00  0.00    -0.323 OA
HETATM   21  C   UNL     1      28.121  43.579  53.562  1.00  0.00     0.048 A 
HETATM   22  C   UNL     1      28.187  46.692  55.202  1.00  0.00     0.352 A 
ENDBRANCH  12  13
ENDBRANCH   1  12
TORSDOF 4
ENDMDL
MODEL 6
REMARK VINA RESULT:      -7.2      1.828      2.420
REMARK  4 active torsions:
REMARK  status: ('A' for Active; 'I' for Inactive)
REMARK    1  A    between atoms: O_2  and  C_3 
REMARK    2  A    between atoms: C_5  and  N_6 
REMARK    3  A    between atoms: N_6  and  C_7 
REMARK    4  A    between atoms: C_7  and  C_8 
ROOT
HETATM    1  N   UNL     1      28.200  42.074  52.916  1.00  0.00    -0.372 N 
HETATM    2  H   UNL     1      27.574  42.223  53.697  1.00  0.00     0.161 HD
ENDROOT
BRANCH   1   3
HETATM    3  C   UNL     1      27.836  41.223  51.900  1.00  0.00     0.103 A 
HETATM    4  C   UNL     1      28.717  40.421  51.161  1.00  0.00     0.085 A 
HETATM    5  C   UNL     1      28.236  39.603  50.140  1.00  0.00     0.073 A 
HETATM    6  C   UNL     1      26.880  39.616  49.841  1.00  0.00     0.053 A 
HETATM    7  C   UNL     1      26.041  40.434  50.574  1.00  0.00     0.092 A 
HETATM    8  N   UNL     1      26.536  41.195  51.557  1.00  0.00    -0.352 N 
HETATM    9  H   UNL     1      25.902  41.796  52.075  1.00  0.00     0.166 HD
BRANCH   5  10
HETATM   10  O   UNL     1      28.979  38.769  49.358  1.00  0.00    -0.356 OA
HETATM   11  C   UNL     1      28.285  37.812  48.563  1.00  0.00     0.210 C 
ENDBRANCH   5  10
ENDBRANCH   1   3
BRANCH   1  12
HETATM   12  C   UNL     1      29.591  42.387  53.238  1.00  0.00     0.160 C 
BRANCH  12  13
HETATM   13  C   UNL     1      29.671  43.414  54.342  1.00  0.00    -0.036 A 
HETATM   14  C   UNL     1      28.869  44.580  54.299  1.00  0.00     0.031 A 
HETATM   15  C   UNL     1      28.930  45.532  55.323  1.00  0.00     0.047 A 
HETATM   16 BR   UNL     1      27.837  47.067  55.242  1.00  0.00    -0.048 Br
HETATM   17  C   UNL     1      29.797  45.315  56.373  1.00  0.00     0.122 A 
HETATM   18  C   UNL     1      30.584  44.188  56.413  1.00  0.00     0.107 A 
HETATM   19  O   UNL     1      29.999  46.115  57.455  1.00  0.00    -0.322 OA
HETATM   20  O   UNL     1      31.375  44.143  57.519  1.00  0.00    -0.323 OA
HETATM   21  C   UNL     1      30.549  43.227  55.423  1.00  0.00     0.048 A 
HETATM   22  C   UNL     1      31.029  45.390  58.157  1.00  0.00     0.352 A 
ENDBRANCH  12  13
ENDBRANCH   1  12
TORSDOF 4
ENDMDL
MODEL 7
REMARK VINA RESULT:      -7.2      3.907      5.452
REMARK  4 active torsions:
REMARK  status: ('A' for Active; 'I' for Inactive)
REMARK    1  A    between atoms: O_2  and  C_3 
REMARK    2  A    between atoms: C_5  and  N_6 
REMARK    3  A    between atoms: N_6  and  C_7 
REMARK    4  A    between atoms: C_7  and  C_8 
ROOT
HETATM    1  N   UNL     1      24.614  46.012  51.192  1.00  0.00    -0.372 N 
HETATM    2  H   UNL     1      23.745  45.729  51.626  1.00  0.00     0.161 HD
ENDROOT
BRANCH   1   3
HETATM    3  C   UNL     1      24.639  47.106  50.360  1.00  0.00     0.103 A 
HETATM    4  C   UNL     1      25.796  47.692  49.829  1.00  0.00     0.085 A 
HETATM    5  C   UNL     1      25.702  48.812  49.004  1.00  0.00     0.073 A 
HETATM    6  C   UNL     1      24.454  49.359  48.741  1.00  0.00     0.053 A 
HETATM    7  C   UNL     1      23.334  48.770  49.297  1.00  0.00     0.092 A 
HETATM    8  N   UNL     1      23.461  47.686  50.073  1.00  0.00    -0.352 N 
HETATM    9  H   UNL     1      22.626  47.277  50.479  1.00  0.00     0.166 HD
BRANCH   5  10
HETATM   10  O   UNL     1      26.742  49.467  48.415  1.00  0.00    -0.356 OA
HETATM   11  C   UNL     1      27.981  49.515  49.117  1.00  0.00     0.210 C 
ENDBRANCH   5  10
ENDBRANCH   1   3
BRANCH   1  12
HETATM   12  C   UNL     1      25.588  44.925  51.115  1.00  0.00     0.160 C 
BRANCH  12  13
HETATM   13  C   UNL     1      26.551  44.979  52.277  1.00  0.00    -0.036 A 
HETATM   14  C   UNL     1      27.618  44.053  52.370  1.00  0.00     0.031 A 
HETATM   15  C   UNL     1      28.521  44.102  53.438  1.00  0.00     0.047 A 
HETATM   16 BR   UNL     1      29.942  42.864  53.523  1.00  0.00    -0.048 Br
HETATM   17  C   UNL     1      28.342  45.067  54.407  1.00  0.00     0.122 A 
HETATM   18  C   UNL     1      27.301  45.961  54.326  1.00  0.00     0.107 A 
HETATM   19  O   UNL     1      29.106  45.276  55.513  1.00  0.00    -0.322 OA
HETATM   20  O   UNL     1      27.281  46.836  55.366  1.00  0.00    -0.323 OA
HETATM   21  C   UNL     1      26.394  45.944  53.285  1.00  0.00     0.048 A 
HETATM   22  C   UNL     1      28.407  46.371  56.140  1.00  0.00     0.352 A 
ENDBRANCH  12  13
ENDBRANCH   1  12
TORSDOF 4
ENDMDL
MODEL 8
REMARK VINA RESULT:      -7.1      1.812      2.351
REMARK  4 active torsions:
REMARK  status: ('A' for Active; 'I' for Inactive)
REMARK    1  A    between atoms: O_2  and  C_3 
REMARK    2  A    between atoms: C_5  and  N_6 
REMARK    3  A    between atoms: N_6  and  C_7 
REMARK    4  A    between atoms: C_7  and  C_8 
ROOT
HETATM    1  N   UNL     1      28.014  42.105  52.402  1.00  0.00    -0.372 N 
HETATM    2  H   UNL     1      27.927  41.158  52.751  1.00  0.00     0.161 HD
ENDROOT
BRANCH   1   3
HETATM    3  C   UNL     1      27.119  42.576  51.472  1.00  0.00     0.103 A 
HETATM    4  C   UNL     1      27.214  43.807  50.809  1.00  0.00     0.085 A 
HETATM    5  C   UNL     1      26.237  44.190  49.891  1.00  0.00     0.073 A 
HETATM    6  C   UNL     1      25.152  43.353  49.666  1.00  0.00     0.053 A 
HETATM    7  C   UNL     1      25.077  42.155  50.351  1.00  0.00     0.092 A 
HETATM    8  N   UNL     1      26.041  41.814  51.214  1.00  0.00    -0.352 N 
HETATM    9  H   UNL     1      25.959  40.935  51.714  1.00  0.00     0.166 HD
BRANCH   5  10
HETATM   10  O   UNL     1      26.216  45.348  49.172  1.00  0.00    -0.356 OA
HETATM   11  C   UNL     1      26.292  46.576  49.889  1.00  0.00     0.210 C 
ENDBRANCH   5  10
ENDBRANCH   1   3
BRANCH   1  12
HETATM   12  C   UNL     1      29.363  42.644  52.561  1.00  0.00     0.160 C 
BRANCH  12  13
HETATM   13  C   UNL     1      29.482  43.435  53.841  1.00  0.00    -0.036 A 
HETATM   14  C   UNL     1      30.497  43.133  54.781  1.00  0.00     0.031 A 
HETATM   15  C   UNL     1      30.620  43.866  55.966  1.00  0.00     0.047 A 
HETATM   16 BR   UNL     1      31.994  43.448  57.190  1.00  0.00    -0.048 Br
HETATM   17  C   UNL     1      29.723  44.886  56.205  1.00  0.00     0.122 A 
HETATM   18  C   UNL     1      28.730  45.176  55.299  1.00  0.00     0.107 A 
HETATM   19  O   UNL     1      29.678  45.708  57.289  1.00  0.00    -0.322 OA
HETATM   20  O   UNL     1      27.941  46.209  55.701  1.00  0.00    -0.323 OA
HETATM   21  C   UNL     1      28.580  44.476  54.119  1.00  0.00     0.048 A 
HETATM   22  C   UNL     1      28.523  46.517  56.985  1.00  0.00     0.352 A 
ENDBRANCH  12  13
ENDBRANCH   1  12
TORSDOF 4
ENDMDL
MODEL 9
REMARK VINA RESULT:      -7.1      3.163      4.057
REMARK  4 active torsions:
REMARK  status: ('A' for Active; 'I' for Inactive)
REMARK    1  A    between atoms: O_2  and  C_3 
REMARK    2  A    between atoms: C_5  and  N_6 
REMARK    3  A    between atoms: N_6  and  C_7 
REMARK    4  A    between atoms: C_7  and  C_8 
ROOT
HETATM    1  N   UNL     1      28.305  41.274  51.669  1.00  0.00    -0.372 N 
HETATM    2  H   UNL     1      27.676  41.993  51.334  1.00  0.00     0.161 HD
ENDROOT
BRANCH   1   3
HETATM    3  C   UNL     1      28.670  40.243  50.837  1.00  0.00     0.103 A 
HETATM    4  C   UNL     1      28.359  40.155  49.472  1.00  0.00     0.085 A 
HETATM    5  C   UNL     1      28.770  39.052  48.726  1.00  0.00     0.073 A 
HETATM    6  C   UNL     1      29.464  38.027  49.356  1.00  0.00     0.053 A 
HETATM    7  C   UNL     1      29.737  38.134  50.706  1.00  0.00     0.092 A 
HETATM    8  N   UNL     1      29.338  39.214  51.388  1.00  0.00    -0.352 N 
HETATM    9  H   UNL     1      29.540  39.266  52.381  1.00  0.00     0.166 HD
BRANCH   5  10
HETATM   10  O   UNL     1      28.547  38.850  47.397  1.00  0.00    -0.356 OA
HETATM   11  C   UNL     1      28.636  37.517  46.904  1.00  0.00     0.210 C 
ENDBRANCH   5  10
ENDBRANCH   1   3
BRANCH   1  12
HETATM   12  C   UNL     1      28.320  41.170  53.127  1.00  0.00     0.160 C 
BRANCH  12  13
HETATM   13  C   UNL     1      28.525  42.525  53.762  1.00  0.00    -0.036 A 
HETATM   14  C   UNL     1      29.597  42.743  54.661  1.00  0.00     0.031 A 
HETATM   15  C   UNL     1      29.800  43.997  55.247  1.00  0.00     0.047 A 
HETATM   16 BR   UNL     1      31.248  44.258  56.427  1.00  0.00    -0.048 Br
HETATM   17  C   UNL     1      28.925  45.017  54.937  1.00  0.00     0.122 A 
HETATM   18  C   UNL     1      27.876  44.806  54.073  1.00  0.00     0.107 A 
HETATM   19  O   UNL     1      28.953  46.297  55.399  1.00  0.00    -0.322 OA
HETATM   20  O   UNL     1      27.119  45.921  53.888  1.00  0.00    -0.323 OA
HETATM   21  C   UNL     1      27.647  43.583  53.475  1.00  0.00     0.048 A 
HETATM   22  C   UNL     1      27.785  46.855  54.765  1.00  0.00     0.352 A 
ENDBRANCH  12  13
ENDBRANCH   1  12
TORSDOF 4
ENDMDL
MODEL 10
REMARK VINA RESULT:      -7.0      2.745      3.347
REMARK  4 active torsions:
REMARK  status: ('A' for Active; 'I' for Inactive)
REMARK    1  A    between atoms: O_2  and  C_3 
REMARK    2  A    between atoms: C_5  and  N_6 
REMARK    3  A    between atoms: N_6  and  C_7 
REMARK    4  A    between atoms: C_7  and  C_8 
ROOT
HETATM    1  N   UNL     1      28.710  40.655  52.079  1.00  0.00    -0.372 N 
HETATM    2  H   UNL     1      29.375  40.608  52.840  1.00  0.00     0.161 HD
ENDROOT
BRANCH   1   3
HETATM    3  C   UNL     1      28.886  39.864  50.968  1.00  0.00     0.103 A 
HETATM    4  C   UNL     1      28.356  40.126  49.697  1.00  0.00     0.085 A 
HETATM    5  C   UNL     1      28.587  39.244  48.643  1.00  0.00     0.073 A 
HETATM    6  C   UNL     1      29.320  38.087  48.874  1.00  0.00     0.053 A 
HETATM    7  C   UNL     1      29.811  37.848  50.143  1.00  0.00     0.092 A 
HETATM    8  N   UNL     1      29.581  38.725  51.128  1.00  0.00    -0.352 N 
HETATM    9  H   UNL     1      29.942  38.522  52.055  1.00  0.00     0.166 HD
BRANCH   5  10
HETATM   10  O   UNL     1      28.144  39.386  47.361  1.00  0.00    -0.356 OA
HETATM   11  C   UNL     1      28.033  38.211  46.563  1.00  0.00     0.210 C 
ENDBRANCH   5  10
ENDBRANCH   1   3
BRANCH   1  12
HETATM   12  C   UNL     1      27.961  41.910  52.058  1.00  0.00     0.160 C 
BRANCH  12  13
HETATM   13  C   UNL     1      28.450  42.848  53.136  1.00  0.00    -0.036 A 
HETATM   14  C   UNL     1      27.815  44.096  53.345  1.00  0.00     0.031 A 
HETATM   15  C   UNL     1      28.256  44.967  54.348  1.00  0.00     0.047 A 
HETATM   16 BR   UNL     1      27.377  46.615  54.611  1.00  0.00    -0.048 Br
HETATM   17  C   UNL     1      29.331  44.588  55.123  1.00  0.00     0.122 A 
HETATM   18  C   UNL     1      29.957  43.381  54.917  1.00  0.00     0.107 A 
HETATM   19  O   UNL     1      29.903  45.289  56.140  1.00  0.00    -0.322 OA
HETATM   20  O   UNL     1      30.995  43.177  55.771  1.00  0.00    -0.323 OA
HETATM   21  C   UNL     1      29.548  42.496  53.939  1.00  0.00     0.048 A 
HETATM   22  C   UNL     1      30.982  44.411  56.520  1.00  0.00     0.352 A 
ENDBRANCH  12  13
ENDBRANCH   1  12
TORSDOF 4
ENDMDL
