MODEL 1
REMARK VINA RESULT:      -9.9      0.000      0.000
REMARK  8 active torsions:
REMARK  status: ('A' for Active; 'I' for Inactive)
REMARK    1  A    between atoms: C_2  and  N_3 
REMARK    2  A    between atoms: N_3  and  N_4 
REMARK       I    between atoms: N_4  and  C_5 
REMARK    3  A    between atoms: C_5  and  C_6 
REMARK       I    between atoms: C_6  and  N_7 
REMARK    4  A    between atoms: N_7  and  C_8 
REMARK    5  A    between atoms: C_16  and  C_17 
REMARK       I    between atoms: C_17  and  N_18 
REMARK    6  A    between atoms: N_18  and  C_19 
REMARK    7  A    between atoms: C_22  and  N_23 
REMARK    8  A    between atoms: N_23  and  C_24 
ROOT
HETATM    1  C   UNL     1      21.901  44.445  48.089  1.00  0.00     0.063 C 
HETATM    2  C   UNL     1      22.979  45.098  48.932  1.00  0.00     0.007 C 
HETATM    3  C   UNL     1      24.044  44.345  49.281  1.00  0.00     0.094 C 
ENDROOT
BRANCH   3   4
HETATM    4  C   UNL     1      25.164  44.739  50.185  1.00  0.00     0.247 C 
HETATM    5  N   UNL     1      24.726  44.947  51.480  1.00  0.00    -0.324 N 
HETATM    6  H   UNL     1      23.801  44.614  51.720  1.00  0.00     0.169 HD
HETATM    7  O   UNL     1      26.320  44.825  49.791  1.00  0.00    -0.268 OA
BRANCH   5   8
HETATM    8  C   UNL     1      25.492  45.456  52.549  1.00  0.00     0.035 A 
HETATM    9  C   UNL     1      25.771  46.813  52.715  1.00  0.00     0.031 A 
HETATM   10  C   UNL     1      26.536  47.253  53.800  1.00  0.00     0.026 A 
HETATM   11  C   UNL     1      27.080  46.344  54.715  1.00  0.00     0.012 A 
HETATM   12  C   UNL     1      26.754  44.991  54.574  1.00  0.00     0.026 A 
HETATM   13  C   UNL     1      25.961  44.552  53.506  1.00  0.00     0.031 A 
BRANCH  11  14
HETATM   14  N   UNL     1      27.871  46.826  55.794  1.00  0.00    -0.260 NA
HETATM   15  H   UNL     1      28.288  47.711  55.507  1.00  0.00     0.134 HD
BRANCH  14  16
HETATM   16  C   UNL     1      28.891  46.045  56.399  1.00  0.00     0.012 A 
HETATM   17  C   UNL     1      29.754  45.271  55.620  1.00  0.00     0.024 A 
HETATM   18  C   UNL     1      30.790  44.548  56.219  1.00  0.00     0.002 A 
HETATM   19  C   UNL     1      30.977  44.609  57.599  1.00  0.00     0.000 A 
HETATM   20  C   UNL     1      30.133  45.394  58.382  1.00  0.00     0.002 A 
HETATM   21  C   UNL     1      29.098  46.114  57.784  1.00  0.00     0.024 A 
ENDBRANCH  14  16
ENDBRANCH  11  14
ENDBRANCH   5   8
ENDBRANCH   3   4
BRANCH   2  22
HETATM   22  N   UNL     1      22.716  46.426  49.250  1.00  0.00    -0.207 NA
HETATM   23  H   UNL     1      21.761  46.566  49.600  1.00  0.00     0.152 HD
BRANCH  22  24
HETATM   24  N   UNL     1      23.053  47.457  48.351  1.00  0.00    -0.279 N 
HETATM   25  C   UNL     1      23.613  48.606  48.880  1.00  0.00     0.323 C 
HETATM   26  O   UNL     1      24.043  48.706  50.021  1.00  0.00    -0.261 OA
HETATM   27  H   UNL     1      22.562  47.453  47.451  1.00  0.00     0.184 HD
BRANCH  25  28
HETATM   28  C   UNL     1      23.578  49.800  47.921  1.00  0.00     0.311 C 
HETATM   29  N   UNL     1      22.405  50.459  47.646  1.00  0.00    -0.348 N 
HETATM   30  H   UNL     1      22.557  51.217  46.991  1.00  0.00     0.163 HD
HETATM   31  O   UNL     1      24.628  50.166  47.399  1.00  0.00    -0.262 OA
BRANCH  29  32
HETATM   32  C   UNL     1      21.057  50.342  48.208  1.00  0.00     0.084 C 
HETATM   33  C   UNL     1      20.514  51.642  48.830  1.00  0.00     0.025 C 
HETATM   34  C   UNL     1      19.139  52.126  48.371  1.00  0.00     0.002 C 
HETATM   35  C   UNL     1      18.213  51.004  47.939  1.00  0.00     0.000 C 
HETATM   36  C   UNL     1      18.866  50.187  46.837  1.00  0.00     0.002 C 
HETATM   37  C   UNL     1      20.119  49.490  47.340  1.00  0.00     0.025 C 
ENDBRANCH  29  32
ENDBRANCH  25  28
ENDBRANCH  22  24
ENDBRANCH   2  22
TORSDOF 8
ENDMDL
MODEL 2
REMARK VINA RESULT:      -9.9      2.340      3.566
REMARK  8 active torsions:
REMARK  status: ('A' for Active; 'I' for Inactive)
REMARK    1  A    between atoms: C_2  and  N_3 
REMARK    2  A    between atoms: N_3  and  N_4 
REMARK       I    between atoms: N_4  and  C_5 
REMARK    3  A    between atoms: C_5  and  C_6 
REMARK       I    between atoms: C_6  and  N_7 
REMARK    4  A    between atoms: N_7  and  C_8 
REMARK    5  A    between atoms: C_16  and  C_17 
REMARK       I    between atoms: C_17  and  N_18 
REMARK    6  A    between atoms: N_18  and  C_19 
REMARK    7  A    between atoms: C_22  and  N_23 
REMARK    8  A    between atoms: N_23  and  C_24 
ROOT
HETATM    1  C   UNL     1      23.178  50.533  47.640  1.00  0.00     0.063 C 
HETATM    2  C   UNL     1      23.857  49.725  48.729  1.00  0.00     0.007 C 
HETATM    3  C   UNL     1      25.173  49.461  48.584  1.00  0.00     0.094 C 
ENDROOT
BRANCH   3   4
HETATM    4  C   UNL     1      26.019  48.603  49.466  1.00  0.00     0.247 C 
HETATM    5  N   UNL     1      25.284  47.582  50.041  1.00  0.00    -0.324 N 
HETATM    6  H   UNL     1      24.368  47.392  49.657  1.00  0.00     0.169 HD
HETATM    7  O   UNL     1      27.218  48.800  49.610  1.00  0.00    -0.268 OA
BRANCH   5   8
HETATM    8  C   UNL     1      25.738  46.680  51.025  1.00  0.00     0.035 A 
HETATM    9  C   UNL     1      25.479  46.834  52.386  1.00  0.00     0.031 A 
HETATM   10  C   UNL     1      25.956  45.899  53.312  1.00  0.00     0.026 A 
HETATM   11  C   UNL     1      26.744  44.817  52.902  1.00  0.00     0.012 A 
HETATM   12  C   UNL     1      26.957  44.638  51.531  1.00  0.00     0.026 A 
HETATM   13  C   UNL     1      26.452  45.555  50.600  1.00  0.00     0.031 A 
BRANCH  11  14
HETATM   14  N   UNL     1      27.231  43.899  53.873  1.00  0.00    -0.260 NA
HETATM   15  H   UNL     1      26.506  43.774  54.579  1.00  0.00     0.134 HD
BRANCH  14  16
HETATM   16  C   UNL     1      28.465  44.089  54.550  1.00  0.00     0.012 A 
HETATM   17  C   UNL     1      28.698  45.246  55.297  1.00  0.00     0.024 A 
HETATM   18  C   UNL     1      29.893  45.401  56.006  1.00  0.00     0.002 A 
HETATM   19  C   UNL     1      30.855  44.391  55.982  1.00  0.00     0.000 A 
HETATM   20  C   UNL     1      30.622  43.225  55.255  1.00  0.00     0.002 A 
HETATM   21  C   UNL     1      29.430  43.072  54.547  1.00  0.00     0.024 A 
ENDBRANCH  14  16
ENDBRANCH  11  14
ENDBRANCH   5   8
ENDBRANCH   3   4
BRANCH   2  22
HETATM   22  N   UNL     1      23.005  49.344  49.760  1.00  0.00    -0.207 NA
HETATM   23  H   UNL     1      23.288  48.460  50.199  1.00  0.00     0.152 HD
BRANCH  22  24
HETATM   24  N   UNL     1      21.609  49.364  49.579  1.00  0.00    -0.279 N 
HETATM   25  C   UNL     1      20.889  50.314  50.281  1.00  0.00     0.323 C 
HETATM   26  O   UNL     1      21.384  51.270  50.862  1.00  0.00    -0.261 OA
HETATM   27  H   UNL     1      21.182  48.496  49.241  1.00  0.00     0.184 HD
BRANCH  25  28
HETATM   28  C   UNL     1      19.387  50.020  50.341  1.00  0.00     0.311 C 
HETATM   29  N   UNL     1      18.538  50.437  49.346  1.00  0.00    -0.348 N 
HETATM   30  H   UNL     1      17.582  50.166  49.544  1.00  0.00     0.163 HD
HETATM   31  O   UNL     1      18.949  49.391  51.302  1.00  0.00    -0.262 OA
BRANCH  29  32
HETATM   32  C   UNL     1      18.781  51.067  48.046  1.00  0.00     0.084 C 
HETATM   33  C   UNL     1      19.279  50.101  46.955  1.00  0.00     0.025 C 
HETATM   34  C   UNL     1      18.528  50.088  45.624  1.00  0.00     0.002 C 
HETATM   35  C   UNL     1      17.889  51.419  45.275  1.00  0.00     0.000 C 
HETATM   36  C   UNL     1      16.953  51.854  46.390  1.00  0.00     0.002 C 
HETATM   37  C   UNL     1      17.718  52.111  47.678  1.00  0.00     0.025 C 
ENDBRANCH  29  32
ENDBRANCH  25  28
ENDBRANCH  22  24
ENDBRANCH   2  22
TORSDOF 8
ENDMDL
MODEL 3
REMARK VINA RESULT:      -9.9      2.231      3.370
REMARK  8 active torsions:
REMARK  status: ('A' for Active; 'I' for Inactive)
REMARK    1  A    between atoms: C_2  and  N_3 
REMARK    2  A    between atoms: N_3  and  N_4 
REMARK       I    between atoms: N_4  and  C_5 
REMARK    3  A    between atoms: C_5  and  C_6 
REMARK       I    between atoms: C_6  and  N_7 
REMARK    4  A    between atoms: N_7  and  C_8 
REMARK    5  A    between atoms: C_16  and  C_17 
REMARK       I    between atoms: C_17  and  N_18 
REMARK    6  A    between atoms: N_18  and  C_19 
REMARK    7  A    between atoms: C_22  and  N_23 
REMARK    8  A    between atoms: N_23  and  C_24 
ROOT
HETATM    1  C   UNL     1      23.325  50.688  47.804  1.00  0.00     0.063 C 
HETATM    2  C   UNL     1      24.045  49.813  48.813  1.00  0.00     0.007 C 
HETATM    3  C   UNL     1      25.347  49.537  48.585  1.00  0.00     0.094 C 
ENDROOT
BRANCH   3   4
HETATM    4  C   UNL     1      26.221  48.622  49.377  1.00  0.00     0.247 C 
HETATM    5  N   UNL     1      25.500  47.580  49.931  1.00  0.00    -0.324 N 
HETATM    6  H   UNL     1      24.563  47.423  49.584  1.00  0.00     0.169 HD
HETATM    7  O   UNL     1      27.429  48.795  49.471  1.00  0.00    -0.268 OA
BRANCH   5   8
HETATM    8  C   UNL     1      25.987  46.620  50.841  1.00  0.00     0.035 A 
HETATM    9  C   UNL     1      25.804  46.706  52.221  1.00  0.00     0.031 A 
HETATM   10  C   UNL     1      26.311  45.716  53.070  1.00  0.00     0.026 A 
HETATM   11  C   UNL     1      27.054  44.644  52.563  1.00  0.00     0.012 A 
HETATM   12  C   UNL     1      27.191  44.533  51.175  1.00  0.00     0.026 A 
HETATM   13  C   UNL     1      26.655  45.507  50.321  1.00  0.00     0.031 A 
BRANCH  11  14
HETATM   14  N   UNL     1      27.574  43.668  53.457  1.00  0.00    -0.260 NA
HETATM   15  H   UNL     1      26.806  43.336  54.041  1.00  0.00     0.134 HD
BRANCH  14  16
HETATM   16  C   UNL     1      28.682  43.926  54.307  1.00  0.00     0.012 A 
HETATM   17  C   UNL     1      28.744  45.099  55.062  1.00  0.00     0.024 A 
HETATM   18  C   UNL     1      29.811  45.321  55.937  1.00  0.00     0.002 A 
HETATM   19  C   UNL     1      30.814  44.361  56.073  1.00  0.00     0.000 A 
HETATM   20  C   UNL     1      30.750  43.179  55.338  1.00  0.00     0.002 A 
HETATM   21  C   UNL     1      29.685  42.959  54.463  1.00  0.00     0.024 A 
ENDBRANCH  14  16
ENDBRANCH  11  14
ENDBRANCH   5   8
ENDBRANCH   3   4
BRANCH   2  22
HETATM   22  N   UNL     1      23.241  49.393  49.867  1.00  0.00    -0.207 NA
HETATM   23  H   UNL     1      23.724  48.738  50.493  1.00  0.00     0.152 HD
BRANCH  22  24
HETATM   24  N   UNL     1      21.925  48.950  49.630  1.00  0.00    -0.279 N 
HETATM   25  C   UNL     1      21.766  47.798  48.882  1.00  0.00     0.323 C 
HETATM   26  O   UNL     1      22.668  47.019  48.607  1.00  0.00    -0.261 OA
HETATM   27  H   UNL     1      21.187  49.657  49.708  1.00  0.00     0.184 HD
BRANCH  25  28
HETATM   28  C   UNL     1      20.344  47.612  48.343  1.00  0.00     0.311 C 
HETATM   29  N   UNL     1      19.399  48.600  48.469  1.00  0.00    -0.348 N 
HETATM   30  H   UNL     1      18.515  48.313  48.067  1.00  0.00     0.163 HD
HETATM   31  O   UNL     1      20.060  46.555  47.784  1.00  0.00    -0.262 OA
BRANCH  29  32
HETATM   32  C   UNL     1      19.479  49.981  48.951  1.00  0.00     0.084 C 
HETATM   33  C   UNL     1      19.627  51.034  47.837  1.00  0.00     0.025 C 
HETATM   34  C   UNL     1      18.646  52.206  47.835  1.00  0.00     0.002 C 
HETATM   35  C   UNL     1      18.141  52.577  49.217  1.00  0.00     0.000 C 
HETATM   36  C   UNL     1      17.498  51.368  49.876  1.00  0.00     0.002 C 
HETATM   37  C   UNL     1      18.518  50.266  50.114  1.00  0.00     0.025 C 
ENDBRANCH  29  32
ENDBRANCH  25  28
ENDBRANCH  22  24
ENDBRANCH   2  22
TORSDOF 8
ENDMDL
MODEL 4
REMARK VINA RESULT:      -9.7      2.596      3.866
REMARK  8 active torsions:
REMARK  status: ('A' for Active; 'I' for Inactive)
REMARK    1  A    between atoms: C_2  and  N_3 
REMARK    2  A    between atoms: N_3  and  N_4 
REMARK       I    between atoms: N_4  and  C_5 
REMARK    3  A    between atoms: C_5  and  C_6 
REMARK       I    between atoms: C_6  and  N_7 
REMARK    4  A    between atoms: N_7  and  C_8 
REMARK    5  A    between atoms: C_16  and  C_17 
REMARK       I    between atoms: C_17  and  N_18 
REMARK    6  A    between atoms: N_18  and  C_19 
REMARK    7  A    between atoms: C_22  and  N_23 
REMARK    8  A    between atoms: N_23  and  C_24 
ROOT
HETATM    1  C   UNL     1      22.780  50.589  47.583  1.00  0.00     0.063 C 
HETATM    2  C   UNL     1      22.880  49.583  48.714  1.00  0.00     0.007 C 
HETATM    3  C   UNL     1      23.779  48.584  48.586  1.00  0.00     0.094 C 
ENDROOT
BRANCH   3   4
HETATM    4  C   UNL     1      23.978  47.431  49.513  1.00  0.00     0.247 C 
HETATM    5  N   UNL     1      25.021  47.658  50.393  1.00  0.00    -0.324 N 
HETATM    6  H   UNL     1      25.372  48.603  50.468  1.00  0.00     0.169 HD
HETATM    7  O   UNL     1      23.261  46.440  49.483  1.00  0.00    -0.268 OA
BRANCH   5   8
HETATM    8  C   UNL     1      25.561  46.727  51.304  1.00  0.00     0.035 A 
HETATM    9  C   UNL     1      25.374  46.806  52.684  1.00  0.00     0.031 A 
HETATM   10  C   UNL     1      25.936  45.847  53.534  1.00  0.00     0.026 A 
HETATM   11  C   UNL     1      26.736  44.816  53.028  1.00  0.00     0.012 A 
HETATM   12  C   UNL     1      26.876  44.710  51.640  1.00  0.00     0.026 A 
HETATM   13  C   UNL     1      26.288  45.651  50.785  1.00  0.00     0.031 A 
BRANCH  11  14
HETATM   14  N   UNL     1      27.308  43.871  53.924  1.00  0.00    -0.260 NA
HETATM   15  H   UNL     1      26.608  43.643  54.629  1.00  0.00     0.134 HD
BRANCH  14  16
HETATM   16  C   UNL     1      28.538  44.105  54.595  1.00  0.00     0.012 A 
HETATM   17  C   UNL     1      28.711  45.239  55.391  1.00  0.00     0.024 A 
HETATM   18  C   UNL     1      29.904  45.435  56.093  1.00  0.00     0.002 A 
HETATM   19  C   UNL     1      30.925  44.488  56.011  1.00  0.00     0.000 A 
HETATM   20  C   UNL     1      30.753  43.344  55.235  1.00  0.00     0.002 A 
HETATM   21  C   UNL     1      29.562  43.150  54.534  1.00  0.00     0.024 A 
ENDBRANCH  14  16
ENDBRANCH  11  14
ENDBRANCH   5   8
ENDBRANCH   3   4
BRANCH   2  22
HETATM   22  N   UNL     1      22.000  49.827  49.763  1.00  0.00    -0.207 NA
HETATM   23  H   UNL     1      22.484  49.982  50.656  1.00  0.00     0.152 HD
BRANCH  22  24
HETATM   24  N   UNL     1      20.878  49.000  49.962  1.00  0.00    -0.279 N 
HETATM   25  C   UNL     1      19.687  49.613  50.308  1.00  0.00     0.323 C 
HETATM   26  O   UNL     1      19.479  50.816  50.233  1.00  0.00    -0.261 OA
HETATM   27  H   UNL     1      21.071  48.018  50.186  1.00  0.00     0.184 HD
BRANCH  25  28
HETATM   28  C   UNL     1      18.648  48.647  50.885  1.00  0.00     0.311 C 
HETATM   29  N   UNL     1      17.936  47.798  50.074  1.00  0.00    -0.348 N 
HETATM   30  H   UNL     1      17.290  47.234  50.613  1.00  0.00     0.163 HD
HETATM   31  O   UNL     1      18.464  48.638  52.100  1.00  0.00    -0.262 OA
BRANCH  29  32
HETATM   32  C   UNL     1      18.033  47.491  48.645  1.00  0.00     0.084 C 
HETATM   33  C   UNL     1      17.905  48.717  47.722  1.00  0.00     0.025 C 
HETATM   34  C   UNL     1      18.996  48.932  46.674  1.00  0.00     0.002 C 
HETATM   35  C   UNL     1      19.643  47.644  46.199  1.00  0.00     0.000 C 
HETATM   36  C   UNL     1      20.210  46.881  47.383  1.00  0.00     0.002 C 
HETATM   37  C   UNL     1      19.107  46.439  48.330  1.00  0.00     0.025 C 
ENDBRANCH  29  32
ENDBRANCH  25  28
ENDBRANCH  22  24
ENDBRANCH   2  22
TORSDOF 8
ENDMDL
MODEL 5
REMARK VINA RESULT:      -9.5      2.598      3.680
REMARK  8 active torsions:
REMARK  status: ('A' for Active; 'I' for Inactive)
REMARK    1  A    between atoms: C_2  and  N_3 
REMARK    2  A    between atoms: N_3  and  N_4 
REMARK       I    between atoms: N_4  and  C_5 
REMARK    3  A    between atoms: C_5  and  C_6 
REMARK       I    between atoms: C_6  and  N_7 
REMARK    4  A    between atoms: N_7  and  C_8 
REMARK    5  A    between atoms: C_16  and  C_17 
REMARK       I    between atoms: C_17  and  N_18 
REMARK    6  A    between atoms: N_18  and  C_19 
REMARK    7  A    between atoms: C_22  and  N_23 
REMARK    8  A    between atoms: N_23  and  C_24 
ROOT
HETATM    1  C   UNL     1      22.253  50.144  47.899  1.00  0.00     0.063 C 
HETATM    2  C   UNL     1      22.424  48.961  48.833  1.00  0.00     0.007 C 
HETATM    3  C   UNL     1      23.643  48.382  48.894  1.00  0.00     0.094 C 
ENDROOT
BRANCH   3   4
HETATM    4  C   UNL     1      24.015  47.153  49.654  1.00  0.00     0.247 C 
HETATM    5  N   UNL     1      24.969  47.420  50.620  1.00  0.00    -0.324 N 
HETATM    6  H   UNL     1      25.140  48.389  50.853  1.00  0.00     0.169 HD
HETATM    7  O   UNL     1      23.491  46.069  49.436  1.00  0.00    -0.268 OA
BRANCH   5   8
HETATM    8  C   UNL     1      25.637  46.468  51.418  1.00  0.00     0.035 A 
HETATM    9  C   UNL     1      26.499  45.502  50.901  1.00  0.00     0.031 A 
HETATM   10  C   UNL     1      27.133  44.587  51.749  1.00  0.00     0.026 A 
HETATM   11  C   UNL     1      26.882  44.588  53.126  1.00  0.00     0.012 A 
HETATM   12  C   UNL     1      26.058  45.591  53.646  1.00  0.00     0.026 A 
HETATM   13  C   UNL     1      25.447  46.528  52.802  1.00  0.00     0.031 A 
BRANCH  11  14
HETATM   14  N   UNL     1      27.527  43.629  53.955  1.00  0.00    -0.260 NA
HETATM   15  H   UNL     1      26.845  43.290  54.633  1.00  0.00     0.134 HD
BRANCH  14  16
HETATM   16  C   UNL     1      28.728  43.915  54.657  1.00  0.00     0.012 A 
HETATM   17  C   UNL     1      28.884  45.122  55.342  1.00  0.00     0.024 A 
HETATM   18  C   UNL     1      30.047  45.372  56.077  1.00  0.00     0.002 A 
HETATM   19  C   UNL     1      31.053  44.408  56.142  1.00  0.00     0.000 A 
HETATM   20  C   UNL     1      30.897  43.193  55.478  1.00  0.00     0.002 A 
HETATM   21  C   UNL     1      29.736  42.944  54.743  1.00  0.00     0.024 A 
ENDBRANCH  14  16
ENDBRANCH  11  14
ENDBRANCH   5   8
ENDBRANCH   3   4
BRANCH   2  22
HETATM   22  N   UNL     1      21.266  48.615  49.520  1.00  0.00    -0.207 NA
HETATM   23  H   UNL     1      21.384  47.771  50.092  1.00  0.00     0.152 HD
BRANCH  22  24
HETATM   24  N   UNL     1      20.025  48.573  48.853  1.00  0.00    -0.279 N 
HETATM   25  C   UNL     1      18.888  48.451  49.631  1.00  0.00     0.323 C 
HETATM   26  O   UNL     1      18.858  48.604  50.844  1.00  0.00    -0.261 OA
HETATM   27  H   UNL     1      20.048  48.285  47.870  1.00  0.00     0.184 HD
BRANCH  25  28
HETATM   28  C   UNL     1      17.651  48.017  48.839  1.00  0.00     0.311 C 
HETATM   29  N   UNL     1      16.812  48.941  48.265  1.00  0.00    -0.348 N 
HETATM   30  H   UNL     1      16.043  48.488  47.786  1.00  0.00     0.163 HD
HETATM   31  O   UNL     1      17.420  46.816  48.718  1.00  0.00    -0.262 OA
BRANCH  29  32
HETATM   32  C   UNL     1      16.901  50.396  48.125  1.00  0.00     0.084 C 
HETATM   33  C   UNL     1      16.844  51.167  49.457  1.00  0.00     0.025 C 
HETATM   34  C   UNL     1      17.951  52.184  49.735  1.00  0.00     0.002 C 
HETATM   35  C   UNL     1      18.531  52.808  48.480  1.00  0.00     0.000 C 
HETATM   36  C   UNL     1      19.049  51.723  47.552  1.00  0.00     0.002 C 
HETATM   37  C   UNL     1      17.918  50.834  47.061  1.00  0.00     0.025 C 
ENDBRANCH  29  32
ENDBRANCH  25  28
ENDBRANCH  22  24
ENDBRANCH   2  22
TORSDOF 8
ENDMDL
MODEL 6
REMARK VINA RESULT:      -9.3      2.572     11.552
REMARK  8 active torsions:
REMARK  status: ('A' for Active; 'I' for Inactive)
REMARK    1  A    between atoms: C_2  and  N_3 
REMARK    2  A    between atoms: N_3  and  N_4 
REMARK       I    between atoms: N_4  and  C_5 
REMARK    3  A    between atoms: C_5  and  C_6 
REMARK       I    between atoms: C_6  and  N_7 
REMARK    4  A    between atoms: N_7  and  C_8 
REMARK    5  A    between atoms: C_16  and  C_17 
REMARK       I    between atoms: C_17  and  N_18 
REMARK    6  A    between atoms: N_18  and  C_19 
REMARK    7  A    between atoms: C_22  and  N_23 
REMARK    8  A    between atoms: N_23  and  C_24 
ROOT
HETATM    1  C   UNL     1      27.908  48.970  49.033  1.00  0.00     0.063 C 
HETATM    2  C   UNL     1      26.483  48.734  49.496  1.00  0.00     0.007 C 
HETATM    3  C   UNL     1      25.485  49.191  48.708  1.00  0.00     0.094 C 
ENDROOT
BRANCH   3   4
HETATM    4  C   UNL     1      24.023  49.167  49.008  1.00  0.00     0.247 C 
HETATM    5  N   UNL     1      23.290  49.810  48.027  1.00  0.00    -0.324 N 
HETATM    6  H   UNL     1      23.758  50.016  47.154  1.00  0.00     0.169 HD
HETATM    7  O   UNL     1      23.571  48.608  49.999  1.00  0.00    -0.268 OA
BRANCH   5   8
HETATM    8  C   UNL     1      21.908  50.087  48.065  1.00  0.00     0.035 A 
HETATM    9  C   UNL     1      21.380  51.294  48.522  1.00  0.00     0.031 A 
HETATM   10  C   UNL     1      19.997  51.506  48.530  1.00  0.00     0.026 A 
HETATM   11  C   UNL     1      19.110  50.500  48.129  1.00  0.00     0.012 A 
HETATM   12  C   UNL     1      19.647  49.311  47.623  1.00  0.00     0.026 A 
HETATM   13  C   UNL     1      21.032  49.109  47.583  1.00  0.00     0.031 A 
BRANCH  11  14
HETATM   14  N   UNL     1      17.709  50.743  48.173  1.00  0.00    -0.260 NA
HETATM   15  H   UNL     1      17.234  49.841  48.171  1.00  0.00     0.134 HD
BRANCH  14  16
HETATM   16  C   UNL     1      17.052  51.579  47.232  1.00  0.00     0.012 A 
HETATM   17  C   UNL     1      17.624  51.837  45.984  1.00  0.00     0.024 A 
HETATM   18  C   UNL     1      16.946  52.616  45.042  1.00  0.00     0.002 A 
HETATM   19  C   UNL     1      15.683  53.129  45.340  1.00  0.00     0.000 A 
HETATM   20  C   UNL     1      15.096  52.860  46.575  1.00  0.00     0.002 A 
HETATM   21  C   UNL     1      15.775  52.084  47.515  1.00  0.00     0.024 A 
ENDBRANCH  14  16
ENDBRANCH  11  14
ENDBRANCH   5   8
ENDBRANCH   3   4
BRANCH   2  22
HETATM   22  N   UNL     1      26.390  48.064  50.710  1.00  0.00    -0.207 NA
HETATM   23  H   UNL     1      27.271  48.080  51.238  1.00  0.00     0.152 HD
BRANCH  22  24
HETATM   24  N   UNL     1      25.816  46.779  50.776  1.00  0.00    -0.279 N 
HETATM   25  C   UNL     1      25.448  46.309  52.024  1.00  0.00     0.323 C 
HETATM   26  O   UNL     1      25.373  46.999  53.031  1.00  0.00    -0.261 OA
HETATM   27  H   UNL     1      26.021  46.149  49.993  1.00  0.00     0.184 HD
BRANCH  25  28
HETATM   28  C   UNL     1      25.213  44.796  52.061  1.00  0.00     0.311 C 
HETATM   29  N   UNL     1      26.254  43.917  52.232  1.00  0.00    -0.348 N 
HETATM   30  H   UNL     1      25.928  42.958  52.227  1.00  0.00     0.163 HD
HETATM   31  O   UNL     1      24.065  44.375  51.940  1.00  0.00    -0.262 OA
BRANCH  29  32
HETATM   32  C   UNL     1      27.673  44.121  52.533  1.00  0.00     0.084 C 
HETATM   33  C   UNL     1      27.954  44.625  53.961  1.00  0.00     0.025 C 
HETATM   34  C   UNL     1      28.972  43.851  54.798  1.00  0.00     0.002 C 
HETATM   35  C   UNL     1      30.046  43.170  53.970  1.00  0.00     0.000 C 
HETATM   36  C   UNL     1      29.406  42.243  52.951  1.00  0.00     0.002 C 
HETATM   37  C   UNL     1      28.573  43.023  51.948  1.00  0.00     0.025 C 
ENDBRANCH  29  32
ENDBRANCH  25  28
ENDBRANCH  22  24
ENDBRANCH   2  22
TORSDOF 8
ENDMDL
MODEL 7
REMARK VINA RESULT:      -9.3      1.666      2.354
REMARK  8 active torsions:
REMARK  status: ('A' for Active; 'I' for Inactive)
REMARK    1  A    between atoms: C_2  and  N_3 
REMARK    2  A    between atoms: N_3  and  N_4 
REMARK       I    between atoms: N_4  and  C_5 
REMARK    3  A    between atoms: C_5  and  C_6 
REMARK       I    between atoms: C_6  and  N_7 
REMARK    4  A    between atoms: N_7  and  C_8 
REMARK    5  A    between atoms: C_16  and  C_17 
REMARK       I    between atoms: C_17  and  N_18 
REMARK    6  A    between atoms: N_18  and  C_19 
REMARK    7  A    between atoms: C_22  and  N_23 
REMARK    8  A    between atoms: N_23  and  C_24 
ROOT
HETATM    1  C   UNL     1      21.552  46.238  47.555  1.00  0.00     0.063 C 
HETATM    2  C   UNL     1      22.767  46.238  48.463  1.00  0.00     0.007 C 
HETATM    3  C   UNL     1      23.234  45.043  48.884  1.00  0.00     0.094 C 
ENDROOT
BRANCH   3   4
HETATM    4  C   UNL     1      24.340  44.804  49.857  1.00  0.00     0.247 C 
HETATM    5  N   UNL     1      24.139  45.495  51.038  1.00  0.00    -0.324 N 
HETATM    6  H   UNL     1      23.220  45.882  51.203  1.00  0.00     0.169 HD
HETATM    7  O   UNL     1      25.277  44.056  49.608  1.00  0.00    -0.268 OA
BRANCH   5   8
HETATM    8  C   UNL     1      25.051  45.601  52.108  1.00  0.00     0.035 A 
HETATM    9  C   UNL     1      25.228  44.604  53.068  1.00  0.00     0.031 A 
HETATM   10  C   UNL     1      26.153  44.771  54.104  1.00  0.00     0.026 A 
HETATM   11  C   UNL     1      26.886  45.957  54.233  1.00  0.00     0.012 A 
HETATM   12  C   UNL     1      26.744  46.931  53.239  1.00  0.00     0.026 A 
HETATM   13  C   UNL     1      25.842  46.752  52.182  1.00  0.00     0.031 A 
BRANCH  11  14
HETATM   14  N   UNL     1      27.801  46.100  55.312  1.00  0.00    -0.260 NA
HETATM   15  H   UNL     1      28.137  47.063  55.313  1.00  0.00     0.134 HD
BRANCH  14  16
HETATM   16  C   UNL     1      28.927  45.249  55.474  1.00  0.00     0.012 A 
HETATM   17  C   UNL     1      29.798  45.416  56.553  1.00  0.00     0.024 A 
HETATM   18  C   UNL     1      30.872  44.540  56.736  1.00  0.00     0.002 A 
HETATM   19  C   UNL     1      31.070  43.483  55.848  1.00  0.00     0.000 A 
HETATM   20  C   UNL     1      30.195  43.298  54.780  1.00  0.00     0.002 A 
HETATM   21  C   UNL     1      29.124  44.173  54.597  1.00  0.00     0.024 A 
ENDBRANCH  14  16
ENDBRANCH  11  14
ENDBRANCH   5   8
ENDBRANCH   3   4
BRANCH   2  22
HETATM   22  N   UNL     1      23.250  47.508  48.756  1.00  0.00    -0.207 NA
HETATM   23  H   UNL     1      24.226  47.495  49.076  1.00  0.00     0.152 HD
BRANCH  22  24
HETATM   24  N   UNL     1      22.496  48.394  49.551  1.00  0.00    -0.279 N 
HETATM   25  C   UNL     1      22.132  49.604  48.988  1.00  0.00     0.323 C 
HETATM   26  O   UNL     1      22.216  49.867  47.796  1.00  0.00    -0.261 OA
HETATM   27  H   UNL     1      22.562  48.262  50.566  1.00  0.00     0.184 HD
BRANCH  25  28
HETATM   28  C   UNL     1      21.679  50.644  50.016  1.00  0.00     0.311 C 
HETATM   29  N   UNL     1      20.348  50.912  50.220  1.00  0.00    -0.348 N 
HETATM   30  H   UNL     1      20.223  51.627  50.926  1.00  0.00     0.163 HD
HETATM   31  O   UNL     1      22.534  51.238  50.669  1.00  0.00    -0.262 OA
BRANCH  29  32
HETATM   32  C   UNL     1      19.128  50.284  49.705  1.00  0.00     0.084 C 
HETATM   33  C   UNL     1      18.881  50.513  48.203  1.00  0.00     0.025 C 
HETATM   34  C   UNL     1      18.619  49.283  47.333  1.00  0.00     0.002 C 
HETATM   35  C   UNL     1      17.961  48.139  48.082  1.00  0.00     0.000 C 
HETATM   36  C   UNL     1      18.807  47.750  49.282  1.00  0.00     0.002 C 
HETATM   37  C   UNL     1      18.884  48.885  50.290  1.00  0.00     0.025 C 
ENDBRANCH  29  32
ENDBRANCH  25  28
ENDBRANCH  22  24
ENDBRANCH   2  22
TORSDOF 8
ENDMDL
MODEL 8
REMARK VINA RESULT:      -9.3      2.557      3.882
REMARK  8 active torsions:
REMARK  status: ('A' for Active; 'I' for Inactive)
REMARK    1  A    between atoms: C_2  and  N_3 
REMARK    2  A    between atoms: N_3  and  N_4 
REMARK       I    between atoms: N_4  and  C_5 
REMARK    3  A    between atoms: C_5  and  C_6 
REMARK       I    between atoms: C_6  and  N_7 
REMARK    4  A    between atoms: N_7  and  C_8 
REMARK    5  A    between atoms: C_16  and  C_17 
REMARK       I    between atoms: C_17  and  N_18 
REMARK    6  A    between atoms: N_18  and  C_19 
REMARK    7  A    between atoms: C_22  and  N_23 
REMARK    8  A    between atoms: N_23  and  C_24 
ROOT
HETATM    1  C   UNL     1      22.510  50.535  47.704  1.00  0.00     0.063 C 
HETATM    2  C   UNL     1      23.063  49.376  48.512  1.00  0.00     0.007 C 
HETATM    3  C   UNL     1      24.394  49.349  48.737  1.00  0.00     0.094 C 
ENDROOT
BRANCH   3   4
HETATM    4  C   UNL     1      25.168  48.263  49.408  1.00  0.00     0.247 C 
HETATM    5  N   UNL     1      24.427  47.647  50.400  1.00  0.00    -0.324 N 
HETATM    6  H   UNL     1      23.432  47.823  50.417  1.00  0.00     0.169 HD
HETATM    7  O   UNL     1      26.307  47.970  49.069  1.00  0.00    -0.268 OA
BRANCH   5   8
HETATM    8  C   UNL     1      24.897  46.681  51.314  1.00  0.00     0.035 A 
HETATM    9  C   UNL     1      24.771  45.307  51.112  1.00  0.00     0.031 A 
HETATM   10  C   UNL     1      25.262  44.401  52.059  1.00  0.00     0.026 A 
HETATM   11  C   UNL     1      25.846  44.849  53.250  1.00  0.00     0.012 A 
HETATM   12  C   UNL     1      26.018  46.226  53.423  1.00  0.00     0.026 A 
HETATM   13  C   UNL     1      25.556  47.134  52.461  1.00  0.00     0.031 A 
BRANCH  11  14
HETATM   14  N   UNL     1      26.315  43.899  54.199  1.00  0.00    -0.260 NA
HETATM   15  H   UNL     1      26.089  44.249  55.130  1.00  0.00     0.134 HD
BRANCH  14  16
HETATM   16  C   UNL     1      27.660  43.445  54.223  1.00  0.00     0.012 A 
HETATM   17  C   UNL     1      28.031  42.277  53.555  1.00  0.00     0.024 A 
HETATM   18  C   UNL     1      29.367  41.866  53.536  1.00  0.00     0.002 A 
HETATM   19  C   UNL     1      30.342  42.633  54.174  1.00  0.00     0.000 A 
HETATM   20  C   UNL     1      29.984  43.811  54.827  1.00  0.00     0.002 A 
HETATM   21  C   UNL     1      28.649  44.219  54.846  1.00  0.00     0.024 A 
ENDBRANCH  14  16
ENDBRANCH  11  14
ENDBRANCH   5   8
ENDBRANCH   3   4
BRANCH   2  22
HETATM   22  N   UNL     1      22.096  48.464  48.920  1.00  0.00    -0.207 NA
HETATM   23  H   UNL     1      21.693  47.939  48.135  1.00  0.00     0.152 HD
BRANCH  22  24
HETATM   24  N   UNL     1      21.077  48.853  49.811  1.00  0.00    -0.279 N 
HETATM   25  C   UNL     1      19.806  48.357  49.580  1.00  0.00     0.323 C 
HETATM   26  O   UNL     1      19.548  47.442  48.811  1.00  0.00    -0.261 OA
HETATM   27  H   UNL     1      21.239  49.718  50.337  1.00  0.00     0.184 HD
BRANCH  25  28
HETATM   28  C   UNL     1      18.708  49.122  50.326  1.00  0.00     0.311 C 
HETATM   29  N   UNL     1      17.808  49.912  49.655  1.00  0.00    -0.348 N 
HETATM   30  H   UNL     1      17.156  50.349  50.295  1.00  0.00     0.163 HD
HETATM   31  O   UNL     1      18.641  49.013  51.548  1.00  0.00    -0.262 OA
BRANCH  29  32
HETATM   32  C   UNL     1      17.558  50.122  48.226  1.00  0.00     0.084 C 
HETATM   33  C   UNL     1      16.070  50.260  47.855  1.00  0.00     0.025 C 
HETATM   34  C   UNL     1      15.657  51.478  47.029  1.00  0.00     0.002 C 
HETATM   35  C   UNL     1      16.754  51.995  46.118  1.00  0.00     0.000 C 
HETATM   36  C   UNL     1      17.994  52.322  46.933  1.00  0.00     0.002 C 
HETATM   37  C   UNL     1      18.573  51.073  47.576  1.00  0.00     0.025 C 
ENDBRANCH  29  32
ENDBRANCH  25  28
ENDBRANCH  22  24
ENDBRANCH   2  22
TORSDOF 8
ENDMDL
MODEL 9
REMARK VINA RESULT:      -9.2      1.812     11.017
REMARK  8 active torsions:
REMARK  status: ('A' for Active; 'I' for Inactive)
REMARK    1  A    between atoms: C_2  and  N_3 
REMARK    2  A    between atoms: N_3  and  N_4 
REMARK       I    between atoms: N_4  and  C_5 
REMARK    3  A    between atoms: C_5  and  C_6 
REMARK       I    between atoms: C_6  and  N_7 
REMARK    4  A    between atoms: N_7  and  C_8 
REMARK    5  A    between atoms: C_16  and  C_17 
REMARK       I    between atoms: C_17  and  N_18 
REMARK    6  A    between atoms: N_18  and  C_19 
REMARK    7  A    between atoms: C_22  and  N_23 
REMARK    8  A    between atoms: N_23  and  C_24 
ROOT
HETATM    1  C   UNL     1      26.395  43.803  49.780  1.00  0.00     0.063 C 
HETATM    2  C   UNL     1      25.567  44.935  50.357  1.00  0.00     0.007 C 
HETATM    3  C   UNL     1      25.027  45.819  49.492  1.00  0.00     0.094 C 
ENDROOT
BRANCH   3   4
HETATM    4  C   UNL     1      24.271  47.060  49.832  1.00  0.00     0.247 C 
HETATM    5  N   UNL     1      23.298  47.340  48.890  1.00  0.00    -0.324 N 
HETATM    6  H   UNL     1      23.058  46.608  48.235  1.00  0.00     0.169 HD
HETATM    7  O   UNL     1      24.499  47.704  50.848  1.00  0.00    -0.268 OA
BRANCH   5   8
HETATM    8  C   UNL     1      22.501  48.502  48.833  1.00  0.00     0.035 A 
HETATM    9  C   UNL     1      21.172  48.543  49.255  1.00  0.00     0.031 A 
HETATM   10  C   UNL     1      20.437  49.731  49.174  1.00  0.00     0.026 A 
HETATM   11  C   UNL     1      20.998  50.890  48.626  1.00  0.00     0.012 A 
HETATM   12  C   UNL     1      22.346  50.858  48.254  1.00  0.00     0.026 A 
HETATM   13  C   UNL     1      23.093  49.678  48.364  1.00  0.00     0.031 A 
BRANCH  11  14
HETATM   14  N   UNL     1      20.214  52.074  48.540  1.00  0.00    -0.260 NA
HETATM   15  H   UNL     1      20.496  52.693  49.299  1.00  0.00     0.134 HD
BRANCH  14  16
HETATM   16  C   UNL     1      18.795  52.047  48.507  1.00  0.00     0.012 A 
HETATM   17  C   UNL     1      18.049  52.386  49.638  1.00  0.00     0.024 A 
HETATM   18  C   UNL     1      16.652  52.411  49.582  1.00  0.00     0.002 A 
HETATM   19  C   UNL     1      15.996  52.109  48.389  1.00  0.00     0.000 A 
HETATM   20  C   UNL     1      16.733  51.788  47.251  1.00  0.00     0.002 A 
HETATM   21  C   UNL     1      18.127  51.763  47.308  1.00  0.00     0.024 A 
ENDBRANCH  14  16
ENDBRANCH  11  14
ENDBRANCH   5   8
ENDBRANCH   3   4
BRANCH   2  22
HETATM   22  N   UNL     1      25.478  44.916  51.745  1.00  0.00    -0.207 NA
HETATM   23  H   UNL     1      24.506  44.893  52.077  1.00  0.00     0.152 HD
BRANCH  22  24
HETATM   24  N   UNL     1      26.230  45.818  52.523  1.00  0.00    -0.279 N 
HETATM   25  C   UNL     1      25.978  45.850  53.882  1.00  0.00     0.323 C 
HETATM   26  O   UNL     1      25.326  45.010  54.487  1.00  0.00    -0.261 OA
HETATM   27  H   UNL     1      26.641  46.614  52.024  1.00  0.00     0.184 HD
BRANCH  25  28
HETATM   28  C   UNL     1      26.528  47.100  54.576  1.00  0.00     0.311 C 
HETATM   29  N   UNL     1      27.433  47.005  55.604  1.00  0.00    -0.348 N 
HETATM   30  H   UNL     1      27.688  47.922  55.952  1.00  0.00     0.163 HD
HETATM   31  O   UNL     1      26.148  48.203  54.189  1.00  0.00    -0.262 OA
BRANCH  29  32
HETATM   32  C   UNL     1      28.156  45.866  56.175  1.00  0.00     0.084 C 
HETATM   33  C   UNL     1      29.124  45.174  55.198  1.00  0.00     0.025 C 
HETATM   34  C   UNL     1      30.567  44.969  55.658  1.00  0.00     0.002 C 
HETATM   35  C   UNL     1      30.709  44.815  57.161  1.00  0.00     0.000 C 
HETATM   36  C   UNL     1      30.111  46.021  57.865  1.00  0.00     0.002 C 
HETATM   37  C   UNL     1      28.614  46.112  57.620  1.00  0.00     0.025 C 
ENDBRANCH  29  32
ENDBRANCH  25  28
ENDBRANCH  22  24
ENDBRANCH   2  22
TORSDOF 8
ENDMDL
MODEL 10
REMARK VINA RESULT:      -9.1      2.013      2.728
REMARK  8 active torsions:
REMARK  status: ('A' for Active; 'I' for Inactive)
REMARK    1  A    between atoms: C_2  and  N_3 
REMARK    2  A    between atoms: N_3  and  N_4 
REMARK       I    between atoms: N_4  and  C_5 
REMARK    3  A    between atoms: C_5  and  C_6 
REMARK       I    between atoms: C_6  and  N_7 
REMARK    4  A    between atoms: N_7  and  C_8 
REMARK    5  A    between atoms: C_16  and  C_17 
REMARK       I    between atoms: C_17  and  N_18 
REMARK    6  A    between atoms: N_18  and  C_19 
REMARK    7  A    between atoms: C_22  and  N_23 
REMARK    8  A    between atoms: N_23  and  C_24 
ROOT
HETATM    1  C   UNL     1      19.984  45.480  47.869  1.00  0.00     0.063 C 
HETATM    2  C   UNL     1      21.439  45.240  48.223  1.00  0.00     0.007 C 
HETATM    3  C   UNL     1      21.965  44.033  47.923  1.00  0.00     0.094 C 
ENDROOT
BRANCH   3   4
HETATM    4  C   UNL     1      23.330  43.538  48.269  1.00  0.00     0.247 C 
HETATM    5  N   UNL     1      23.731  43.978  49.518  1.00  0.00    -0.324 N 
HETATM    6  H   UNL     1      23.023  44.370  50.125  1.00  0.00     0.169 HD
HETATM    7  O   UNL     1      23.968  42.810  47.521  1.00  0.00    -0.268 OA
BRANCH   5   8
HETATM    8  C   UNL     1      25.008  43.809  50.092  1.00  0.00     0.035 A 
HETATM    9  C   UNL     1      26.077  44.672  49.852  1.00  0.00     0.031 A 
HETATM   10  C   UNL     1      27.320  44.449  50.456  1.00  0.00     0.026 A 
HETATM   11  C   UNL     1      27.534  43.333  51.273  1.00  0.00     0.012 A 
HETATM   12  C   UNL     1      26.446  42.501  51.552  1.00  0.00     0.026 A 
HETATM   13  C   UNL     1      25.192  42.741  50.974  1.00  0.00     0.031 A 
BRANCH  11  14
HETATM   14  N   UNL     1      28.817  43.127  51.853  1.00  0.00    -0.260 NA
HETATM   15  H   UNL     1      29.007  42.125  51.845  1.00  0.00     0.134 HD
BRANCH  14  16
HETATM   16  C   UNL     1      29.160  43.622  53.138  1.00  0.00     0.012 A 
HETATM   17  C   UNL     1      28.388  44.610  53.752  1.00  0.00     0.024 A 
HETATM   18  C   UNL     1      28.700  45.053  55.041  1.00  0.00     0.002 A 
HETATM   19  C   UNL     1      29.780  44.498  55.727  1.00  0.00     0.000 A 
HETATM   20  C   UNL     1      30.545  43.498  55.130  1.00  0.00     0.002 A 
HETATM   21  C   UNL     1      30.233  43.057  53.843  1.00  0.00     0.024 A 
ENDBRANCH  14  16
ENDBRANCH  11  14
ENDBRANCH   5   8
ENDBRANCH   3   4
BRANCH   2  22
HETATM   22  N   UNL     1      22.056  46.326  48.834  1.00  0.00    -0.207 NA
HETATM   23  H   UNL     1      21.520  46.684  49.633  1.00  0.00     0.152 HD
BRANCH  22  24
HETATM   24  N   UNL     1      22.542  47.400  48.062  1.00  0.00    -0.279 N 
HETATM   25  C   UNL     1      23.156  48.441  48.735  1.00  0.00     0.323 C 
HETATM   26  O   UNL     1      23.508  48.398  49.905  1.00  0.00    -0.261 OA
HETATM   27  H   UNL     1      22.119  47.521  47.136  1.00  0.00     0.184 HD
BRANCH  25  28
HETATM   28  C   UNL     1      23.290  49.715  47.895  1.00  0.00     0.311 C 
HETATM   29  N   UNL     1      22.204  50.510  47.627  1.00  0.00    -0.348 N 
HETATM   30  H   UNL     1      22.465  51.305  47.057  1.00  0.00     0.163 HD
HETATM   31  O   UNL     1      24.400  50.021  47.465  1.00  0.00    -0.262 OA
BRANCH  29  32
HETATM   32  C   UNL     1      20.820  50.477  48.106  1.00  0.00     0.084 C 
HETATM   33  C   UNL     1      20.375  51.749  48.851  1.00  0.00     0.025 C 
HETATM   34  C   UNL     1      19.086  52.428  48.387  1.00  0.00     0.002 C 
HETATM   35  C   UNL     1      18.079  51.467  47.783  1.00  0.00     0.000 C 
HETATM   36  C   UNL     1      18.710  50.714  46.625  1.00  0.00     0.002 C 
HETATM   37  C   UNL     1      19.854  49.834  47.101  1.00  0.00     0.025 C 
ENDBRANCH  29  32
ENDBRANCH  25  28
ENDBRANCH  22  24
ENDBRANCH   2  22
TORSDOF 8
ENDMDL
