MODEL 1
REMARK VINA RESULT:      -9.2      0.000      0.000
REMARK  5 active torsions:
REMARK  status: ('A' for Active; 'I' for Inactive)
REMARK    1  A    between atoms: C_3  and  N_4 
REMARK       I    between atoms: N_4  and  C_5 
REMARK    2  A    between atoms: C_5  and  C_6 
REMARK    3  A    between atoms: C_6  and  N_7 
REMARK    4  A    between atoms: C_6  and  C_16 
REMARK       I    between atoms: N_7  and  C_8 
REMARK    5  A    between atoms: C_8  and  C_9 
ROOT
HETATM    1  C   UNL     1      25.423  44.785  52.023  1.00  0.00     0.210 C 
ENDROOT
BRANCH   1   2
HETATM    2  C   UNL     1      26.362  44.364  53.195  1.00  0.00     0.249 C 
HETATM    3  N   UNL     1      27.703  44.673  53.032  1.00  0.00    -0.324 N 
HETATM    4  H   UNL     1      27.898  45.376  52.321  1.00  0.00     0.169 HD
HETATM    5  O   UNL     1      25.896  43.758  54.163  1.00  0.00    -0.270 OA
BRANCH   3   6
HETATM    6  C   UNL     1      28.699  44.492  54.023  1.00  0.00     0.046 A 
HETATM    7  C   UNL     1      29.551  43.368  54.050  1.00  0.00    -0.035 A 
HETATM    8  C   UNL     1      29.568  42.302  52.988  1.00  0.00     0.050 C 
HETATM    9  C   UNL     1      30.488  43.240  55.092  1.00  0.00     0.009 A 
HETATM   10  C   UNL     1      30.627  44.232  56.058  1.00  0.00     0.001 A 
HETATM   11  C   UNL     1      29.834  45.370  55.995  1.00  0.00     0.009 A 
HETATM   12  C   UNL     1      28.866  45.516  54.986  1.00  0.00    -0.035 A 
HETATM   13  C   UNL     1      28.019  46.761  54.995  1.00  0.00     0.050 C 
ENDBRANCH   3   6
ENDBRANCH   1   2
BRANCH   1  14
HETATM   14  N   UNL     1      25.815  46.016  51.337  1.00  0.00    -0.338 N 
HETATM   15  C   UNL     1      26.654  46.105  50.256  1.00  0.00     0.273 C 
HETATM   16  O   UNL     1      27.392  45.192  49.897  1.00  0.00    -0.266 OA
HETATM   17  H   UNL     1      25.222  46.833  51.461  1.00  0.00     0.164 HD
BRANCH  15  18
HETATM   18  C   UNL     1      26.596  47.405  49.575  1.00  0.00     0.145 A 
HETATM   19  N   UNL     1      27.661  47.914  48.922  1.00  0.00    -0.170 NA
HETATM   20  N   UNL     1      27.219  49.093  48.448  1.00  0.00    -0.289 N 
HETATM   21  H   UNL     1      27.860  49.667  47.907  1.00  0.00     0.188 HD
HETATM   22  C   UNL     1      25.926  49.363  48.776  1.00  0.00     0.112 A 
HETATM   23  C   UNL     1      25.488  48.288  49.509  1.00  0.00     0.058 A 
ENDBRANCH  15  18
ENDBRANCH   1  14
BRANCH   1  24
HETATM   24  C   UNL     1      25.001  43.644  51.095  1.00  0.00    -0.026 A 
HETATM   25  C   UNL     1      23.845  43.758  50.302  1.00  0.00     0.010 A 
HETATM   26  C   UNL     1      23.481  42.753  49.401  1.00  0.00     0.001 A 
HETATM   27  C   UNL     1      24.278  41.623  49.257  1.00  0.00     0.000 A 
HETATM   28  C   UNL     1      25.444  41.501  50.005  1.00  0.00     0.001 A 
HETATM   29  C   UNL     1      25.808  42.507  50.907  1.00  0.00     0.010 A 
ENDBRANCH   1  24
TORSDOF 5
ENDMDL
MODEL 2
REMARK VINA RESULT:      -9.2      0.190      1.719
REMARK  5 active torsions:
REMARK  status: ('A' for Active; 'I' for Inactive)
REMARK    1  A    between atoms: C_3  and  N_4 
REMARK       I    between atoms: N_4  and  C_5 
REMARK    2  A    between atoms: C_5  and  C_6 
REMARK    3  A    between atoms: C_6  and  N_7 
REMARK    4  A    between atoms: C_6  and  C_16 
REMARK       I    between atoms: N_7  and  C_8 
REMARK    5  A    between atoms: C_8  and  C_9 
ROOT
HETATM    1  C   UNL     1      25.525  44.705  52.015  1.00  0.00     0.210 C 
ENDROOT
BRANCH   1   2
HETATM    2  C   UNL     1      26.446  44.334  53.219  1.00  0.00     0.249 C 
HETATM    3  N   UNL     1      27.787  44.647  53.069  1.00  0.00    -0.324 N 
HETATM    4  H   UNL     1      27.991  45.325  52.337  1.00  0.00     0.169 HD
HETATM    5  O   UNL     1      25.965  43.760  54.199  1.00  0.00    -0.270 OA
BRANCH   3   6
HETATM    6  C   UNL     1      28.766  44.510  54.084  1.00  0.00     0.046 A 
HETATM    7  C   UNL     1      28.922  45.452  55.123  1.00  0.00    -0.035 A 
HETATM    8  C   UNL     1      28.014  46.634  55.327  1.00  0.00     0.050 C 
HETATM    9  C   UNL     1      29.946  45.267  56.070  1.00  0.00     0.009 A 
HETATM   10  C   UNL     1      30.764  44.143  56.033  1.00  0.00     0.001 A 
HETATM   11  C   UNL     1      30.569  43.182  55.049  1.00  0.00     0.009 A 
HETATM   12  C   UNL     1      29.577  43.350  54.069  1.00  0.00    -0.035 A 
HETATM   13  C   UNL     1      29.440  42.285  53.013  1.00  0.00     0.050 C 
ENDBRANCH   3   6
ENDBRANCH   1   2
BRANCH   1  14
HETATM   14  N   UNL     1      25.876  45.954  51.339  1.00  0.00    -0.338 N 
HETATM   15  C   UNL     1      26.713  46.079  50.260  1.00  0.00     0.273 C 
HETATM   16  O   UNL     1      27.481  45.194  49.895  1.00  0.00    -0.266 OA
HETATM   17  H   UNL     1      25.256  46.749  51.469  1.00  0.00     0.164 HD
BRANCH  15  18
HETATM   18  C   UNL     1      26.612  47.382  49.589  1.00  0.00     0.145 A 
HETATM   19  N   UNL     1      27.643  47.905  48.894  1.00  0.00    -0.170 NA
HETATM   20  N   UNL     1      27.169  49.081  48.445  1.00  0.00    -0.289 N 
HETATM   21  H   UNL     1      27.780  49.665  47.880  1.00  0.00     0.188 HD
HETATM   22  C   UNL     1      25.888  49.336  48.829  1.00  0.00     0.112 A 
HETATM   23  C   UNL     1      25.493  48.253  49.574  1.00  0.00     0.058 A 
ENDBRANCH  15  18
ENDBRANCH   1  14
BRANCH   1  24
HETATM   24  C   UNL     1      25.192  43.543  51.077  1.00  0.00    -0.026 A 
HETATM   25  C   UNL     1      24.100  43.626  50.197  1.00  0.00     0.010 A 
HETATM   26  C   UNL     1      23.821  42.602  49.288  1.00  0.00     0.001 A 
HETATM   27  C   UNL     1      24.643  41.482  49.224  1.00  0.00     0.000 A 
HETATM   28  C   UNL     1      25.750  41.391  50.062  1.00  0.00     0.001 A 
HETATM   29  C   UNL     1      26.029  42.416  50.971  1.00  0.00     0.010 A 
ENDBRANCH   1  24
TORSDOF 5
ENDMDL
MODEL 3
REMARK VINA RESULT:      -8.7      2.900      7.291
REMARK  5 active torsions:
REMARK  status: ('A' for Active; 'I' for Inactive)
REMARK    1  A    between atoms: C_3  and  N_4 
REMARK       I    between atoms: N_4  and  C_5 
REMARK    2  A    between atoms: C_5  and  C_6 
REMARK    3  A    between atoms: C_6  and  N_7 
REMARK    4  A    between atoms: C_6  and  C_16 
REMARK       I    between atoms: N_7  and  C_8 
REMARK    5  A    between atoms: C_8  and  C_9 
ROOT
HETATM    1  C   UNL     1      27.675  42.787  52.729  1.00  0.00     0.210 C 
ENDROOT
BRANCH   1   2
HETATM    2  C   UNL     1      27.130  43.813  51.688  1.00  0.00     0.249 C 
HETATM    3  N   UNL     1      25.773  44.081  51.760  1.00  0.00    -0.324 N 
HETATM    4  H   UNL     1      25.329  43.814  52.637  1.00  0.00     0.169 HD
HETATM    5  O   UNL     1      27.895  44.293  50.847  1.00  0.00    -0.270 OA
BRANCH   3   6
HETATM    6  C   UNL     1      25.103  45.068  50.995  1.00  0.00     0.046 A 
HETATM    7  C   UNL     1      25.199  46.446  51.280  1.00  0.00    -0.035 A 
HETATM    8  C   UNL     1      26.091  47.023  52.346  1.00  0.00     0.050 C 
HETATM    9  C   UNL     1      24.469  47.362  50.500  1.00  0.00     0.009 A 
HETATM   10  C   UNL     1      23.706  46.935  49.418  1.00  0.00     0.001 A 
HETATM   11  C   UNL     1      23.663  45.585  49.097  1.00  0.00     0.009 A 
HETATM   12  C   UNL     1      24.354  44.639  49.874  1.00  0.00    -0.035 A 
HETATM   13  C   UNL     1      24.238  43.188  49.488  1.00  0.00     0.050 C 
ENDBRANCH   3   6
ENDBRANCH   1   2
BRANCH   1  14
HETATM   14  N   UNL     1      28.195  41.548  52.150  1.00  0.00    -0.338 N 
HETATM   15  C   UNL     1      27.577  40.783  51.195  1.00  0.00     0.273 C 
HETATM   16  O   UNL     1      26.391  40.897  50.901  1.00  0.00    -0.266 OA
HETATM   17  H   UNL     1      29.194  41.376  52.226  1.00  0.00     0.164 HD
BRANCH  15  18
HETATM   18  C   UNL     1      28.469  39.801  50.564  1.00  0.00     0.145 A 
HETATM   19  N   UNL     1      29.381  39.108  51.277  1.00  0.00    -0.170 NA
HETATM   20  N   UNL     1      29.990  38.333  50.362  1.00  0.00    -0.289 N 
HETATM   21  H   UNL     1      30.728  37.707  50.672  1.00  0.00     0.188 HD
HETATM   22  C   UNL     1      29.515  38.506  49.097  1.00  0.00     0.112 A 
HETATM   23  C   UNL     1      28.525  39.453  49.190  1.00  0.00     0.058 A 
ENDBRANCH  15  18
ENDBRANCH   1  14
BRANCH   1  24
HETATM   24  C   UNL     1      28.545  43.390  53.834  1.00  0.00    -0.026 A 
HETATM   25  C   UNL     1      29.750  42.772  54.212  1.00  0.00     0.010 A 
HETATM   26  C   UNL     1      30.588  43.344  55.172  1.00  0.00     0.001 A 
HETATM   27  C   UNL     1      30.251  44.559  55.759  1.00  0.00     0.000 A 
HETATM   28  C   UNL     1      29.080  45.207  55.378  1.00  0.00     0.001 A 
HETATM   29  C   UNL     1      28.242  44.634  54.417  1.00  0.00     0.010 A 
ENDBRANCH   1  24
TORSDOF 5
ENDMDL
MODEL 4
REMARK VINA RESULT:      -8.6      3.164      5.442
REMARK  5 active torsions:
REMARK  status: ('A' for Active; 'I' for Inactive)
REMARK    1  A    between atoms: C_3  and  N_4 
REMARK       I    between atoms: N_4  and  C_5 
REMARK    2  A    between atoms: C_5  and  C_6 
REMARK    3  A    between atoms: C_6  and  N_7 
REMARK    4  A    between atoms: C_6  and  C_16 
REMARK       I    between atoms: N_7  and  C_8 
REMARK    5  A    between atoms: C_8  and  C_9 
ROOT
HETATM    1  C   UNL     1      27.859  42.555  51.682  1.00  0.00     0.210 C 
ENDROOT
BRANCH   1   2
HETATM    2  C   UNL     1      28.055  42.956  53.177  1.00  0.00     0.249 C 
HETATM    3  N   UNL     1      28.733  44.144  53.398  1.00  0.00    -0.324 N 
HETATM    4  H   UNL     1      28.783  44.765  52.592  1.00  0.00     0.169 HD
HETATM    5  O   UNL     1      27.652  42.203  54.068  1.00  0.00    -0.270 OA
BRANCH   3   6
HETATM    6  C   UNL     1      28.908  44.749  54.666  1.00  0.00     0.046 A 
HETATM    7  C   UNL     1      29.942  44.377  55.551  1.00  0.00    -0.035 A 
HETATM    8  C   UNL     1      31.019  43.383  55.212  1.00  0.00     0.050 C 
HETATM    9  C   UNL     1      30.024  44.996  56.812  1.00  0.00     0.009 A 
HETATM   10  C   UNL     1      29.142  46.010  57.173  1.00  0.00     0.001 A 
HETATM   11  C   UNL     1      28.165  46.422  56.277  1.00  0.00     0.009 A 
HETATM   12  C   UNL     1      28.033  45.804  55.022  1.00  0.00    -0.035 A 
HETATM   13  C   UNL     1      26.932  46.280  54.112  1.00  0.00     0.050 C 
ENDBRANCH   3   6
ENDBRANCH   1   2
BRANCH   1  14
HETATM   14  N   UNL     1      27.933  41.117  51.421  1.00  0.00    -0.338 N 
HETATM   15  C   UNL     1      28.136  40.530  50.198  1.00  0.00     0.273 C 
HETATM   16  O   UNL     1      28.011  41.127  49.133  1.00  0.00    -0.266 OA
HETATM   17  H   UNL     1      28.143  40.506  52.206  1.00  0.00     0.164 HD
BRANCH  15  18
HETATM   18  C   UNL     1      28.504  39.110  50.284  1.00  0.00     0.145 A 
HETATM   19  N   UNL     1      27.785  38.151  49.665  1.00  0.00    -0.170 NA
HETATM   20  N   UNL     1      28.425  37.010  49.981  1.00  0.00    -0.289 N 
HETATM   21  H   UNL     1      28.061  36.135  49.616  1.00  0.00     0.188 HD
HETATM   22  C   UNL     1      29.512  37.197  50.780  1.00  0.00     0.112 A 
HETATM   23  C   UNL     1      29.594  38.550  50.998  1.00  0.00     0.058 A 
ENDBRANCH  15  18
ENDBRANCH   1  14
BRANCH   1  24
HETATM   24  C   UNL     1      26.714  43.275  50.968  1.00  0.00    -0.026 A 
HETATM   25  C   UNL     1      25.379  42.895  51.193  1.00  0.00     0.010 A 
HETATM   26  C   UNL     1      24.318  43.585  50.599  1.00  0.00     0.001 A 
HETATM   27  C   UNL     1      24.569  44.684  49.785  1.00  0.00     0.000 A 
HETATM   28  C   UNL     1      25.879  45.101  49.573  1.00  0.00     0.001 A 
HETATM   29  C   UNL     1      26.940  44.411  50.168  1.00  0.00     0.010 A 
ENDBRANCH   1  24
TORSDOF 5
ENDMDL
MODEL 5
REMARK VINA RESULT:      -8.5      1.686      2.862
REMARK  5 active torsions:
REMARK  status: ('A' for Active; 'I' for Inactive)
REMARK    1  A    between atoms: C_3  and  N_4 
REMARK       I    between atoms: N_4  and  C_5 
REMARK    2  A    between atoms: C_5  and  C_6 
REMARK    3  A    between atoms: C_6  and  N_7 
REMARK    4  A    between atoms: C_6  and  C_16 
REMARK       I    between atoms: N_7  and  C_8 
REMARK    5  A    between atoms: C_8  and  C_9 
ROOT
HETATM    1  C   UNL     1      26.463  43.117  52.022  1.00  0.00     0.210 C 
ENDROOT
BRANCH   1   2
HETATM    2  C   UNL     1      27.096  43.414  53.417  1.00  0.00     0.249 C 
HETATM    3  N   UNL     1      28.191  44.264  53.413  1.00  0.00    -0.324 N 
HETATM    4  H   UNL     1      28.297  44.822  52.567  1.00  0.00     0.169 HD
HETATM    5  O   UNL     1      26.639  42.866  54.423  1.00  0.00    -0.270 OA
BRANCH   3   6
HETATM    6  C   UNL     1      28.832  44.759  54.574  1.00  0.00     0.046 A 
HETATM    7  C   UNL     1      28.358  45.882  55.285  1.00  0.00    -0.035 A 
HETATM    8  C   UNL     1      27.081  46.606  54.956  1.00  0.00     0.050 C 
HETATM    9  C   UNL     1      29.076  46.339  56.406  1.00  0.00     0.009 A 
HETATM   10  C   UNL     1      30.207  45.667  56.857  1.00  0.00     0.001 A 
HETATM   11  C   UNL     1      30.637  44.523  56.197  1.00  0.00     0.009 A 
HETATM   12  C   UNL     1      29.963  44.057  55.056  1.00  0.00    -0.035 A 
HETATM   13  C   UNL     1      30.501  42.829  54.370  1.00  0.00     0.050 C 
ENDBRANCH   3   6
ENDBRANCH   1   2
BRANCH   1  14
HETATM   14  N   UNL     1      26.210  44.301  51.201  1.00  0.00    -0.338 N 
HETATM   15  C   UNL     1      25.020  44.977  51.106  1.00  0.00     0.273 C 
HETATM   16  O   UNL     1      23.949  44.516  51.488  1.00  0.00    -0.266 OA
HETATM   17  H   UNL     1      27.014  44.847  50.902  1.00  0.00     0.164 HD
BRANCH  15  18
HETATM   18  C   UNL     1      25.149  46.304  50.489  1.00  0.00     0.145 A 
HETATM   19  N   UNL     1      26.325  46.965  50.465  1.00  0.00    -0.170 NA
HETATM   20  N   UNL     1      26.037  48.117  49.832  1.00  0.00    -0.289 N 
HETATM   21  H   UNL     1      26.785  48.790  49.690  1.00  0.00     0.188 HD
HETATM   22  C   UNL     1      24.732  48.224  49.458  1.00  0.00     0.112 A 
HETATM   23  C   UNL     1      24.124  47.063  49.869  1.00  0.00     0.058 A 
ENDBRANCH  15  18
ENDBRANCH   1  14
BRANCH   1  24
HETATM   24  C   UNL     1      27.087  41.940  51.270  1.00  0.00    -0.026 A 
HETATM   25  C   UNL     1      26.826  41.747  49.902  1.00  0.00     0.010 A 
HETATM   26  C   UNL     1      27.439  40.716  49.185  1.00  0.00     0.001 A 
HETATM   27  C   UNL     1      28.344  39.869  49.815  1.00  0.00     0.000 A 
HETATM   28  C   UNL     1      28.644  40.059  51.160  1.00  0.00     0.001 A 
HETATM   29  C   UNL     1      28.031  41.091  51.878  1.00  0.00     0.010 A 
ENDBRANCH   1  24
TORSDOF 5
ENDMDL
MODEL 6
REMARK VINA RESULT:      -8.4      4.391      8.936
REMARK  5 active torsions:
REMARK  status: ('A' for Active; 'I' for Inactive)
REMARK    1  A    between atoms: C_3  and  N_4 
REMARK       I    between atoms: N_4  and  C_5 
REMARK    2  A    between atoms: C_5  and  C_6 
REMARK    3  A    between atoms: C_6  and  N_7 
REMARK    4  A    between atoms: C_6  and  C_16 
REMARK       I    between atoms: N_7  and  C_8 
REMARK    5  A    between atoms: C_8  and  C_9 
ROOT
HETATM    1  C   UNL     1      23.873  47.321  49.458  1.00  0.00     0.210 C 
ENDROOT
BRANCH   1   2
HETATM    2  C   UNL     1      22.624  48.007  48.823  1.00  0.00     0.249 C 
HETATM    3  N   UNL     1      21.903  48.840  49.663  1.00  0.00    -0.324 N 
HETATM    4  H   UNL     1      22.400  49.142  50.499  1.00  0.00     0.169 HD
HETATM    5  O   UNL     1      22.318  47.754  47.655  1.00  0.00    -0.270 OA
BRANCH   3   6
HETATM    6  C   UNL     1      20.815  49.651  49.256  1.00  0.00     0.046 A 
HETATM    7  C   UNL     1      19.472  49.236  49.369  1.00  0.00    -0.035 A 
HETATM    8  C   UNL     1      19.044  47.948  50.020  1.00  0.00     0.050 C 
HETATM    9  C   UNL     1      18.449  50.082  48.903  1.00  0.00     0.009 A 
HETATM   10  C   UNL     1      18.737  51.342  48.391  1.00  0.00     0.001 A 
HETATM   11  C   UNL     1      20.055  51.779  48.339  1.00  0.00     0.009 A 
HETATM   12  C   UNL     1      21.104  50.947  48.766  1.00  0.00    -0.035 A 
HETATM   13  C   UNL     1      22.511  51.471  48.653  1.00  0.00     0.050 C 
ENDBRANCH   3   6
ENDBRANCH   1   2
BRANCH   1  14
HETATM   14  N   UNL     1      23.991  45.890  49.181  1.00  0.00    -0.338 N 
HETATM   15  C   UNL     1      24.024  44.887  50.116  1.00  0.00     0.273 C 
HETATM   16  O   UNL     1      24.229  45.084  51.310  1.00  0.00    -0.266 OA
HETATM   17  H   UNL     1      23.743  45.569  48.248  1.00  0.00     0.164 HD
BRANCH  15  18
HETATM   18  C   UNL     1      23.803  43.550  49.549  1.00  0.00     0.145 A 
HETATM   19  N   UNL     1      22.569  43.109  49.230  1.00  0.00    -0.170 NA
HETATM   20  N   UNL     1      22.779  41.868  48.755  1.00  0.00    -0.289 N 
HETATM   21  H   UNL     1      21.978  41.327  48.441  1.00  0.00     0.188 HD
HETATM   22  C   UNL     1      24.089  41.495  48.765  1.00  0.00     0.112 A 
HETATM   23  C   UNL     1      24.784  42.563  49.275  1.00  0.00     0.058 A 
ENDBRANCH  15  18
ENDBRANCH   1  14
BRANCH   1  24
HETATM   24  C   UNL     1      25.179  48.107  49.322  1.00  0.00    -0.026 A 
HETATM   25  C   UNL     1      26.380  47.593  49.840  1.00  0.00     0.010 A 
HETATM   26  C   UNL     1      27.592  48.267  49.667  1.00  0.00     0.001 A 
HETATM   27  C   UNL     1      27.633  49.458  48.952  1.00  0.00     0.000 A 
HETATM   28  C   UNL     1      26.463  49.972  48.400  1.00  0.00     0.001 A 
HETATM   29  C   UNL     1      25.250  49.297  48.573  1.00  0.00     0.010 A 
ENDBRANCH   1  24
TORSDOF 5
ENDMDL
MODEL 7
REMARK VINA RESULT:      -8.2      2.556      3.499
REMARK  5 active torsions:
REMARK  status: ('A' for Active; 'I' for Inactive)
REMARK    1  A    between atoms: C_3  and  N_4 
REMARK       I    between atoms: N_4  and  C_5 
REMARK    2  A    between atoms: C_5  and  C_6 
REMARK    3  A    between atoms: C_6  and  N_7 
REMARK    4  A    between atoms: C_6  and  C_16 
REMARK       I    between atoms: N_7  and  C_8 
REMARK    5  A    between atoms: C_8  and  C_9 
ROOT
HETATM    1  C   UNL     1      26.476  42.387  50.965  1.00  0.00     0.210 C 
ENDROOT
BRANCH   1   2
HETATM    2  C   UNL     1      27.395  43.354  51.775  1.00  0.00     0.249 C 
HETATM    3  N   UNL     1      27.370  43.197  53.151  1.00  0.00    -0.324 N 
HETATM    4  H   UNL     1      26.991  42.308  53.475  1.00  0.00     0.169 HD
HETATM    5  O   UNL     1      28.047  44.216  51.180  1.00  0.00    -0.270 OA
BRANCH   3   6
HETATM    6  C   UNL     1      28.216  43.883  54.057  1.00  0.00     0.046 A 
HETATM    7  C   UNL     1      29.552  43.497  54.292  1.00  0.00    -0.035 A 
HETATM    8  C   UNL     1      30.252  42.396  53.542  1.00  0.00     0.050 C 
HETATM    9  C   UNL     1      30.316  44.204  55.239  1.00  0.00     0.009 A 
HETATM   10  C   UNL     1      29.794  45.311  55.901  1.00  0.00     0.001 A 
HETATM   11  C   UNL     1      28.500  45.731  55.623  1.00  0.00     0.009 A 
HETATM   12  C   UNL     1      27.698  45.030  54.706  1.00  0.00    -0.035 A 
HETATM   13  C   UNL     1      26.294  45.521  54.475  1.00  0.00     0.050 C 
ENDBRANCH   3   6
ENDBRANCH   1   2
BRANCH   1  14
HETATM   14  N   UNL     1      25.308  43.022  50.356  1.00  0.00    -0.338 N 
HETATM   15  C   UNL     1      24.407  43.835  50.995  1.00  0.00     0.273 C 
HETATM   16  O   UNL     1      24.317  43.915  52.216  1.00  0.00    -0.266 OA
HETATM   17  H   UNL     1      25.300  43.121  49.344  1.00  0.00     0.164 HD
BRANCH  15  18
HETATM   18  C   UNL     1      23.548  44.593  50.075  1.00  0.00     0.145 A 
HETATM   19  N   UNL     1      22.314  44.164  49.738  1.00  0.00    -0.170 NA
HETATM   20  N   UNL     1      21.860  45.108  48.894  1.00  0.00    -0.289 N 
HETATM   21  H   UNL     1      20.928  44.999  48.504  1.00  0.00     0.188 HD
HETATM   22  C   UNL     1      22.750  46.114  48.671  1.00  0.00     0.112 A 
HETATM   23  C   UNL     1      23.859  45.813  49.422  1.00  0.00     0.058 A 
ENDBRANCH  15  18
ENDBRANCH   1  14
BRANCH   1  24
HETATM   24  C   UNL     1      27.218  41.407  50.055  1.00  0.00    -0.026 A 
HETATM   25  C   UNL     1      27.254  41.611  48.664  1.00  0.00     0.010 A 
HETATM   26  C   UNL     1      27.981  40.762  47.825  1.00  0.00     0.001 A 
HETATM   27  C   UNL     1      28.707  39.703  48.362  1.00  0.00     0.000 A 
HETATM   28  C   UNL     1      28.714  39.500  49.738  1.00  0.00     0.001 A 
HETATM   29  C   UNL     1      27.986  40.349  50.577  1.00  0.00     0.010 A 
ENDBRANCH   1  24
TORSDOF 5
ENDMDL
MODEL 8
REMARK VINA RESULT:      -8.1      2.989      5.488
REMARK  5 active torsions:
REMARK  status: ('A' for Active; 'I' for Inactive)
REMARK    1  A    between atoms: C_3  and  N_4 
REMARK       I    between atoms: N_4  and  C_5 
REMARK    2  A    between atoms: C_5  and  C_6 
REMARK    3  A    between atoms: C_6  and  N_7 
REMARK    4  A    between atoms: C_6  and  C_16 
REMARK       I    between atoms: N_7  and  C_8 
REMARK    5  A    between atoms: C_8  and  C_9 
ROOT
HETATM    1  C   UNL     1      26.663  42.920  49.404  1.00  0.00     0.210 C 
ENDROOT
BRANCH   1   2
HETATM    2  C   UNL     1      27.155  43.979  50.438  1.00  0.00     0.249 C 
HETATM    3  N   UNL     1      26.881  43.695  51.767  1.00  0.00    -0.324 N 
HETATM    4  H   UNL     1      26.650  42.722  51.959  1.00  0.00     0.169 HD
HETATM    5  O   UNL     1      27.708  45.007  50.041  1.00  0.00    -0.270 OA
BRANCH   3   6
HETATM    6  C   UNL     1      27.347  44.457  52.867  1.00  0.00     0.046 A 
HETATM    7  C   UNL     1      26.718  45.647  53.289  1.00  0.00    -0.035 A 
HETATM    8  C   UNL     1      25.443  46.179  52.693  1.00  0.00     0.050 C 
HETATM    9  C   UNL     1      27.266  46.370  54.365  1.00  0.00     0.009 A 
HETATM   10  C   UNL     1      28.378  45.898  55.055  1.00  0.00     0.001 A 
HETATM   11  C   UNL     1      28.958  44.693  54.681  1.00  0.00     0.009 A 
HETATM   12  C   UNL     1      28.457  43.961  53.592  1.00  0.00    -0.035 A 
HETATM   13  C   UNL     1      29.153  42.678  53.222  1.00  0.00     0.050 C 
ENDBRANCH   3   6
ENDBRANCH   1   2
BRANCH   1  14
HETATM   14  N   UNL     1      27.178  41.568  49.621  1.00  0.00    -0.338 N 
HETATM   15  C   UNL     1      28.019  40.881  48.782  1.00  0.00     0.273 C 
HETATM   16  O   UNL     1      28.227  41.209  47.619  1.00  0.00    -0.266 OA
HETATM   17  H   UNL     1      27.167  41.207  50.572  1.00  0.00     0.164 HD
BRANCH  15  18
HETATM   18  C   UNL     1      28.636  39.704  49.408  1.00  0.00     0.145 A 
HETATM   19  N   UNL     1      28.669  39.546  50.748  1.00  0.00    -0.170 NA
HETATM   20  N   UNL     1      29.306  38.375  50.922  1.00  0.00    -0.289 N 
HETATM   21  H   UNL     1      29.448  38.038  51.870  1.00  0.00     0.188 HD
HETATM   22  C   UNL     1      29.688  37.782  49.757  1.00  0.00     0.112 A 
HETATM   23  C   UNL     1      29.269  38.618  48.751  1.00  0.00     0.058 A 
ENDBRANCH  15  18
ENDBRANCH   1  14
BRANCH   1  24
HETATM   24  C   UNL     1      25.171  42.988  49.073  1.00  0.00    -0.026 A 
HETATM   25  C   UNL     1      24.547  44.226  48.836  1.00  0.00     0.010 A 
HETATM   26  C   UNL     1      23.201  44.303  48.468  1.00  0.00     0.001 A 
HETATM   27  C   UNL     1      22.455  43.140  48.306  1.00  0.00     0.000 A 
HETATM   28  C   UNL     1      23.057  41.902  48.502  1.00  0.00     0.001 A 
HETATM   29  C   UNL     1      24.404  41.826  48.870  1.00  0.00     0.010 A 
ENDBRANCH   1  24
TORSDOF 5
ENDMDL
MODEL 9
REMARK VINA RESULT:      -8.1      2.267      6.589
REMARK  5 active torsions:
REMARK  status: ('A' for Active; 'I' for Inactive)
REMARK    1  A    between atoms: C_3  and  N_4 
REMARK       I    between atoms: N_4  and  C_5 
REMARK    2  A    between atoms: C_5  and  C_6 
REMARK    3  A    between atoms: C_6  and  N_7 
REMARK    4  A    between atoms: C_6  and  C_16 
REMARK       I    between atoms: N_7  and  C_8 
REMARK    5  A    between atoms: C_8  and  C_9 
ROOT
HETATM    1  C   UNL     1      25.205  46.509  51.398  1.00  0.00     0.210 C 
ENDROOT
BRANCH   1   2
HETATM    2  C   UNL     1      24.708  45.123  50.883  1.00  0.00     0.249 C 
HETATM    3  N   UNL     1      25.300  44.667  49.717  1.00  0.00    -0.324 N 
HETATM    4  H   UNL     1      26.176  45.125  49.472  1.00  0.00     0.169 HD
HETATM    5  O   UNL     1      23.810  44.534  51.490  1.00  0.00    -0.270 OA
BRANCH   3   6
HETATM    6  C   UNL     1      25.086  43.386  49.150  1.00  0.00     0.046 A 
HETATM    7  C   UNL     1      24.050  43.126  48.228  1.00  0.00    -0.035 A 
HETATM    8  C   UNL     1      23.136  44.184  47.673  1.00  0.00     0.050 C 
HETATM    9  C   UNL     1      23.875  41.817  47.742  1.00  0.00     0.009 A 
HETATM   10  C   UNL     1      24.743  40.793  48.108  1.00  0.00     0.001 A 
HETATM   11  C   UNL     1      25.802  41.063  48.965  1.00  0.00     0.009 A 
HETATM   12  C   UNL     1      25.988  42.351  49.495  1.00  0.00    -0.035 A 
HETATM   13  C   UNL     1      27.138  42.566  50.442  1.00  0.00     0.050 C 
ENDBRANCH   3   6
ENDBRANCH   1   2
BRANCH   1  14
HETATM   14  N   UNL     1      26.269  46.442  52.401  1.00  0.00    -0.338 N 
HETATM   15  C   UNL     1      26.243  47.022  53.644  1.00  0.00     0.273 C 
HETATM   16  O   UNL     1      25.440  47.891  53.967  1.00  0.00    -0.266 OA
HETATM   17  H   UNL     1      26.950  45.692  52.315  1.00  0.00     0.164 HD
BRANCH  15  18
HETATM   18  C   UNL     1      27.281  46.511  54.549  1.00  0.00     0.145 A 
HETATM   19  N   UNL     1      27.630  47.169  55.674  1.00  0.00    -0.170 NA
HETATM   20  N   UNL     1      28.592  46.401  56.215  1.00  0.00    -0.289 N 
HETATM   21  H   UNL     1      29.014  46.700  57.090  1.00  0.00     0.188 HD
HETATM   22  C   UNL     1      28.879  45.289  55.484  1.00  0.00     0.112 A 
HETATM   23  C   UNL     1      28.046  45.327  54.393  1.00  0.00     0.058 A 
ENDBRANCH  15  18
ENDBRANCH   1  14
BRANCH   1  24
HETATM   24  C   UNL     1      25.419  47.562  50.309  1.00  0.00    -0.026 A 
HETATM   25  C   UNL     1      24.321  48.187  49.693  1.00  0.00     0.010 A 
HETATM   26  C   UNL     1      24.498  49.197  48.744  1.00  0.00     0.001 A 
HETATM   27  C   UNL     1      25.779  49.620  48.407  1.00  0.00     0.000 A 
HETATM   28  C   UNL     1      26.882  49.041  49.026  1.00  0.00     0.001 A 
HETATM   29  C   UNL     1      26.704  48.031  49.976  1.00  0.00     0.010 A 
ENDBRANCH   1  24
TORSDOF 5
ENDMDL
MODEL 10
REMARK VINA RESULT:      -7.9      3.255      5.408
REMARK  5 active torsions:
REMARK  status: ('A' for Active; 'I' for Inactive)
REMARK    1  A    between atoms: C_3  and  N_4 
REMARK       I    between atoms: N_4  and  C_5 
REMARK    2  A    between atoms: C_5  and  C_6 
REMARK    3  A    between atoms: C_6  and  N_7 
REMARK    4  A    between atoms: C_6  and  C_16 
REMARK       I    between atoms: N_7  and  C_8 
REMARK    5  A    between atoms: C_8  and  C_9 
ROOT
HETATM    1  C   UNL     1      26.804  42.596  49.438  1.00  0.00     0.210 C 
ENDROOT
BRANCH   1   2
HETATM    2  C   UNL     1      27.275  43.588  50.545  1.00  0.00     0.249 C 
HETATM    3  N   UNL     1      27.153  43.137  51.850  1.00  0.00    -0.324 N 
HETATM    4  H   UNL     1      27.042  42.129  51.946  1.00  0.00     0.169 HD
HETATM    5  O   UNL     1      27.682  44.709  50.227  1.00  0.00    -0.270 OA
BRANCH   3   6
HETATM    6  C   UNL     1      27.635  43.825  52.990  1.00  0.00     0.046 A 
HETATM    7  C   UNL     1      28.927  43.614  53.517  1.00  0.00    -0.035 A 
HETATM    8  C   UNL     1      29.960  42.727  52.877  1.00  0.00     0.050 C 
HETATM    9  C   UNL     1      29.317  44.306  54.679  1.00  0.00     0.009 A 
HETATM   10  C   UNL     1      28.473  45.235  55.278  1.00  0.00     0.001 A 
HETATM   11  C   UNL     1      27.226  45.491  54.723  1.00  0.00     0.009 A 
HETATM   12  C   UNL     1      26.792  44.796  53.582  1.00  0.00    -0.035 A 
HETATM   13  C   UNL     1      25.416  45.100  53.050  1.00  0.00     0.050 C 
ENDBRANCH   3   6
ENDBRANCH   1   2
BRANCH   1  14
HETATM   14  N   UNL     1      27.329  41.237  49.571  1.00  0.00    -0.338 N 
HETATM   15  C   UNL     1      28.222  40.632  48.724  1.00  0.00     0.273 C 
HETATM   16  O   UNL     1      28.485  41.057  47.603  1.00  0.00    -0.266 OA
HETATM   17  H   UNL     1      27.275  40.799  50.487  1.00  0.00     0.164 HD
BRANCH  15  18
HETATM   18  C   UNL     1      28.826  39.414  49.283  1.00  0.00     0.145 A 
HETATM   19  N   UNL     1      29.153  38.362  48.505  1.00  0.00    -0.170 NA
HETATM   20  N   UNL     1      29.663  37.465  49.369  1.00  0.00    -0.289 N 
HETATM   21  H   UNL     1      29.988  36.574  49.005  1.00  0.00     0.188 HD
HETATM   22  C   UNL     1      29.667  37.893  50.662  1.00  0.00     0.112 A 
HETATM   23  C   UNL     1      29.130  39.157  50.644  1.00  0.00     0.058 A 
ENDBRANCH  15  18
ENDBRANCH   1  14
BRANCH   1  24
HETATM   24  C   UNL     1      25.315  42.674  49.095  1.00  0.00    -0.026 A 
HETATM   25  C   UNL     1      24.795  41.959  48.002  1.00  0.00     0.010 A 
HETATM   26  C   UNL     1      23.427  41.967  47.714  1.00  0.00     0.001 A 
HETATM   27  C   UNL     1      22.547  42.672  48.528  1.00  0.00     0.000 A 
HETATM   28  C   UNL     1      23.032  43.360  49.635  1.00  0.00     0.001 A 
HETATM   29  C   UNL     1      24.400  43.352  49.922  1.00  0.00     0.010 A 
ENDBRANCH   1  24
TORSDOF 5
ENDMDL
