MODEL 1
REMARK VINA RESULT:      -8.4      0.000      0.000
REMARK  6 active torsions:
REMARK  status: ('A' for Active; 'I' for Inactive)
REMARK    1  A    between atoms: C_3  and  N_4 
REMARK    2  A    between atoms: N_4  and  C_5 
REMARK    3  A    between atoms: C_5  and  C_6 
REMARK    4  A    between atoms: N_8  and  C_10 
REMARK    5  A    between atoms: C_10  and  C_11 
REMARK    6  A    between atoms: C_12  and  O_13 
ROOT
HETATM    1  C   UNL     1      26.916  45.867  53.935  1.00  0.00     0.031 C 
HETATM    2  C   UNL     1      26.488  47.028  53.043  1.00  0.00     0.241 C 
HETATM    3  N   UNL     1      25.528  46.397  52.068  1.00  0.00    -0.067 N 
HETATM    4  H   UNL     1      24.719  47.036  51.937  1.00  0.00     0.280 HD
HETATM    5  C   UNL     1      25.017  45.110  52.676  1.00  0.00     0.235 C 
HETATM    6  C   UNL     1      25.607  45.097  54.081  1.00  0.00     0.035 C 
ENDROOT
BRANCH   3   7
HETATM    7  C   UNL     1      26.068  46.250  50.665  1.00  0.00     0.276 C 
BRANCH   7   8
HETATM    8  C   UNL     1      25.959  47.507  49.847  1.00  0.00     0.002 A 
HETATM    9  C   UNL     1      24.708  48.029  49.495  1.00  0.00     0.091 A 
HETATM   10  C   UNL     1      24.603  49.225  48.780  1.00  0.00     0.044 A 
HETATM   11 BR   UNL     1      22.908  49.926  48.314  1.00  0.00    -0.048 Br
HETATM   12  C   UNL     1      25.753  49.912  48.402  1.00  0.00     0.022 A 
HETATM   13  C   UNL     1      27.007  49.403  48.743  1.00  0.00     0.002 A 
HETATM   14  C   UNL     1      27.112  48.211  49.466  1.00  0.00     0.012 A 
BRANCH   9  15
HETATM   15  O   UNL     1      23.594  47.313  49.864  1.00  0.00    -0.359 OA
HETATM   16  H   UNL     1      22.819  47.857  49.595  1.00  0.00     0.218 HD
ENDBRANCH   9  15
ENDBRANCH   7   8
ENDBRANCH   3   7
BRANCH   1  17
HETATM   17  C   UNL     1      27.514  46.308  55.273  1.00  0.00     0.127 C 
BRANCH  17  18
HETATM   18  N   UNL     1      28.970  46.286  55.209  1.00  0.00    -0.376 N 
HETATM   19  H   UNL     1      29.369  47.234  55.204  1.00  0.00     0.161 HD
BRANCH  18  20
HETATM   20  C   UNL     1      29.800  45.442  55.940  1.00  0.00     0.100 A 
HETATM   21  C   UNL     1      30.205  44.227  55.366  1.00  0.00     0.048 A 
HETATM   22  C   UNL     1      30.984  43.327  56.090  1.00  0.00     0.005 A 
HETATM   23  C   UNL     1      31.353  43.640  57.390  1.00  0.00     0.017 A 
HETATM   24  C   UNL     1      30.934  44.846  57.931  1.00  0.00     0.089 A 
HETATM   25  N   UNL     1      30.179  45.690  57.205  1.00  0.00    -0.353 N 
HETATM   26  H   UNL     1      29.909  46.566  57.637  1.00  0.00     0.166 HD
ENDBRANCH  18  20
ENDBRANCH  17  18
ENDBRANCH   1  17
TORSDOF 6
ENDMDL
MODEL 2
REMARK VINA RESULT:      -8.1      1.781      2.508
REMARK  6 active torsions:
REMARK  status: ('A' for Active; 'I' for Inactive)
REMARK    1  A    between atoms: C_3  and  N_4 
REMARK    2  A    between atoms: N_4  and  C_5 
REMARK    3  A    between atoms: C_5  and  C_6 
REMARK    4  A    between atoms: N_8  and  C_10 
REMARK    5  A    between atoms: C_10  and  C_11 
REMARK    6  A    between atoms: C_12  and  O_13 
ROOT
HETATM    1  C   UNL     1      27.043  43.827  51.499  1.00  0.00     0.031 C 
HETATM    2  C   UNL     1      25.781  44.614  51.840  1.00  0.00     0.241 C 
HETATM    3  N   UNL     1      25.682  45.631  50.733  1.00  0.00    -0.067 N 
HETATM    4  H   UNL     1      24.691  45.701  50.433  1.00  0.00     0.280 HD
HETATM    5  C   UNL     1      26.495  45.130  49.560  1.00  0.00     0.235 C 
HETATM    6  C   UNL     1      26.944  43.736  49.979  1.00  0.00     0.035 C 
ENDROOT
BRANCH   3   7
HETATM    7  C   UNL     1      26.004  47.046  51.153  1.00  0.00     0.276 C 
BRANCH   7   8
HETATM    8  C   UNL     1      25.896  48.042  50.034  1.00  0.00     0.002 A 
HETATM    9  C   UNL     1      24.646  48.432  49.537  1.00  0.00     0.091 A 
HETATM   10  C   UNL     1      24.539  49.398  48.532  1.00  0.00     0.044 A 
HETATM   11 BR   UNL     1      22.845  49.921  47.872  1.00  0.00    -0.048 Br
HETATM   12  C   UNL     1      25.688  49.983  48.007  1.00  0.00     0.022 A 
HETATM   13  C   UNL     1      26.941  49.603  48.490  1.00  0.00     0.002 A 
HETATM   14  C   UNL     1      27.046  48.643  49.500  1.00  0.00     0.012 A 
BRANCH   9  15
HETATM   15  O   UNL     1      23.534  47.817  50.062  1.00  0.00    -0.359 OA
HETATM   16  H   UNL     1      22.910  47.693  49.310  1.00  0.00     0.218 HD
ENDBRANCH   9  15
ENDBRANCH   7   8
ENDBRANCH   3   7
BRANCH   1  17
HETATM   17  C   UNL     1      27.120  42.461  52.185  1.00  0.00     0.127 C 
BRANCH  17  18
HETATM   18  N   UNL     1      27.248  42.625  53.628  1.00  0.00    -0.376 N 
HETATM   19  H   UNL     1      27.048  41.752  54.134  1.00  0.00     0.161 HD
BRANCH  18  20
HETATM   20  C   UNL     1      28.271  43.309  54.278  1.00  0.00     0.100 A 
HETATM   21  C   UNL     1      29.515  42.678  54.436  1.00  0.00     0.048 A 
HETATM   22  C   UNL     1      30.543  43.306  55.135  1.00  0.00     0.005 A 
HETATM   23  C   UNL     1      30.325  44.562  55.681  1.00  0.00     0.017 A 
HETATM   24  C   UNL     1      29.085  45.158  55.512  1.00  0.00     0.089 A 
HETATM   25  N   UNL     1      28.113  44.521  54.835  1.00  0.00    -0.353 N 
HETATM   26  H   UNL     1      27.227  45.002  54.723  1.00  0.00     0.166 HD
ENDBRANCH  18  20
ENDBRANCH  17  18
ENDBRANCH   1  17
TORSDOF 6
ENDMDL
MODEL 3
REMARK VINA RESULT:      -7.9      3.590      8.168
REMARK  6 active torsions:
REMARK  status: ('A' for Active; 'I' for Inactive)
REMARK    1  A    between atoms: C_3  and  N_4 
REMARK    2  A    between atoms: N_4  and  C_5 
REMARK    3  A    between atoms: C_5  and  C_6 
REMARK    4  A    between atoms: N_8  and  C_10 
REMARK    5  A    between atoms: C_10  and  C_11 
REMARK    6  A    between atoms: C_12  and  O_13 
ROOT
HETATM    1  C   UNL     1      25.110  44.859  50.537  1.00  0.00     0.031 C 
HETATM    2  C   UNL     1      25.744  45.414  51.809  1.00  0.00     0.241 C 
HETATM    3  N   UNL     1      27.057  44.683  51.905  1.00  0.00    -0.067 N 
HETATM    4  H   UNL     1      27.794  45.357  52.190  1.00  0.00     0.280 HD
HETATM    5  C   UNL     1      27.406  44.160  50.529  1.00  0.00     0.235 C 
HETATM    6  C   UNL     1      26.324  44.733  49.622  1.00  0.00     0.035 C 
ENDROOT
BRANCH   3   7
HETATM    7  C   UNL     1      27.116  43.642  52.998  1.00  0.00     0.276 C 
BRANCH   7   8
HETATM    8  C   UNL     1      28.358  43.728  53.840  1.00  0.00     0.002 A 
HETATM    9  C   UNL     1      28.452  44.651  54.889  1.00  0.00     0.091 A 
HETATM   10  C   UNL     1      29.583  44.697  55.709  1.00  0.00     0.044 A 
HETATM   11 BR   UNL     1      29.698  45.944  57.127  1.00  0.00    -0.048 Br
HETATM   12  C   UNL     1      30.641  43.821  55.482  1.00  0.00     0.022 A 
HETATM   13  C   UNL     1      30.563  42.898  54.438  1.00  0.00     0.002 A 
HETATM   14  C   UNL     1      29.427  42.846  53.625  1.00  0.00     0.012 A 
BRANCH   9  15
HETATM   15  O   UNL     1      27.399  45.517  55.071  1.00  0.00    -0.359 OA
HETATM   16  H   UNL     1      26.724  45.021  55.586  1.00  0.00     0.218 HD
ENDBRANCH   9  15
ENDBRANCH   7   8
ENDBRANCH   3   7
BRANCH   1  17
HETATM   17  C   UNL     1      24.005  45.748  49.962  1.00  0.00     0.127 C 
BRANCH  17  18
HETATM   18  N   UNL     1      24.232  47.140  50.328  1.00  0.00    -0.376 N 
HETATM   19  H   UNL     1      24.619  47.232  51.276  1.00  0.00     0.161 HD
BRANCH  18  20
HETATM   20  C   UNL     1      24.794  48.112  49.506  1.00  0.00     0.100 A 
HETATM   21  C   UNL     1      26.185  48.296  49.528  1.00  0.00     0.048 A 
HETATM   22  C   UNL     1      26.779  49.300  48.766  1.00  0.00     0.005 A 
HETATM   23  C   UNL     1      25.980  50.124  47.989  1.00  0.00     0.017 A 
HETATM   24  C   UNL     1      24.609  49.922  47.991  1.00  0.00     0.089 A 
HETATM   25  N   UNL     1      24.068  48.945  48.742  1.00  0.00    -0.353 N 
HETATM   26  H   UNL     1      23.063  48.824  48.700  1.00  0.00     0.166 HD
ENDBRANCH  18  20
ENDBRANCH  17  18
ENDBRANCH   1  17
TORSDOF 6
ENDMDL
MODEL 4
REMARK VINA RESULT:      -7.8      3.859      8.789
REMARK  6 active torsions:
REMARK  status: ('A' for Active; 'I' for Inactive)
REMARK    1  A    between atoms: C_3  and  N_4 
REMARK    2  A    between atoms: N_4  and  C_5 
REMARK    3  A    between atoms: C_5  and  C_6 
REMARK    4  A    between atoms: N_8  and  C_10 
REMARK    5  A    between atoms: C_10  and  C_11 
REMARK    6  A    between atoms: C_12  and  O_13 
ROOT
HETATM    1  C   UNL     1      24.843  45.637  51.337  1.00  0.00     0.031 C 
HETATM    2  C   UNL     1      26.335  45.901  51.519  1.00  0.00     0.241 C 
HETATM    3  N   UNL     1      26.746  44.920  52.585  1.00  0.00    -0.067 N 
HETATM    4  H   UNL     1      27.660  44.503  52.320  1.00  0.00     0.280 HD
HETATM    5  C   UNL     1      25.718  43.811  52.627  1.00  0.00     0.235 C 
HETATM    6  C   UNL     1      24.786  44.117  51.461  1.00  0.00     0.035 C 
ENDROOT
BRANCH   3   7
HETATM    7  C   UNL     1      27.042  45.544  53.929  1.00  0.00     0.276 C 
BRANCH   7   8
HETATM    8  C   UNL     1      28.306  45.032  54.561  1.00  0.00     0.002 A 
HETATM    9  C   UNL     1      28.788  45.586  55.754  1.00  0.00     0.091 A 
HETATM   10  C   UNL     1      29.933  45.077  56.374  1.00  0.00     0.044 A 
HETATM   11 BR   UNL     1      30.572  45.829  57.988  1.00  0.00    -0.048 Br
HETATM   12  C   UNL     1      30.616  44.008  55.800  1.00  0.00     0.022 A 
HETATM   13  C   UNL     1      30.149  43.448  54.610  1.00  0.00     0.002 A 
HETATM   14  C   UNL     1      28.999  43.951  53.996  1.00  0.00     0.012 A 
BRANCH   9  15
HETATM   15  O   UNL     1      28.103  46.655  56.281  1.00  0.00    -0.359 OA
HETATM   16  H   UNL     1      27.371  46.273  56.817  1.00  0.00     0.218 HD
ENDBRANCH   9  15
ENDBRANCH   7   8
ENDBRANCH   3   7
BRANCH   1  17
HETATM   17  C   UNL     1      24.283  46.160  50.013  1.00  0.00     0.127 C 
BRANCH  17  18
HETATM   18  N   UNL     1      24.590  47.576  49.856  1.00  0.00    -0.376 N 
HETATM   19  H   UNL     1      25.547  47.727  49.512  1.00  0.00     0.161 HD
BRANCH  18  20
HETATM   20  C   UNL     1      23.746  48.531  49.298  1.00  0.00     0.100 A 
HETATM   21  C   UNL     1      24.292  49.507  48.450  1.00  0.00     0.048 A 
HETATM   22  C   UNL     1      23.490  50.516  47.923  1.00  0.00     0.005 A 
HETATM   23  C   UNL     1      22.142  50.553  48.248  1.00  0.00     0.017 A 
HETATM   24  C   UNL     1      21.633  49.578  49.092  1.00  0.00     0.089 A 
HETATM   25  N   UNL     1      22.437  48.620  49.587  1.00  0.00    -0.353 N 
HETATM   26  H   UNL     1      22.016  47.919  50.187  1.00  0.00     0.166 HD
ENDBRANCH  18  20
ENDBRANCH  17  18
ENDBRANCH   1  17
TORSDOF 6
ENDMDL
MODEL 5
REMARK VINA RESULT:      -7.6      4.065      8.708
REMARK  6 active torsions:
REMARK  status: ('A' for Active; 'I' for Inactive)
REMARK    1  A    between atoms: C_3  and  N_4 
REMARK    2  A    between atoms: N_4  and  C_5 
REMARK    3  A    between atoms: C_5  and  C_6 
REMARK    4  A    between atoms: N_8  and  C_10 
REMARK    5  A    between atoms: C_10  and  C_11 
REMARK    6  A    between atoms: C_12  and  O_13 
ROOT
HETATM    1  C   UNL     1      25.023  44.988  50.425  1.00  0.00     0.031 C 
HETATM    2  C   UNL     1      25.701  45.747  51.561  1.00  0.00     0.241 C 
HETATM    3  N   UNL     1      26.971  44.973  51.803  1.00  0.00    -0.067 N 
HETATM    4  H   UNL     1      27.748  45.646  51.950  1.00  0.00     0.280 HD
HETATM    5  C   UNL     1      27.274  44.166  50.560  1.00  0.00     0.235 C 
HETATM    6  C   UNL     1      26.219  44.610  49.555  1.00  0.00     0.035 C 
ENDROOT
BRANCH   3   7
HETATM    7  C   UNL     1      26.979  44.170  53.083  1.00  0.00     0.276 C 
BRANCH   7   8
HETATM    8  C   UNL     1      27.876  44.744  54.144  1.00  0.00     0.002 A 
HETATM    9  C   UNL     1      28.932  43.992  54.676  1.00  0.00     0.091 A 
HETATM   10  C   UNL     1      29.801  44.540  55.623  1.00  0.00     0.044 A 
HETATM   11 BR   UNL     1      31.227  43.519  56.331  1.00  0.00    -0.048 Br
HETATM   12  C   UNL     1      29.618  45.851  56.057  1.00  0.00     0.022 A 
HETATM   13  C   UNL     1      28.568  46.611  55.538  1.00  0.00     0.002 A 
HETATM   14  C   UNL     1      27.706  46.065  54.584  1.00  0.00     0.012 A 
BRANCH   9  15
HETATM   15  O   UNL     1      29.069  42.694  54.243  1.00  0.00    -0.359 OA
HETATM   16  H   UNL     1      30.018  42.465  54.364  1.00  0.00     0.218 HD
ENDBRANCH   9  15
ENDBRANCH   7   8
ENDBRANCH   3   7
BRANCH   1  17
HETATM   17  C   UNL     1      23.967  45.808  49.681  1.00  0.00     0.127 C 
BRANCH  17  18
HETATM   18  N   UNL     1      24.006  47.199  50.115  1.00  0.00    -0.376 N 
HETATM   19  H   UNL     1      24.934  47.467  50.468  1.00  0.00     0.161 HD
BRANCH  18  20
HETATM   20  C   UNL     1      23.445  48.275  49.435  1.00  0.00     0.100 A 
HETATM   21  C   UNL     1      24.288  49.136  48.714  1.00  0.00     0.048 A 
HETATM   22  C   UNL     1      23.771  50.259  48.072  1.00  0.00     0.005 A 
HETATM   23  C   UNL     1      22.412  50.525  48.156  1.00  0.00     0.017 A 
HETATM   24  C   UNL     1      21.606  49.659  48.879  1.00  0.00     0.089 A 
HETATM   25  N   UNL     1      22.139  48.586  49.490  1.00  0.00    -0.353 N 
HETATM   26  H   UNL     1      21.508  47.973  49.994  1.00  0.00     0.166 HD
ENDBRANCH  18  20
ENDBRANCH  17  18
ENDBRANCH   1  17
TORSDOF 6
ENDMDL
MODEL 6
REMARK VINA RESULT:      -7.3      1.730      2.328
REMARK  6 active torsions:
REMARK  status: ('A' for Active; 'I' for Inactive)
REMARK    1  A    between atoms: C_3  and  N_4 
REMARK    2  A    between atoms: N_4  and  C_5 
REMARK    3  A    between atoms: C_5  and  C_6 
REMARK    4  A    between atoms: N_8  and  C_10 
REMARK    5  A    between atoms: C_10  and  C_11 
REMARK    6  A    between atoms: C_12  and  O_13 
ROOT
HETATM    1  C   UNL     1      26.238  46.067  52.532  1.00  0.00     0.031 C 
HETATM    2  C   UNL     1      25.358  47.214  52.047  1.00  0.00     0.241 C 
HETATM    3  N   UNL     1      24.502  46.583  50.979  1.00  0.00    -0.067 N 
HETATM    4  H   UNL     1      23.529  46.931  51.085  1.00  0.00     0.280 HD
HETATM    5  C   UNL     1      24.495  45.088  51.204  1.00  0.00     0.235 C 
HETATM    6  C   UNL     1      25.257  44.899  52.510  1.00  0.00     0.035 C 
ENDROOT
BRANCH   3   7
HETATM    7  C   UNL     1      24.853  46.999  49.570  1.00  0.00     0.276 C 
BRANCH   7   8
HETATM    8  C   UNL     1      24.023  48.142  49.058  1.00  0.00     0.002 A 
HETATM    9  C   UNL     1      22.632  48.024  48.940  1.00  0.00     0.091 A 
HETATM   10  C   UNL     1      21.851  49.102  48.516  1.00  0.00     0.044 A 
HETATM   11 BR   UNL     1      19.973  48.935  48.366  1.00  0.00    -0.048 Br
HETATM   12  C   UNL     1      22.457  50.315  48.195  1.00  0.00     0.022 A 
HETATM   13  C   UNL     1      23.842  50.446  48.305  1.00  0.00     0.002 A 
HETATM   14  C   UNL     1      24.621  49.370  48.738  1.00  0.00     0.012 A 
BRANCH   9  15
HETATM   15  O   UNL     1      22.070  46.806  49.242  1.00  0.00    -0.359 OA
HETATM   16  H   UNL     1      22.211  46.672  50.207  1.00  0.00     0.218 HD
ENDBRANCH   9  15
ENDBRANCH   7   8
ENDBRANCH   3   7
BRANCH   1  17
HETATM   17  C   UNL     1      26.862  46.310  53.908  1.00  0.00     0.127 C 
BRANCH  17  18
HETATM   18  N   UNL     1      27.199  45.043  54.544  1.00  0.00    -0.376 N 
HETATM   19  H   UNL     1      26.780  44.242  54.054  1.00  0.00     0.161 HD
BRANCH  18  20
HETATM   20  C   UNL     1      28.457  44.684  55.018  1.00  0.00     0.100 A 
HETATM   21  C   UNL     1      29.156  45.585  55.835  1.00  0.00     0.048 A 
HETATM   22  C   UNL     1      30.443  45.288  56.278  1.00  0.00     0.005 A 
HETATM   23  C   UNL     1      31.033  44.092  55.898  1.00  0.00     0.017 A 
HETATM   24  C   UNL     1      30.319  43.224  55.087  1.00  0.00     0.089 A 
HETATM   25  N   UNL     1      29.080  43.544  54.674  1.00  0.00    -0.353 N 
HETATM   26  H   UNL     1      28.591  42.871  54.095  1.00  0.00     0.166 HD
ENDBRANCH  18  20
ENDBRANCH  17  18
ENDBRANCH   1  17
TORSDOF 6
ENDMDL
MODEL 7
REMARK VINA RESULT:      -7.2      5.704      8.086
REMARK  6 active torsions:
REMARK  status: ('A' for Active; 'I' for Inactive)
REMARK    1  A    between atoms: C_3  and  N_4 
REMARK    2  A    between atoms: N_4  and  C_5 
REMARK    3  A    between atoms: C_5  and  C_6 
REMARK    4  A    between atoms: N_8  and  C_10 
REMARK    5  A    between atoms: C_10  and  C_11 
REMARK    6  A    between atoms: C_12  and  O_13 
ROOT
HETATM    1  C   UNL     1      27.090  43.611  51.491  1.00  0.00     0.031 C 
HETATM    2  C   UNL     1      28.078  43.351  52.624  1.00  0.00     0.241 C 
HETATM    3  N   UNL     1      27.533  44.164  53.769  1.00  0.00    -0.067 N 
HETATM    4  H   UNL     1      27.605  43.603  54.640  1.00  0.00     0.280 HD
HETATM    5  C   UNL     1      26.068  44.430  53.502  1.00  0.00     0.235 C 
HETATM    6  C   UNL     1      25.763  43.630  52.242  1.00  0.00     0.035 C 
ENDROOT
BRANCH   3   7
HETATM    7  C   UNL     1      28.339  45.398  54.100  1.00  0.00     0.276 C 
BRANCH   7   8
HETATM    8  C   UNL     1      28.954  45.361  55.471  1.00  0.00     0.002 A 
HETATM    9  C   UNL     1      30.031  44.511  55.752  1.00  0.00     0.091 A 
HETATM   10  C   UNL     1      30.641  44.513  57.010  1.00  0.00     0.044 A 
HETATM   11 BR   UNL     1      32.099  43.364  57.378  1.00  0.00    -0.048 Br
HETATM   12  C   UNL     1      30.173  45.364  58.007  1.00  0.00     0.022 A 
HETATM   13  C   UNL     1      29.099  46.215  57.742  1.00  0.00     0.002 A 
HETATM   14  C   UNL     1      28.496  46.220  56.481  1.00  0.00     0.012 A 
BRANCH   9  15
HETATM   15  O   UNL     1      30.452  43.666  54.752  1.00  0.00    -0.359 OA
HETATM   16  H   UNL     1      31.433  43.628  54.823  1.00  0.00     0.218 HD
ENDBRANCH   9  15
ENDBRANCH   7   8
ENDBRANCH   3   7
BRANCH   1  17
HETATM   17  C   UNL     1      27.143  42.563  50.377  1.00  0.00     0.127 C 
BRANCH  17  18
HETATM   18  N   UNL     1      27.285  41.228  50.942  1.00  0.00    -0.376 N 
HETATM   19  H   UNL     1      26.374  40.802  51.157  1.00  0.00     0.161 HD
BRANCH  18  20
HETATM   20  C   UNL     1      28.156  40.243  50.486  1.00  0.00     0.100 A 
HETATM   21  C   UNL     1      28.216  39.976  49.109  1.00  0.00     0.048 A 
HETATM   22  C   UNL     1      29.029  38.956  48.621  1.00  0.00     0.005 A 
HETATM   23  C   UNL     1      29.778  38.200  49.510  1.00  0.00     0.017 A 
HETATM   24  C   UNL     1      29.695  38.485  50.864  1.00  0.00     0.089 A 
HETATM   25  N   UNL     1      28.896  39.474  51.302  1.00  0.00    -0.353 N 
HETATM   26  H   UNL     1      28.879  39.656  52.299  1.00  0.00     0.166 HD
ENDBRANCH  18  20
ENDBRANCH  17  18
ENDBRANCH   1  17
TORSDOF 6
ENDMDL
MODEL 8
REMARK VINA RESULT:      -7.1      9.029     13.183
REMARK  6 active torsions:
REMARK  status: ('A' for Active; 'I' for Inactive)
REMARK    1  A    between atoms: C_3  and  N_4 
REMARK    2  A    between atoms: N_4  and  C_5 
REMARK    3  A    between atoms: C_5  and  C_6 
REMARK    4  A    between atoms: N_8  and  C_10 
REMARK    5  A    between atoms: C_10  and  C_11 
REMARK    6  A    between atoms: C_12  and  O_13 
ROOT
HETATM    1  C   UNL     1      16.166  52.537  50.012  1.00  0.00     0.031 C 
HETATM    2  C   UNL     1      17.624  52.697  49.594  1.00  0.00     0.241 C 
HETATM    3  N   UNL     1      18.003  51.332  49.081  1.00  0.00    -0.067 N 
HETATM    4  H   UNL     1      18.569  51.446  48.218  1.00  0.00     0.280 HD
HETATM    5  C   UNL     1      16.733  50.596  48.718  1.00  0.00     0.235 C 
HETATM    6  C   UNL     1      15.630  51.630  48.908  1.00  0.00     0.035 C 
ENDROOT
BRANCH   3   7
HETATM    7  C   UNL     1      18.932  50.559  49.989  1.00  0.00     0.276 C 
BRANCH   7   8
HETATM    8  C   UNL     1      20.270  50.270  49.370  1.00  0.00     0.002 A 
HETATM    9  C   UNL     1      20.760  48.959  49.295  1.00  0.00     0.091 A 
HETATM   10  C   UNL     1      21.979  48.681  48.672  1.00  0.00     0.044 A 
HETATM   11 BR   UNL     1      22.629  46.906  48.570  1.00  0.00    -0.048 Br
HETATM   12  C   UNL     1      22.730  49.716  48.121  1.00  0.00     0.022 A 
HETATM   13  C   UNL     1      22.257  51.027  48.191  1.00  0.00     0.002 A 
HETATM   14  C   UNL     1      21.033  51.304  48.805  1.00  0.00     0.012 A 
BRANCH   9  15
HETATM   15  O   UNL     1      20.004  47.965  49.869  1.00  0.00    -0.359 OA
HETATM   16  H   UNL     1      19.217  47.850  49.289  1.00  0.00     0.218 HD
ENDBRANCH   9  15
ENDBRANCH   7   8
ENDBRANCH   3   7
BRANCH   1  17
HETATM   17  C   UNL     1      15.411  53.862  50.130  1.00  0.00     0.127 C 
BRANCH  17  18
HETATM   18  N   UNL     1      15.148  54.174  51.529  1.00  0.00    -0.376 N 
HETATM   19  H   UNL     1      15.600  53.504  52.165  1.00  0.00     0.161 HD
BRANCH  18  20
HETATM   20  C   UNL     1      15.186  55.444  52.097  1.00  0.00     0.100 A 
HETATM   21  C   UNL     1      15.098  56.565  51.258  1.00  0.00     0.048 A 
HETATM   22  C   UNL     1      15.195  57.851  51.782  1.00  0.00     0.005 A 
HETATM   23  C   UNL     1      15.386  58.017  53.146  1.00  0.00     0.017 A 
HETATM   24  C   UNL     1      15.473  56.890  53.949  1.00  0.00     0.089 A 
HETATM   25  N   UNL     1      15.380  55.662  53.409  1.00  0.00    -0.353 N 
HETATM   26  H   UNL     1      15.434  54.868  54.037  1.00  0.00     0.166 HD
ENDBRANCH  18  20
ENDBRANCH  17  18
ENDBRANCH   1  17
TORSDOF 6
ENDMDL
MODEL 9
REMARK VINA RESULT:      -7.0      5.127      6.224
REMARK  6 active torsions:
REMARK  status: ('A' for Active; 'I' for Inactive)
REMARK    1  A    between atoms: C_3  and  N_4 
REMARK    2  A    between atoms: N_4  and  C_5 
REMARK    3  A    between atoms: C_5  and  C_6 
REMARK    4  A    between atoms: N_8  and  C_10 
REMARK    5  A    between atoms: C_10  and  C_11 
REMARK    6  A    between atoms: C_12  and  O_13 
ROOT
HETATM    1  C   UNL     1      28.097  42.396  53.197  1.00  0.00     0.031 C 
HETATM    2  C   UNL     1      28.401  41.770  51.839  1.00  0.00     0.241 C 
HETATM    3  N   UNL     1      27.288  42.271  50.955  1.00  0.00    -0.067 N 
HETATM    4  H   UNL     1      27.689  42.538  50.035  1.00  0.00     0.280 HD
HETATM    5  C   UNL     1      26.704  43.512  51.592  1.00  0.00     0.235 C 
HETATM    6  C   UNL     1      27.605  43.782  52.790  1.00  0.00     0.035 C 
ENDROOT
BRANCH   3   7
HETATM    7  C   UNL     1      26.266  41.223  50.583  1.00  0.00     0.276 C 
BRANCH   7   8
HETATM    8  C   UNL     1      26.701  40.339  49.448  1.00  0.00     0.002 A 
HETATM    9  C   UNL     1      27.092  40.888  48.219  1.00  0.00     0.091 A 
HETATM   10  C   UNL     1      27.548  40.073  47.179  1.00  0.00     0.044 A 
HETATM   11 BR   UNL     1      28.079  40.824  45.526  1.00  0.00    -0.048 Br
HETATM   12  C   UNL     1      27.611  38.693  47.355  1.00  0.00     0.022 A 
HETATM   13  C   UNL     1      27.222  38.132  48.572  1.00  0.00     0.002 A 
HETATM   14  C   UNL     1      26.775  38.948  49.615  1.00  0.00     0.012 A 
BRANCH   9  15
HETATM   15  O   UNL     1      26.994  42.251  48.072  1.00  0.00    -0.359 OA
HETATM   16  H   UNL     1      26.560  42.401  47.202  1.00  0.00     0.218 HD
ENDBRANCH   9  15
ENDBRANCH   7   8
ENDBRANCH   3   7
BRANCH   1  17
HETATM   17  C   UNL     1      29.300  42.431  54.142  1.00  0.00     0.127 C 
BRANCH  17  18
HETATM   18  N   UNL     1      29.633  43.806  54.489  1.00  0.00    -0.376 N 
HETATM   19  H   UNL     1      28.898  44.465  54.202  1.00  0.00     0.161 HD
BRANCH  18  20
HETATM   20  C   UNL     1      30.181  44.226  55.698  1.00  0.00     0.100 A 
HETATM   21  C   UNL     1      31.127  43.408  56.334  1.00  0.00     0.048 A 
HETATM   22  C   UNL     1      31.651  43.764  57.574  1.00  0.00     0.005 A 
HETATM   23  C   UNL     1      31.224  44.936  58.181  1.00  0.00     0.017 A 
HETATM   24  C   UNL     1      30.284  45.720  57.530  1.00  0.00     0.089 A 
HETATM   25  N   UNL     1      29.796  45.344  56.335  1.00  0.00    -0.353 N 
HETATM   26  H   UNL     1      29.123  45.958  55.890  1.00  0.00     0.166 HD
ENDBRANCH  18  20
ENDBRANCH  17  18
ENDBRANCH   1  17
TORSDOF 6
ENDMDL
MODEL 10
REMARK VINA RESULT:      -7.0      5.484      7.282
REMARK  6 active torsions:
REMARK  status: ('A' for Active; 'I' for Inactive)
REMARK    1  A    between atoms: C_3  and  N_4 
REMARK    2  A    between atoms: N_4  and  C_5 
REMARK    3  A    between atoms: C_5  and  C_6 
REMARK    4  A    between atoms: N_8  and  C_10 
REMARK    5  A    between atoms: C_10  and  C_11 
REMARK    6  A    between atoms: C_12  and  O_13 
ROOT
HETATM    1  C   UNL     1      26.510  42.613  50.975  1.00  0.00     0.031 C 
HETATM    2  C   UNL     1      25.155  43.109  51.471  1.00  0.00     0.241 C 
HETATM    3  N   UNL     1      25.460  44.465  52.053  1.00  0.00    -0.067 N 
HETATM    4  H   UNL     1      24.709  45.125  51.771  1.00  0.00     0.280 HD
HETATM    5  C   UNL     1      26.763  44.950  51.458  1.00  0.00     0.235 C 
HETATM    6  C   UNL     1      27.119  43.896  50.418  1.00  0.00     0.035 C 
ENDROOT
BRANCH   3   7
HETATM    7  C   UNL     1      25.405  44.523  53.562  1.00  0.00     0.276 C 
BRANCH   7   8
HETATM    8  C   UNL     1      26.665  45.055  54.186  1.00  0.00     0.002 A 
HETATM    9  C   UNL     1      27.747  44.206  54.454  1.00  0.00     0.091 A 
HETATM   10  C   UNL     1      28.939  44.706  54.986  1.00  0.00     0.044 A 
HETATM   11 BR   UNL     1      30.397  43.553  55.339  1.00  0.00    -0.048 Br
HETATM   12  C   UNL     1      29.060  46.065  55.262  1.00  0.00     0.022 A 
HETATM   13  C   UNL     1      27.990  46.922  55.004  1.00  0.00     0.002 A 
HETATM   14  C   UNL     1      26.801  46.423  54.464  1.00  0.00     0.012 A 
BRANCH   9  15
HETATM   15  O   UNL     1      27.585  42.867  54.191  1.00  0.00    -0.359 OA
HETATM   16  H   UNL     1      26.661  42.648  54.450  1.00  0.00     0.218 HD
ENDBRANCH   9  15
ENDBRANCH   7   8
ENDBRANCH   3   7
BRANCH   1  17
HETATM   17  C   UNL     1      26.413  41.488  49.943  1.00  0.00     0.127 C 
BRANCH  17  18
HETATM   18  N   UNL     1      27.725  41.205  49.375  1.00  0.00    -0.376 N 
HETATM   19  H   UNL     1      28.324  42.040  49.355  1.00  0.00     0.161 HD
BRANCH  18  20
HETATM   20  C   UNL     1      28.504  40.086  49.655  1.00  0.00     0.100 A 
HETATM   21  C   UNL     1      28.892  39.249  48.597  1.00  0.00     0.048 A 
HETATM   22  C   UNL     1      29.619  38.087  48.845  1.00  0.00     0.005 A 
HETATM   23  C   UNL     1      29.953  37.760  50.150  1.00  0.00     0.017 A 
HETATM   24  C   UNL     1      29.552  38.604  51.174  1.00  0.00     0.089 A 
HETATM   25  N   UNL     1      28.847  39.716  50.900  1.00  0.00    -0.353 N 
HETATM   26  H   UNL     1      28.589  40.312  51.679  1.00  0.00     0.166 HD
ENDBRANCH  18  20
ENDBRANCH  17  18
ENDBRANCH   1  17
TORSDOF 6
ENDMDL
