MODEL 1
REMARK VINA RESULT:      -7.7      0.000      0.000
REMARK  9 active torsions:
REMARK  status: ('A' for Active; 'I' for Inactive)
REMARK    1  A    between atoms: C_2  and  C_3 
REMARK    2  A    between atoms: C_7  and  C_8 
REMARK    3  A    between atoms: C_8  and  C_9 
REMARK       I    between atoms: C_9  and  N_10 
REMARK    4  A    between atoms: N_10  and  C_11 
REMARK    5  A    between atoms: C_11  and  C_12 
REMARK    6  A    between atoms: C_12  and  N_13 
REMARK    7  A    between atoms: C_21  and  C_22 
REMARK    8  A    between atoms: C_32  and  C_33 
REMARK    9  A    between atoms: C_33  and  O_34 
ROOT
HETATM    1  C   UNL     1      26.523  42.193  48.709  1.00  0.00     0.037 C 
HETATM    2  N   UNL     1      25.367  42.020  47.976  1.00  0.00    -0.232 NA
HETATM    3  C   UNL     1      24.342  42.733  48.290  1.00  0.00     0.169 C 
HETATM    4  N   UNL     1      24.382  44.023  49.185  1.00  0.00    -0.321 N 
HETATM    5  C   UNL     1      23.292  44.689  48.978  1.00  0.00     0.011 C 
HETATM    6  C   UNL     1      25.737  44.340  49.677  1.00  0.00     0.151 C 
HETATM    7  S   UNL     1      22.772  42.470  47.586  1.00  0.00    -0.086 SA
HETATM    8  C   UNL     1      22.105  43.846  48.563  1.00  0.00     0.135 C 
HETATM    9  C   UNL     1      26.602  43.104  49.704  1.00  0.00     0.138 C 
ENDROOT
BRANCH   5  10
HETATM   10  C   UNL     1      23.276  46.190  48.851  1.00  0.00     0.156 C 
BRANCH  10  11
HETATM   11  C   UNL     1      22.006  46.595  48.103  1.00  0.00     0.223 C 
HETATM   12  N   UNL     1      20.928  46.955  48.857  1.00  0.00    -0.359 N 
HETATM   13  H   UNL     1      21.023  46.917  49.871  1.00  0.00     0.162 HD
HETATM   14  O   UNL     1      21.969  46.562  46.872  1.00  0.00    -0.273 OA
BRANCH  12  15
HETATM   15  C   UNL     1      19.539  47.039  48.374  1.00  0.00     0.150 C 
BRANCH  15  16
HETATM   16  C   UNL     1      18.495  47.826  49.211  1.00  0.00     0.254 C 
BRANCH  16  17
HETATM   17  N   UNL     1      18.583  49.335  49.046  1.00  0.00    -0.070 N 
HETATM   18  H   UNL     1      17.601  49.669  49.095  1.00  0.00     0.279 HD
HETATM   19  C   UNL     1      19.367  50.043  50.128  1.00  0.00     0.235 C 
HETATM   20  C   UNL     1      19.224  51.550  49.954  1.00  0.00     0.028 C 
HETATM   21  C   UNL     1      19.667  52.005  48.570  1.00  0.00     0.003 C 
HETATM   22  C   UNL     1      18.945  51.224  47.478  1.00  0.00     0.028 C 
HETATM   23  C   UNL     1      19.087  49.719  47.669  1.00  0.00     0.235 C 
ENDBRANCH  16  17
ENDBRANCH  15  16
ENDBRANCH  12  15
ENDBRANCH  10  11
ENDBRANCH   5  10
BRANCH   6  24
HETATM   24  C   UNL     1      25.786  45.179  50.958  1.00  0.00    -0.027 A 
HETATM   25  C   UNL     1      26.336  46.486  50.950  1.00  0.00    -0.053 A 
HETATM   26  C   UNL     1      26.843  47.164  49.701  1.00  0.00     0.049 C 
HETATM   27  C   UNL     1      26.416  47.216  52.152  1.00  0.00     0.014 A 
HETATM   28  C   UNL     1      25.990  46.673  53.366  1.00  0.00    -0.061 A 
HETATM   29  C   UNL     1      26.176  47.432  54.650  1.00  0.00     0.048 C 
HETATM   30  C   UNL     1      25.481  45.377  53.382  1.00  0.00     0.007 A 
HETATM   31  C   UNL     1      25.379  44.641  52.199  1.00  0.00     0.010 A 
ENDBRANCH   6  24
BRANCH   9  32
HETATM   32  C   UNL     1      26.639  42.382  50.997  1.00  0.00     0.277 C 
HETATM   33  O   UNL     1      25.704  41.652  51.309  1.00  0.00    -0.264 OA
BRANCH  32  34
HETATM   34  O   UNL     1      27.794  42.565  51.655  1.00  0.00    -0.325 OA
HETATM   35  C   UNL     1      27.942  41.713  52.799  1.00  0.00     0.213 C 
ENDBRANCH  32  34
ENDBRANCH   9  32
BRANCH   1  36
HETATM   36  C   UNL     1      27.604  41.158  48.431  1.00  0.00     0.052 C 
HETATM   37  C   UNL     1      27.775  40.868  46.940  1.00  0.00     0.011 C 
ENDBRANCH   1  36
TORSDOF 9
ENDMDL
MODEL 2
REMARK VINA RESULT:      -7.6      2.900      8.558
REMARK  9 active torsions:
REMARK  status: ('A' for Active; 'I' for Inactive)
REMARK    1  A    between atoms: C_2  and  C_3 
REMARK    2  A    between atoms: C_7  and  C_8 
REMARK    3  A    between atoms: C_8  and  C_9 
REMARK       I    between atoms: C_9  and  N_10 
REMARK    4  A    between atoms: N_10  and  C_11 
REMARK    5  A    between atoms: C_11  and  C_12 
REMARK    6  A    between atoms: C_12  and  N_13 
REMARK    7  A    between atoms: C_21  and  C_22 
REMARK    8  A    between atoms: C_32  and  C_33 
REMARK    9  A    between atoms: C_33  and  O_34 
ROOT
HETATM    1  C   UNL     1      19.583  44.068  45.832  1.00  0.00     0.037 C 
HETATM    2  N   UNL     1      20.390  42.960  45.986  1.00  0.00    -0.232 NA
HETATM    3  C   UNL     1      21.450  43.081  46.705  1.00  0.00     0.169 C 
HETATM    4  N   UNL     1      21.729  44.257  47.709  1.00  0.00    -0.321 N 
HETATM    5  C   UNL     1      22.658  43.877  48.525  1.00  0.00     0.011 C 
HETATM    6  C   UNL     1      20.646  45.262  47.732  1.00  0.00     0.151 C 
HETATM    7  S   UNL     1      22.652  41.827  46.813  1.00  0.00    -0.086 SA
HETATM    8  C   UNL     1      23.617  42.852  47.957  1.00  0.00     0.135 C 
HETATM    9  C   UNL     1      19.866  45.241  46.441  1.00  0.00     0.138 C 
ENDROOT
BRANCH   5  10
HETATM   10  C   UNL     1      22.609  44.180  50.000  1.00  0.00     0.156 C 
BRANCH  10  11
HETATM   11  C   UNL     1      24.023  44.526  50.465  1.00  0.00     0.223 C 
HETATM   12  N   UNL     1      24.635  43.642  51.305  1.00  0.00    -0.359 N 
HETATM   13  H   UNL     1      24.111  42.814  51.587  1.00  0.00     0.162 HD
HETATM   14  O   UNL     1      24.559  45.576  50.111  1.00  0.00    -0.273 OA
BRANCH  12  15
HETATM   15  C   UNL     1      25.819  43.930  52.132  1.00  0.00     0.150 C 
BRANCH  15  16
HETATM   16  C   UNL     1      27.232  43.779  51.506  1.00  0.00     0.254 C 
BRANCH  16  17
HETATM   17  N   UNL     1      28.364  43.831  52.520  1.00  0.00    -0.070 N 
HETATM   18  H   UNL     1      29.008  44.565  52.167  1.00  0.00     0.279 HD
HETATM   19  C   UNL     1      27.942  44.219  53.918  1.00  0.00     0.235 C 
HETATM   20  C   UNL     1      29.179  44.417  54.786  1.00  0.00     0.028 C 
HETATM   21  C   UNL     1      30.061  43.176  54.805  1.00  0.00     0.003 C 
HETATM   22  C   UNL     1      30.409  42.727  53.390  1.00  0.00     0.028 C 
HETATM   23  C   UNL     1      29.165  42.544  52.531  1.00  0.00     0.235 C 
ENDBRANCH  16  17
ENDBRANCH  15  16
ENDBRANCH  12  15
ENDBRANCH  10  11
ENDBRANCH   5  10
BRANCH   6  24
HETATM   24  C   UNL     1      21.064  46.659  48.202  1.00  0.00    -0.027 A 
HETATM   25  C   UNL     1      20.115  47.549  48.767  1.00  0.00    -0.053 A 
HETATM   26  C   UNL     1      18.672  47.179  49.006  1.00  0.00     0.049 C 
HETATM   27  C   UNL     1      20.514  48.846  49.143  1.00  0.00     0.014 A 
HETATM   28  C   UNL     1      21.823  49.293  48.948  1.00  0.00    -0.061 A 
HETATM   29  C   UNL     1      22.201  50.713  49.266  1.00  0.00     0.048 C 
HETATM   30  C   UNL     1      22.747  48.432  48.362  1.00  0.00     0.007 A 
HETATM   31  C   UNL     1      22.376  47.136  47.995  1.00  0.00     0.010 A 
ENDBRANCH   6  24
BRANCH   9  32
HETATM   32  C   UNL     1      20.317  46.206  45.411  1.00  0.00     0.277 C 
HETATM   33  O   UNL     1      21.355  45.992  44.793  1.00  0.00    -0.264 OA
BRANCH  32  34
HETATM   34  O   UNL     1      19.436  47.201  45.219  1.00  0.00    -0.325 OA
HETATM   35  C   UNL     1      19.015  47.335  43.854  1.00  0.00     0.213 C 
ENDBRANCH  32  34
ENDBRANCH   9  32
BRANCH   1  36
HETATM   36  C   UNL     1      18.488  43.908  44.787  1.00  0.00     0.052 C 
HETATM   37  C   UNL     1      18.961  43.153  43.546  1.00  0.00     0.011 C 
ENDBRANCH   1  36
TORSDOF 9
ENDMDL
MODEL 3
REMARK VINA RESULT:      -7.5     20.110     22.857
REMARK  9 active torsions:
REMARK  status: ('A' for Active; 'I' for Inactive)
REMARK    1  A    between atoms: C_2  and  C_3 
REMARK    2  A    between atoms: C_7  and  C_8 
REMARK    3  A    between atoms: C_8  and  C_9 
REMARK       I    between atoms: C_9  and  N_10 
REMARK    4  A    between atoms: N_10  and  C_11 
REMARK    5  A    between atoms: C_11  and  C_12 
REMARK    6  A    between atoms: C_12  and  N_13 
REMARK    7  A    between atoms: C_21  and  C_22 
REMARK    8  A    between atoms: C_32  and  C_33 
REMARK    9  A    between atoms: C_33  and  O_34 
ROOT
HETATM    1  C   UNL     1      40.622  46.984  66.312  1.00  0.00     0.037 C 
HETATM    2  N   UNL     1      39.654  47.933  66.054  1.00  0.00    -0.232 NA
HETATM    3  C   UNL     1      38.654  47.590  65.321  1.00  0.00     0.169 C 
HETATM    4  N   UNL     1      38.247  46.110  64.987  1.00  0.00    -0.321 N 
HETATM    5  C   UNL     1      37.019  46.113  64.579  1.00  0.00     0.011 C 
HETATM    6  C   UNL     1      39.161  45.114  65.581  1.00  0.00     0.151 C 
HETATM    7  S   UNL     1      37.476  48.738  64.754  1.00  0.00    -0.086 SA
HETATM    8  C   UNL     1      36.575  47.402  63.920  1.00  0.00     0.135 C 
HETATM    9  C   UNL     1      40.517  45.720  65.846  1.00  0.00     0.138 C 
ENDROOT
BRANCH   5  10
HETATM   10  C   UNL     1      36.027  45.059  64.998  1.00  0.00     0.156 C 
BRANCH  10  11
HETATM   11  C   UNL     1      35.892  45.106  66.519  1.00  0.00     0.223 C 
HETATM   12  N   UNL     1      35.528  46.297  67.075  1.00  0.00    -0.359 N 
HETATM   13  H   UNL     1      35.384  47.089  66.449  1.00  0.00     0.162 HD
HETATM   14  O   UNL     1      36.135  44.108  67.199  1.00  0.00    -0.273 OA
BRANCH  12  15
HETATM   15  C   UNL     1      35.674  46.656  68.496  1.00  0.00     0.150 C 
BRANCH  15  16
HETATM   16  C   UNL     1      37.093  46.932  69.063  1.00  0.00     0.254 C 
BRANCH  16  17
HETATM   17  N   UNL     1      37.670  48.277  68.653  1.00  0.00    -0.070 N 
HETATM   18  H   UNL     1      38.053  48.127  67.699  1.00  0.00     0.279 HD
HETATM   19  C   UNL     1      36.661  49.400  68.576  1.00  0.00     0.235 C 
HETATM   20  C   UNL     1      37.323  50.637  67.979  1.00  0.00     0.028 C 
HETATM   21  C   UNL     1      38.552  51.059  68.772  1.00  0.00     0.003 C 
HETATM   22  C   UNL     1      39.528  49.900  68.933  1.00  0.00     0.028 C 
HETATM   23  C   UNL     1      38.852  48.667  69.520  1.00  0.00     0.235 C 
ENDBRANCH  16  17
ENDBRANCH  15  16
ENDBRANCH  12  15
ENDBRANCH  10  11
ENDBRANCH   5  10
BRANCH   6  24
HETATM   24  C   UNL     1      39.198  43.757  64.871  1.00  0.00    -0.027 A 
HETATM   25  C   UNL     1      39.555  42.578  65.574  1.00  0.00    -0.053 A 
HETATM   26  C   UNL     1      39.856  42.555  67.053  1.00  0.00     0.049 C 
HETATM   27  C   UNL     1      39.632  41.352  64.886  1.00  0.00     0.014 A 
HETATM   28  C   UNL     1      39.390  41.268  63.513  1.00  0.00    -0.061 A 
HETATM   29  C   UNL     1      39.572  39.968  62.782  1.00  0.00     0.048 C 
HETATM   30  C   UNL     1      39.071  42.430  62.815  1.00  0.00     0.007 A 
HETATM   31  C   UNL     1      38.976  43.655  63.480  1.00  0.00     0.010 A 
ENDBRANCH   6  24
BRANCH   9  32
HETATM   32  C   UNL     1      41.517  45.535  64.768  1.00  0.00     0.277 C 
HETATM   33  O   UNL     1      41.446  46.219  63.752  1.00  0.00    -0.264 OA
BRANCH  32  34
HETATM   34  O   UNL     1      42.474  44.654  65.101  1.00  0.00    -0.325 OA
HETATM   35  C   UNL     1      43.804  45.155  64.906  1.00  0.00     0.213 C 
ENDBRANCH  32  34
ENDBRANCH   9  32
BRANCH   1  36
HETATM   36  C   UNL     1      41.874  47.530  66.983  1.00  0.00     0.052 C 
HETATM   37  C   UNL     1      42.247  46.762  68.251  1.00  0.00     0.011 C 
ENDBRANCH   1  36
TORSDOF 9
ENDMDL
MODEL 4
REMARK VINA RESULT:      -7.5      4.159      6.402
REMARK  9 active torsions:
REMARK  status: ('A' for Active; 'I' for Inactive)
REMARK    1  A    between atoms: C_2  and  C_3 
REMARK    2  A    between atoms: C_7  and  C_8 
REMARK    3  A    between atoms: C_8  and  C_9 
REMARK       I    between atoms: C_9  and  N_10 
REMARK    4  A    between atoms: N_10  and  C_11 
REMARK    5  A    between atoms: C_11  and  C_12 
REMARK    6  A    between atoms: C_12  and  N_13 
REMARK    7  A    between atoms: C_21  and  C_22 
REMARK    8  A    between atoms: C_32  and  C_33 
REMARK    9  A    between atoms: C_33  and  O_34 
ROOT
HETATM    1  C   UNL     1      19.648  46.943  46.374  1.00  0.00     0.037 C 
HETATM    2  N   UNL     1      18.526  47.253  47.115  1.00  0.00    -0.232 NA
HETATM    3  C   UNL     1      18.698  47.726  48.300  1.00  0.00     0.169 C 
HETATM    4  N   UNL     1      20.047  48.316  48.848  1.00  0.00    -0.321 N 
HETATM    5  C   UNL     1      19.776  49.038  49.888  1.00  0.00     0.011 C 
HETATM    6  C   UNL     1      21.146  48.249  47.864  1.00  0.00     0.151 C 
HETATM    7  S   UNL     1      17.378  47.964  49.409  1.00  0.00    -0.086 SA
HETATM    8  C   UNL     1      18.536  48.614  50.646  1.00  0.00     0.135 C 
HETATM    9  C   UNL     1      20.895  47.160  46.851  1.00  0.00     0.138 C 
ENDROOT
BRANCH   5  10
HETATM   10  C   UNL     1      20.443  50.364  50.145  1.00  0.00     0.156 C 
BRANCH  10  11
HETATM   11  C   UNL     1      19.624  51.454  49.456  1.00  0.00     0.223 C 
HETATM   12  N   UNL     1      18.387  51.718  49.967  1.00  0.00    -0.359 N 
HETATM   13  H   UNL     1      18.073  51.164  50.764  1.00  0.00     0.162 HD
HETATM   14  O   UNL     1      20.066  52.038  48.466  1.00  0.00    -0.273 OA
BRANCH  12  15
HETATM   15  C   UNL     1      17.317  52.456  49.274  1.00  0.00     0.150 C 
BRANCH  15  16
HETATM   16  C   UNL     1      16.152  51.663  48.621  1.00  0.00     0.254 C 
BRANCH  16  17
HETATM   17  N   UNL     1      15.947  51.970  47.147  1.00  0.00    -0.070 N 
HETATM   18  H   UNL     1      15.534  51.106  46.746  1.00  0.00     0.279 HD
HETATM   19  C   UNL     1      14.995  53.111  46.867  1.00  0.00     0.235 C 
HETATM   20  C   UNL     1      14.731  53.195  45.368  1.00  0.00     0.028 C 
HETATM   21  C   UNL     1      16.021  53.352  44.574  1.00  0.00     0.003 C 
HETATM   22  C   UNL     1      17.020  52.256  44.927  1.00  0.00     0.028 C 
HETATM   23  C   UNL     1      17.266  52.175  46.429  1.00  0.00     0.235 C 
ENDBRANCH  16  17
ENDBRANCH  15  16
ENDBRANCH  12  15
ENDBRANCH  10  11
ENDBRANCH   5  10
BRANCH   6  24
HETATM   24  C   UNL     1      22.556  48.250  48.462  1.00  0.00    -0.027 A 
HETATM   25  C   UNL     1      23.443  49.333  48.230  1.00  0.00    -0.053 A 
HETATM   26  C   UNL     1      23.058  50.567  47.452  1.00  0.00     0.049 C 
HETATM   27  C   UNL     1      24.752  49.285  48.747  1.00  0.00     0.014 A 
HETATM   28  C   UNL     1      25.214  48.180  49.466  1.00  0.00    -0.061 A 
HETATM   29  C   UNL     1      26.643  48.109  49.924  1.00  0.00     0.048 C 
HETATM   30  C   UNL     1      24.355  47.102  49.666  1.00  0.00     0.007 A 
HETATM   31  C   UNL     1      23.048  47.134  49.174  1.00  0.00     0.010 A 
ENDBRANCH   6  24
BRANCH   9  32
HETATM   32  C   UNL     1      21.510  45.849  47.162  1.00  0.00     0.277 C 
HETATM   33  O   UNL     1      21.015  45.139  48.033  1.00  0.00    -0.264 OA
BRANCH  32  34
HETATM   34  O   UNL     1      22.535  45.555  46.347  1.00  0.00    -0.325 OA
HETATM   35  C   UNL     1      23.090  44.252  46.573  1.00  0.00     0.213 C 
ENDBRANCH  32  34
ENDBRANCH   9  32
BRANCH   1  36
HETATM   36  C   UNL     1      19.363  46.179  45.090  1.00  0.00     0.052 C 
HETATM   37  C   UNL     1      19.834  46.923  43.842  1.00  0.00     0.011 C 
ENDBRANCH   1  36
TORSDOF 9
ENDMDL
MODEL 5
REMARK VINA RESULT:      -7.5     20.850     23.188
REMARK  9 active torsions:
REMARK  status: ('A' for Active; 'I' for Inactive)
REMARK    1  A    between atoms: C_2  and  C_3 
REMARK    2  A    between atoms: C_7  and  C_8 
REMARK    3  A    between atoms: C_8  and  C_9 
REMARK       I    between atoms: C_9  and  N_10 
REMARK    4  A    between atoms: N_10  and  C_11 
REMARK    5  A    between atoms: C_11  and  C_12 
REMARK    6  A    between atoms: C_12  and  N_13 
REMARK    7  A    between atoms: C_21  and  C_22 
REMARK    8  A    between atoms: C_32  and  C_33 
REMARK    9  A    between atoms: C_33  and  O_34 
ROOT
HETATM    1  C   UNL     1      37.580  45.854  66.391  1.00  0.00     0.037 C 
HETATM    2  N   UNL     1      38.321  46.219  67.496  1.00  0.00    -0.232 NA
HETATM    3  C   UNL     1      39.288  45.449  67.855  1.00  0.00     0.169 C 
HETATM    4  N   UNL     1      39.928  44.329  66.959  1.00  0.00    -0.321 N 
HETATM    5  C   UNL     1      41.086  44.030  67.455  1.00  0.00     0.011 C 
HETATM    6  C   UNL     1      39.283  44.212  65.636  1.00  0.00     0.151 C 
HETATM    7  S   UNL     1      40.165  45.683  69.340  1.00  0.00    -0.086 SA
HETATM    8  C   UNL     1      41.210  44.253  68.948  1.00  0.00     0.135 C 
HETATM    9  C   UNL     1      37.872  44.743  65.677  1.00  0.00     0.138 C 
ENDROOT
BRANCH   5  10
HETATM   10  C   UNL     1      42.295  43.786  66.590  1.00  0.00     0.156 C 
BRANCH  10  11
HETATM   11  C   UNL     1      42.448  44.969  65.635  1.00  0.00     0.223 C 
HETATM   12  N   UNL     1      42.371  46.219  66.175  1.00  0.00    -0.359 N 
HETATM   13  H   UNL     1      42.200  46.293  67.178  1.00  0.00     0.162 HD
HETATM   14  O   UNL     1      42.604  44.781  64.428  1.00  0.00    -0.273 OA
BRANCH  12  15
HETATM   15  C   UNL     1      42.146  47.463  65.420  1.00  0.00     0.150 C 
BRANCH  15  16
HETATM   16  C   UNL     1      40.763  47.704  64.756  1.00  0.00     0.254 C 
BRANCH  16  17
HETATM   17  N   UNL     1      39.775  48.444  65.642  1.00  0.00    -0.070 N 
HETATM   18  H   UNL     1      39.096  47.722  65.951  1.00  0.00     0.279 HD
HETATM   19  C   UNL     1      40.380  49.068  66.879  1.00  0.00     0.235 C 
HETATM   20  C   UNL     1      39.269  49.612  67.769  1.00  0.00     0.028 C 
HETATM   21  C   UNL     1      38.387  50.608  67.028  1.00  0.00     0.003 C 
HETATM   22  C   UNL     1      37.852  50.011  65.732  1.00  0.00     0.028 C 
HETATM   23  C   UNL     1      38.972  49.462  64.857  1.00  0.00     0.235 C 
ENDBRANCH  16  17
ENDBRANCH  15  16
ENDBRANCH  12  15
ENDBRANCH  10  11
ENDBRANCH   5  10
BRANCH   6  24
HETATM   24  C   UNL     1      39.429  42.846  64.958  1.00  0.00    -0.027 A 
HETATM   25  C   UNL     1      39.411  42.730  63.545  1.00  0.00    -0.053 A 
HETATM   26  C   UNL     1      39.315  43.917  62.618  1.00  0.00     0.049 C 
HETATM   27  C   UNL     1      39.494  41.457  62.948  1.00  0.00     0.014 A 
HETATM   28  C   UNL     1      39.568  40.294  63.716  1.00  0.00    -0.061 A 
HETATM   29  C   UNL     1      39.558  38.942  63.060  1.00  0.00     0.048 C 
HETATM   30  C   UNL     1      39.553  40.403  65.104  1.00  0.00     0.007 A 
HETATM   31  C   UNL     1      39.484  41.657  65.717  1.00  0.00     0.010 A 
ENDBRANCH   6  24
BRANCH   9  32
HETATM   32  C   UNL     1      36.819  43.733  65.934  1.00  0.00     0.277 C 
HETATM   33  O   UNL     1      36.461  43.512  67.087  1.00  0.00    -0.264 OA
BRANCH  32  34
HETATM   34  O   UNL     1      36.306  43.226  64.802  1.00  0.00    -0.325 OA
HETATM   35  C   UNL     1      35.794  41.895  64.954  1.00  0.00     0.213 C 
ENDBRANCH  32  34
ENDBRANCH   9  32
BRANCH   1  36
HETATM   36  C   UNL     1      36.324  46.685  66.174  1.00  0.00     0.052 C 
HETATM   37  C   UNL     1      35.818  47.338  67.461  1.00  0.00     0.011 C 
ENDBRANCH   1  36
TORSDOF 9
ENDMDL
MODEL 6
REMARK VINA RESULT:      -7.4      5.280      8.904
REMARK  9 active torsions:
REMARK  status: ('A' for Active; 'I' for Inactive)
REMARK    1  A    between atoms: C_2  and  C_3 
REMARK    2  A    between atoms: C_7  and  C_8 
REMARK    3  A    between atoms: C_8  and  C_9 
REMARK       I    between atoms: C_9  and  N_10 
REMARK    4  A    between atoms: N_10  and  C_11 
REMARK    5  A    between atoms: C_11  and  C_12 
REMARK    6  A    between atoms: C_12  and  N_13 
REMARK    7  A    between atoms: C_21  and  C_22 
REMARK    8  A    between atoms: C_32  and  C_33 
REMARK    9  A    between atoms: C_33  and  O_34 
ROOT
HETATM    1  C   UNL     1      20.337  47.127  47.215  1.00  0.00     0.037 C 
HETATM    2  N   UNL     1      19.991  46.736  45.938  1.00  0.00    -0.232 NA
HETATM    3  C   UNL     1      19.090  47.419  45.322  1.00  0.00     0.169 C 
HETATM    4  N   UNL     1      18.605  48.854  45.739  1.00  0.00    -0.321 N 
HETATM    5  C   UNL     1      18.012  49.389  44.721  1.00  0.00     0.011 C 
HETATM    6  C   UNL     1      19.272  49.355  46.958  1.00  0.00     0.151 C 
HETATM    7  S   UNL     1      18.419  46.916  43.798  1.00  0.00    -0.086 SA
HETATM    8  C   UNL     1      17.373  48.398  43.770  1.00  0.00     0.135 C 
HETATM    9  C   UNL     1      19.782  48.212  47.800  1.00  0.00     0.138 C 
ENDROOT
BRANCH   5  10
HETATM   10  C   UNL     1      18.204  50.834  44.343  1.00  0.00     0.156 C 
BRANCH  10  11
HETATM   11  C   UNL     1      16.841  51.420  43.979  1.00  0.00     0.223 C 
HETATM   12  N   UNL     1      16.055  51.853  45.006  1.00  0.00    -0.359 N 
HETATM   13  H   UNL     1      16.412  51.746  45.955  1.00  0.00     0.162 HD
HETATM   14  O   UNL     1      16.473  51.463  42.804  1.00  0.00    -0.273 OA
BRANCH  12  15
HETATM   15  C   UNL     1      14.609  52.119  44.920  1.00  0.00     0.150 C 
BRANCH  15  16
HETATM   16  C   UNL     1      14.125  53.541  44.528  1.00  0.00     0.254 C 
BRANCH  16  17
HETATM   17  N   UNL     1      13.654  54.379  45.706  1.00  0.00    -0.070 N 
HETATM   18  H   UNL     1      12.621  54.282  45.710  1.00  0.00     0.279 HD
HETATM   19  C   UNL     1      14.167  53.921  47.052  1.00  0.00     0.235 C 
HETATM   20  C   UNL     1      13.482  54.718  48.155  1.00  0.00     0.028 C 
HETATM   21  C   UNL     1      13.678  56.217  47.976  1.00  0.00     0.003 C 
HETATM   22  C   UNL     1      13.250  56.665  46.583  1.00  0.00     0.028 C 
HETATM   23  C   UNL     1      13.934  55.854  45.491  1.00  0.00     0.235 C 
ENDBRANCH  16  17
ENDBRANCH  15  16
ENDBRANCH  12  15
ENDBRANCH  10  11
ENDBRANCH   5  10
BRANCH   6  24
HETATM   24  C   UNL     1      18.493  50.420  47.736  1.00  0.00    -0.027 A 
HETATM   25  C   UNL     1      19.172  51.432  48.461  1.00  0.00    -0.053 A 
HETATM   26  C   UNL     1      20.674  51.577  48.473  1.00  0.00     0.049 C 
HETATM   27  C   UNL     1      18.433  52.368  49.211  1.00  0.00     0.014 A 
HETATM   28  C   UNL     1      17.040  52.311  49.281  1.00  0.00    -0.061 A 
HETATM   29  C   UNL     1      16.280  53.260  50.164  1.00  0.00     0.048 C 
HETATM   30  C   UNL     1      16.373  51.299  48.596  1.00  0.00     0.007 A 
HETATM   31  C   UNL     1      17.086  50.368  47.835  1.00  0.00     0.010 A 
ENDBRANCH   6  24
BRANCH   9  32
HETATM   32  C   UNL     1      18.865  47.749  48.867  1.00  0.00     0.277 C 
HETATM   33  O   UNL     1      17.836  47.154  48.565  1.00  0.00    -0.264 OA
BRANCH  32  34
HETATM   34  O   UNL     1      19.350  47.981  50.098  1.00  0.00    -0.325 OA
HETATM   35  C   UNL     1      18.451  48.721  50.935  1.00  0.00     0.213 C 
ENDBRANCH  32  34
ENDBRANCH   9  32
BRANCH   1  36
HETATM   36  C   UNL     1      21.229  46.139  47.955  1.00  0.00     0.052 C 
HETATM   37  C   UNL     1      22.566  46.750  48.374  1.00  0.00     0.011 C 
ENDBRANCH   1  36
TORSDOF 9
ENDMDL
MODEL 7
REMARK VINA RESULT:      -7.4      2.963      8.991
REMARK  9 active torsions:
REMARK  status: ('A' for Active; 'I' for Inactive)
REMARK    1  A    between atoms: C_2  and  C_3 
REMARK    2  A    between atoms: C_7  and  C_8 
REMARK    3  A    between atoms: C_8  and  C_9 
REMARK       I    between atoms: C_9  and  N_10 
REMARK    4  A    between atoms: N_10  and  C_11 
REMARK    5  A    between atoms: C_11  and  C_12 
REMARK    6  A    between atoms: C_12  and  N_13 
REMARK    7  A    between atoms: C_21  and  C_22 
REMARK    8  A    between atoms: C_32  and  C_33 
REMARK    9  A    between atoms: C_33  and  O_34 
ROOT
HETATM    1  C   UNL     1      16.305  48.398  47.141  1.00  0.00     0.037 C 
HETATM    2  N   UNL     1      16.277  47.094  46.688  1.00  0.00    -0.232 NA
HETATM    3  C   UNL     1      17.387  46.442  46.660  1.00  0.00     0.169 C 
HETATM    4  N   UNL     1      18.698  46.861  47.418  1.00  0.00    -0.321 N 
HETATM    5  C   UNL     1      19.466  45.823  47.497  1.00  0.00     0.011 C 
HETATM    6  C   UNL     1      18.551  48.127  48.165  1.00  0.00     0.151 C 
HETATM    7  S   UNL     1      17.527  44.871  45.926  1.00  0.00    -0.086 SA
HETATM    8  C   UNL     1      19.282  44.815  46.382  1.00  0.00     0.135 C 
HETATM    9  C   UNL     1      17.448  48.972  47.578  1.00  0.00     0.138 C 
ENDROOT
BRANCH   5  10
HETATM   10  C   UNL     1      20.243  45.487  48.743  1.00  0.00     0.156 C 
BRANCH  10  11
HETATM   11  C   UNL     1      21.663  45.099  48.332  1.00  0.00     0.223 C 
HETATM   12  N   UNL     1      22.122  43.885  48.753  1.00  0.00    -0.359 N 
HETATM   13  H   UNL     1      21.502  43.316  49.329  1.00  0.00     0.162 HD
HETATM   14  O   UNL     1      22.357  45.874  47.675  1.00  0.00    -0.273 OA
BRANCH  12  15
HETATM   15  C   UNL     1      23.534  43.467  48.773  1.00  0.00     0.150 C 
BRANCH  15  16
HETATM   16  C   UNL     1      24.245  43.274  50.140  1.00  0.00     0.254 C 
BRANCH  16  17
HETATM   17  N   UNL     1      25.131  44.442  50.544  1.00  0.00    -0.070 N 
HETATM   18  H   UNL     1      26.044  44.014  50.792  1.00  0.00     0.279 HD
HETATM   19  C   UNL     1      25.378  45.455  49.450  1.00  0.00     0.235 C 
HETATM   20  C   UNL     1      26.420  46.464  49.918  1.00  0.00     0.028 C 
HETATM   21  C   UNL     1      26.004  47.147  51.214  1.00  0.00     0.003 C 
HETATM   22  C   UNL     1      25.663  46.124  52.290  1.00  0.00     0.028 C 
HETATM   23  C   UNL     1      24.628  45.115  51.805  1.00  0.00     0.235 C 
ENDBRANCH  16  17
ENDBRANCH  15  16
ENDBRANCH  12  15
ENDBRANCH  10  11
ENDBRANCH   5  10
BRANCH   6  24
HETATM   24  C   UNL     1      19.858  48.881  48.432  1.00  0.00    -0.027 A 
HETATM   25  C   UNL     1      20.030  49.638  49.618  1.00  0.00    -0.053 A 
HETATM   26  C   UNL     1      18.995  49.708  50.714  1.00  0.00     0.049 C 
HETATM   27  C   UNL     1      21.220  50.365  49.815  1.00  0.00     0.014 A 
HETATM   28  C   UNL     1      22.233  50.382  48.855  1.00  0.00    -0.061 A 
HETATM   29  C   UNL     1      23.452  51.241  49.043  1.00  0.00     0.048 C 
HETATM   30  C   UNL     1      22.052  49.665  47.674  1.00  0.00     0.007 A 
HETATM   31  C   UNL     1      20.885  48.927  47.464  1.00  0.00     0.010 A 
ENDBRANCH   6  24
BRANCH   9  32
HETATM   32  C   UNL     1      17.880  49.975  46.576  1.00  0.00     0.277 C 
HETATM   33  O   UNL     1      18.016  51.147  46.912  1.00  0.00    -0.264 OA
BRANCH  32  34
HETATM   34  O   UNL     1      18.162  49.422  45.386  1.00  0.00    -0.325 OA
HETATM   35  C   UNL     1      18.022  50.332  44.286  1.00  0.00     0.213 C 
ENDBRANCH  32  34
ENDBRANCH   9  32
BRANCH   1  36
HETATM   36  C   UNL     1      15.009  49.166  46.924  1.00  0.00     0.052 C 
HETATM   37  C   UNL     1      14.439  48.977  45.519  1.00  0.00     0.011 C 
ENDBRANCH   1  36
TORSDOF 9
ENDMDL
MODEL 8
REMARK VINA RESULT:      -7.4      5.418      9.432
REMARK  9 active torsions:
REMARK  status: ('A' for Active; 'I' for Inactive)
REMARK    1  A    between atoms: C_2  and  C_3 
REMARK    2  A    between atoms: C_7  and  C_8 
REMARK    3  A    between atoms: C_8  and  C_9 
REMARK       I    between atoms: C_9  and  N_10 
REMARK    4  A    between atoms: N_10  and  C_11 
REMARK    5  A    between atoms: C_11  and  C_12 
REMARK    6  A    between atoms: C_12  and  N_13 
REMARK    7  A    between atoms: C_21  and  C_22 
REMARK    8  A    between atoms: C_32  and  C_33 
REMARK    9  A    between atoms: C_33  and  O_34 
ROOT
HETATM    1  C   UNL     1      20.285  47.278  47.145  1.00  0.00     0.037 C 
HETATM    2  N   UNL     1      19.854  46.825  45.916  1.00  0.00    -0.232 NA
HETATM    3  C   UNL     1      18.864  47.434  45.362  1.00  0.00     0.169 C 
HETATM    4  N   UNL     1      18.332  48.853  45.779  1.00  0.00    -0.321 N 
HETATM    5  C   UNL     1      17.622  49.318  44.802  1.00  0.00     0.011 C 
HETATM    6  C   UNL     1      19.071  49.432  46.918  1.00  0.00     0.151 C 
HETATM    7  S   UNL     1      18.094  46.842  43.918  1.00  0.00    -0.086 SA
HETATM    8  C   UNL     1      16.963  48.261  43.940  1.00  0.00     0.135 C 
HETATM    9  C   UNL     1      19.719  48.350  47.745  1.00  0.00     0.138 C 
ENDROOT
BRANCH   5  10
HETATM   10  C   UNL     1      17.694  50.758  44.366  1.00  0.00     0.156 C 
BRANCH  10  11
HETATM   11  C   UNL     1      17.877  50.791  42.850  1.00  0.00     0.223 C 
HETATM   12  N   UNL     1      19.036  50.273  42.351  1.00  0.00    -0.359 N 
HETATM   13  H   UNL     1      19.719  49.911  43.016  1.00  0.00     0.162 HD
HETATM   14  O   UNL     1      17.016  51.295  42.127  1.00  0.00    -0.273 OA
BRANCH  12  15
HETATM   15  C   UNL     1      19.564  50.510  40.997  1.00  0.00     0.150 C 
BRANCH  15  16
HETATM   16  C   UNL     1      20.951  51.187  40.834  1.00  0.00     0.254 C 
BRANCH  16  17
HETATM   17  N   UNL     1      22.054  50.236  40.399  1.00  0.00    -0.070 N 
HETATM   18  H   UNL     1      22.847  50.430  41.041  1.00  0.00     0.279 HD
HETATM   19  C   UNL     1      21.708  48.770  40.521  1.00  0.00     0.235 C 
HETATM   20  C   UNL     1      22.947  47.930  40.236  1.00  0.00     0.028 C 
HETATM   21  C   UNL     1      23.539  48.240  38.868  1.00  0.00     0.003 C 
HETATM   22  C   UNL     1      23.800  49.733  38.708  1.00  0.00     0.028 C 
HETATM   23  C   UNL     1      22.557  50.561  39.006  1.00  0.00     0.235 C 
ENDBRANCH  16  17
ENDBRANCH  15  16
ENDBRANCH  12  15
ENDBRANCH  10  11
ENDBRANCH   5  10
BRANCH   6  24
HETATM   24  C   UNL     1      18.300  50.478  47.731  1.00  0.00    -0.027 A 
HETATM   25  C   UNL     1      18.986  51.486  48.454  1.00  0.00    -0.053 A 
HETATM   26  C   UNL     1      20.487  51.647  48.430  1.00  0.00     0.049 C 
HETATM   27  C   UNL     1      18.256  52.403  49.235  1.00  0.00     0.014 A 
HETATM   28  C   UNL     1      16.866  52.330  49.339  1.00  0.00    -0.061 A 
HETATM   29  C   UNL     1      16.118  53.258  50.254  1.00  0.00     0.048 C 
HETATM   30  C   UNL     1      16.193  51.320  48.656  1.00  0.00     0.007 A 
HETATM   31  C   UNL     1      16.896  50.408  47.864  1.00  0.00     0.010 A 
ENDBRANCH   6  24
BRANCH   9  32
HETATM   32  C   UNL     1      18.927  47.873  48.902  1.00  0.00     0.277 C 
HETATM   33  O   UNL     1      17.933  47.179  48.711  1.00  0.00    -0.264 OA
BRANCH  32  34
HETATM   34  O   UNL     1      19.480  48.210  50.078  1.00  0.00    -0.325 OA
HETATM   35  C   UNL     1      18.543  48.765  51.011  1.00  0.00     0.213 C 
ENDBRANCH  32  34
ENDBRANCH   9  32
BRANCH   1  36
HETATM   36  C   UNL     1      21.294  46.369  47.831  1.00  0.00     0.052 C 
HETATM   37  C   UNL     1      22.513  47.128  48.355  1.00  0.00     0.011 C 
ENDBRANCH   1  36
TORSDOF 9
ENDMDL
MODEL 9
REMARK VINA RESULT:      -7.3      2.303      3.090
REMARK  9 active torsions:
REMARK  status: ('A' for Active; 'I' for Inactive)
REMARK    1  A    between atoms: C_2  and  C_3 
REMARK    2  A    between atoms: C_7  and  C_8 
REMARK    3  A    between atoms: C_8  and  C_9 
REMARK       I    between atoms: C_9  and  N_10 
REMARK    4  A    between atoms: N_10  and  C_11 
REMARK    5  A    between atoms: C_11  and  C_12 
REMARK    6  A    between atoms: C_12  and  N_13 
REMARK    7  A    between atoms: C_21  and  C_22 
REMARK    8  A    between atoms: C_32  and  C_33 
REMARK    9  A    between atoms: C_33  and  O_34 
ROOT
HETATM    1  C   UNL     1      26.737  40.892  47.332  1.00  0.00     0.037 C 
HETATM    2  N   UNL     1      25.379  40.955  47.097  1.00  0.00    -0.232 NA
HETATM    3  C   UNL     1      24.619  41.353  48.056  1.00  0.00     0.169 C 
HETATM    4  N   UNL     1      25.113  42.107  49.343  1.00  0.00    -0.321 N 
HETATM    5  C   UNL     1      24.091  42.689  49.884  1.00  0.00     0.011 C 
HETATM    6  C   UNL     1      26.577  42.298  49.372  1.00  0.00     0.151 C 
HETATM    7  S   UNL     1      22.883  41.285  47.961  1.00  0.00    -0.086 SA
HETATM    8  C   UNL     1      22.764  42.011  49.619  1.00  0.00     0.135 C 
HETATM    9  C   UNL     1      27.270  41.268  48.516  1.00  0.00     0.138 C 
ENDROOT
BRANCH   5  10
HETATM   10  C   UNL     1      24.166  44.081  50.457  1.00  0.00     0.156 C 
BRANCH  10  11
HETATM   11  C   UNL     1      23.879  45.077  49.335  1.00  0.00     0.223 C 
HETATM   12  N   UNL     1      23.777  46.392  49.682  1.00  0.00    -0.359 N 
HETATM   13  H   UNL     1      23.880  46.633  50.667  1.00  0.00     0.162 HD
HETATM   14  O   UNL     1      23.720  44.687  48.178  1.00  0.00    -0.273 OA
BRANCH  12  15
HETATM   15  C   UNL     1      23.177  47.450  48.851  1.00  0.00     0.150 C 
BRANCH  15  16
HETATM   16  C   UNL     1      23.150  48.907  49.386  1.00  0.00     0.254 C 
BRANCH  16  17
HETATM   17  N   UNL     1      21.831  49.625  49.154  1.00  0.00    -0.070 N 
HETATM   18  H   UNL     1      21.100  48.903  49.309  1.00  0.00     0.279 HD
HETATM   19  C   UNL     1      21.559  50.769  50.104  1.00  0.00     0.235 C 
HETATM   20  C   UNL     1      20.139  51.279  49.891  1.00  0.00     0.028 C 
HETATM   21  C   UNL     1      19.898  51.698  48.447  1.00  0.00     0.003 C 
HETATM   22  C   UNL     1      20.263  50.576  47.482  1.00  0.00     0.028 C 
HETATM   23  C   UNL     1      21.681  50.068  47.712  1.00  0.00     0.235 C 
ENDBRANCH  16  17
ENDBRANCH  15  16
ENDBRANCH  12  15
ENDBRANCH  10  11
ENDBRANCH   5  10
BRANCH   6  24
HETATM   24  C   UNL     1      27.183  42.478  50.767  1.00  0.00    -0.027 A 
HETATM   25  C   UNL     1      27.694  43.735  51.180  1.00  0.00    -0.053 A 
HETATM   26  C   UNL     1      27.625  44.978  50.328  1.00  0.00     0.049 C 
HETATM   27  C   UNL     1      28.294  43.861  52.449  1.00  0.00     0.014 A 
HETATM   28  C   UNL     1      28.423  42.768  53.307  1.00  0.00    -0.061 A 
HETATM   29  C   UNL     1      29.153  42.904  54.614  1.00  0.00     0.048 C 
HETATM   30  C   UNL     1      27.952  41.526  52.890  1.00  0.00     0.007 A 
HETATM   31  C   UNL     1      27.341  41.381  51.642  1.00  0.00     0.010 A 
ENDBRANCH   6  24
BRANCH   9  32
HETATM   32  C   UNL     1      27.727  40.052  49.229  1.00  0.00     0.277 C 
HETATM   33  O   UNL     1      28.920  39.909  49.479  1.00  0.00    -0.264 OA
BRANCH  32  34
HETATM   34  O   UNL     1      26.708  39.262  49.603  1.00  0.00    -0.325 OA
HETATM   35  C   UNL     1      26.964  37.865  49.402  1.00  0.00     0.213 C 
ENDBRANCH  32  34
ENDBRANCH   9  32
BRANCH   1  36
HETATM   36  C   UNL     1      27.533  40.197  46.236  1.00  0.00     0.052 C 
HETATM   37  C   UNL     1      27.912  41.138  45.093  1.00  0.00     0.011 C 
ENDBRANCH   1  36
TORSDOF 9
ENDMDL
MODEL 10
REMARK VINA RESULT:      -7.3     20.349     23.047
REMARK  9 active torsions:
REMARK  status: ('A' for Active; 'I' for Inactive)
REMARK    1  A    between atoms: C_2  and  C_3 
REMARK    2  A    between atoms: C_7  and  C_8 
REMARK    3  A    between atoms: C_8  and  C_9 
REMARK       I    between atoms: C_9  and  N_10 
REMARK    4  A    between atoms: N_10  and  C_11 
REMARK    5  A    between atoms: C_11  and  C_12 
REMARK    6  A    between atoms: C_12  and  N_13 
REMARK    7  A    between atoms: C_21  and  C_22 
REMARK    8  A    between atoms: C_32  and  C_33 
REMARK    9  A    between atoms: C_33  and  O_34 
ROOT
HETATM    1  C   UNL     1      40.860  44.766  66.155  1.00  0.00     0.037 C 
HETATM    2  N   UNL     1      40.546  43.939  67.214  1.00  0.00    -0.232 NA
HETATM    3  C   UNL     1      39.744  44.391  68.114  1.00  0.00     0.169 C 
HETATM    4  N   UNL     1      38.815  45.646  67.946  1.00  0.00    -0.321 N 
HETATM    5  C   UNL     1      37.890  45.585  68.848  1.00  0.00     0.011 C 
HETATM    6  C   UNL     1      38.970  46.305  66.633  1.00  0.00     0.151 C 
HETATM    7  S   UNL     1      39.428  43.534  69.596  1.00  0.00    -0.086 SA
HETATM    8  C   UNL     1      38.285  44.846  70.109  1.00  0.00     0.135 C 
HETATM    9  C   UNL     1      40.322  46.001  66.035  1.00  0.00     0.138 C 
ENDROOT
BRANCH   5  10
HETATM   10  C   UNL     1      36.454  45.936  68.556  1.00  0.00     0.156 C 
BRANCH  10  11
HETATM   11  C   UNL     1      35.771  44.705  67.962  1.00  0.00     0.223 C 
HETATM   12  N   UNL     1      35.876  44.525  66.614  1.00  0.00    -0.359 N 
HETATM   13  H   UNL     1      36.385  45.228  66.079  1.00  0.00     0.162 HD
HETATM   14  O   UNL     1      35.134  43.935  68.682  1.00  0.00    -0.273 OA
BRANCH  12  15
HETATM   15  C   UNL     1      35.030  43.631  65.804  1.00  0.00     0.150 C 
BRANCH  15  16
HETATM   16  C   UNL     1      35.623  42.291  65.292  1.00  0.00     0.254 C 
BRANCH  16  17
HETATM   17  N   UNL     1      37.045  42.405  64.768  1.00  0.00    -0.070 N 
HETATM   18  H   UNL     1      37.524  43.050  65.427  1.00  0.00     0.279 HD
HETATM   19  C   UNL     1      37.818  41.106  64.750  1.00  0.00     0.235 C 
HETATM   20  C   UNL     1      39.272  41.385  64.387  1.00  0.00     0.028 C 
HETATM   21  C   UNL     1      39.393  42.113  63.055  1.00  0.00     0.003 C 
HETATM   22  C   UNL     1      38.538  43.374  63.038  1.00  0.00     0.028 C 
HETATM   23  C   UNL     1      37.090  43.083  63.413  1.00  0.00     0.235 C 
ENDBRANCH  16  17
ENDBRANCH  15  16
ENDBRANCH  12  15
ENDBRANCH  10  11
ENDBRANCH   5  10
BRANCH   6  24
HETATM   24  C   UNL     1      38.576  47.784  66.595  1.00  0.00    -0.027 A 
HETATM   25  C   UNL     1      37.819  48.307  65.516  1.00  0.00    -0.053 A 
HETATM   26  C   UNL     1      37.298  47.459  64.382  1.00  0.00     0.049 C 
HETATM   27  C   UNL     1      37.515  49.682  65.480  1.00  0.00     0.014 A 
HETATM   28  C   UNL     1      37.964  50.556  66.471  1.00  0.00    -0.061 A 
HETATM   29  C   UNL     1      37.710  52.033  66.361  1.00  0.00     0.048 C 
HETATM   30  C   UNL     1      38.736  50.051  67.514  1.00  0.00     0.007 A 
HETATM   31  C   UNL     1      39.038  48.688  67.577  1.00  0.00     0.010 A 
ENDBRANCH   6  24
BRANCH   9  32
HETATM   32  C   UNL     1      41.379  47.000  66.313  1.00  0.00     0.277 C 
HETATM   33  O   UNL     1      41.660  47.838  65.462  1.00  0.00    -0.264 OA
BRANCH  32  34
HETATM   34  O   UNL     1      41.860  46.906  67.563  1.00  0.00    -0.325 OA
HETATM   35  C   UNL     1      43.232  47.307  67.679  1.00  0.00     0.213 C 
ENDBRANCH  32  34
ENDBRANCH   9  32
BRANCH   1  36
HETATM   36  C   UNL     1      41.985  44.252  65.268  1.00  0.00     0.052 C 
HETATM   37  C   UNL     1      41.849  44.711  63.816  1.00  0.00     0.011 C 
ENDBRANCH   1  36
TORSDOF 9
ENDMDL
