MODEL 1
REMARK VINA RESULT:      -7.6      0.000      0.000
REMARK  9 active torsions:
REMARK  status: ('A' for Active; 'I' for Inactive)
REMARK    1  A    between atoms: C_6  and  C_7 
REMARK    2  A    between atoms: C_7  and  C_8 
REMARK       I    between atoms: C_8  and  N_9 
REMARK    3  A    between atoms: N_9  and  C_10 
REMARK    4  A    between atoms: C_10  and  C_11 
REMARK    5  A    between atoms: C_11  and  N_12 
REMARK    6  A    between atoms: C_20  and  C_21 
REMARK    7  A    between atoms: C_24  and  C_25 
REMARK    8  A    between atoms: C_32  and  C_33 
REMARK    9  A    between atoms: C_33  and  O_34 
ROOT
HETATM    1  C   UNL     1      32.500  47.875  41.678  1.00  0.00     0.071 C 
HETATM    2  C   UNL     1      31.304  48.778  41.501  1.00  0.00     0.048 C 
HETATM    3  N   UNL     1      31.318  49.921  42.318  1.00  0.00    -0.229 NA
HETATM    4  C   UNL     1      30.734  50.983  41.854  1.00  0.00     0.170 C 
HETATM    5  N   UNL     1      29.900  50.963  40.494  1.00  0.00    -0.319 N 
HETATM    6  C   UNL     1      30.580  51.822  39.786  1.00  0.00     0.011 C 
HETATM    7  C   UNL     1      29.288  49.620  40.464  1.00  0.00     0.166 C 
HETATM    8  S   UNL     1      31.111  52.620  42.296  1.00  0.00    -0.086 SA
HETATM    9  C   UNL     1      30.722  53.138  40.555  1.00  0.00     0.135 C 
HETATM   10  C   UNL     1      30.376  48.612  40.530  1.00  0.00     0.069 C 
ENDROOT
BRANCH   6  11
HETATM   11  C   UNL     1      31.679  51.335  38.876  1.00  0.00     0.156 C 
BRANCH  11  12
HETATM   12  C   UNL     1      33.124  51.603  39.189  1.00  0.00     0.223 C 
HETATM   13  N   UNL     1      33.725  50.596  39.899  1.00  0.00    -0.359 N 
HETATM   14  H   UNL     1      33.231  49.699  39.962  1.00  0.00     0.162 HD
HETATM   15  O   UNL     1      33.657  52.683  38.944  1.00  0.00    -0.273 OA
BRANCH  13  16
HETATM   16  C   UNL     1      34.872  50.682  40.805  1.00  0.00     0.150 C 
BRANCH  16  17
HETATM   17  C   UNL     1      34.701  51.248  42.226  1.00  0.00     0.254 C 
BRANCH  17  18
HETATM   18  N   UNL     1      35.591  52.435  42.549  1.00  0.00    -0.070 N 
HETATM   19  H   UNL     1      34.954  53.257  42.530  1.00  0.00     0.279 HD
HETATM   20  C   UNL     1      36.257  52.384  43.903  1.00  0.00     0.235 C 
HETATM   21  C   UNL     1      37.042  53.667  44.145  1.00  0.00     0.028 C 
HETATM   22  C   UNL     1      38.055  53.930  43.040  1.00  0.00     0.003 C 
HETATM   23  C   UNL     1      37.379  53.926  41.675  1.00  0.00     0.028 C 
HETATM   24  C   UNL     1      36.601  52.642  41.439  1.00  0.00     0.235 C 
ENDBRANCH  17  18
ENDBRANCH  16  17
ENDBRANCH  13  16
ENDBRANCH  11  12
ENDBRANCH   6  11
BRANCH   7  25
HETATM   25  C   UNL     1      28.003  49.394  39.689  1.00  0.00    -0.030 A 
HETATM   26  C   UNL     1      27.626  50.133  38.559  1.00  0.00     0.010 A 
HETATM   27  C   UNL     1      26.290  50.134  38.122  1.00  0.00     0.008 A 
HETATM   28  C   UNL     1      25.297  49.403  38.792  1.00  0.00    -0.055 A 
HETATM   29  C   UNL     1      25.688  48.589  39.855  1.00  0.00     0.008 A 
HETATM   30  C   UNL     1      27.009  48.600  40.304  1.00  0.00     0.010 A 
BRANCH  28  31
HETATM   31  C   UNL     1      23.834  49.538  38.394  1.00  0.00     0.010 C 
HETATM   32  C   UNL     1      23.522  48.711  37.147  1.00  0.00     0.015 C 
HETATM   33  C   UNL     1      22.871  49.170  39.533  1.00  0.00     0.015 C 
ENDBRANCH  28  31
ENDBRANCH   7  25
BRANCH  10  34
HETATM   34  C   UNL     1      30.577  47.763  39.349  1.00  0.00     0.293 C 
HETATM   35  O   UNL     1      31.002  48.248  38.307  1.00  0.00    -0.259 OA
BRANCH  34  36
HETATM   36  O   UNL     1      30.112  46.520  39.553  1.00  0.00    -0.323 OA
HETATM   37  C   UNL     1      29.279  46.026  38.496  1.00  0.00     0.213 C 
ENDBRANCH  34  36
ENDBRANCH  10  34
TORSDOF 9
ENDMDL
MODEL 2
REMARK VINA RESULT:      -7.5     11.914     13.912
REMARK  9 active torsions:
REMARK  status: ('A' for Active; 'I' for Inactive)
REMARK    1  A    between atoms: C_6  and  C_7 
REMARK    2  A    between atoms: C_7  and  C_8 
REMARK       I    between atoms: C_8  and  N_9 
REMARK    3  A    between atoms: N_9  and  C_10 
REMARK    4  A    between atoms: C_10  and  C_11 
REMARK    5  A    between atoms: C_11  and  N_12 
REMARK    6  A    between atoms: C_20  and  C_21 
REMARK    7  A    between atoms: C_24  and  C_25 
REMARK    8  A    between atoms: C_32  and  C_33 
REMARK    9  A    between atoms: C_33  and  O_34 
ROOT
HETATM    1  C   UNL     1      18.602  49.037  51.416  1.00  0.00     0.071 C 
HETATM    2  C   UNL     1      19.062  49.804  50.202  1.00  0.00     0.048 C 
HETATM    3  N   UNL     1      20.277  50.487  50.375  1.00  0.00    -0.229 NA
HETATM    4  C   UNL     1      21.022  50.642  49.324  1.00  0.00     0.170 C 
HETATM    5  N   UNL     1      20.524  50.223  47.867  1.00  0.00    -0.319 N 
HETATM    6  C   UNL     1      21.414  49.320  47.562  1.00  0.00     0.011 C 
HETATM    7  C   UNL     1      19.074  50.502  47.886  1.00  0.00     0.166 C 
HETATM    8  S   UNL     1      22.746  50.847  49.326  1.00  0.00    -0.086 SA
HETATM    9  C   UNL     1      22.823  49.895  47.733  1.00  0.00     0.135 C 
HETATM   10  C   UNL     1      18.465  49.719  48.990  1.00  0.00     0.069 C 
ENDROOT
BRANCH   6  11
HETATM   11  C   UNL     1      21.133  47.867  47.849  1.00  0.00     0.156 C 
BRANCH  11  12
HETATM   12  C   UNL     1      22.250  46.876  48.015  1.00  0.00     0.223 C 
HETATM   13  N   UNL     1      22.834  46.914  49.254  1.00  0.00    -0.359 N 
HETATM   14  H   UNL     1      22.345  47.430  49.994  1.00  0.00     0.162 HD
HETATM   15  O   UNL     1      22.672  46.204  47.077  1.00  0.00    -0.273 OA
BRANCH  13  16
HETATM   16  C   UNL     1      24.197  46.531  49.629  1.00  0.00     0.150 C 
BRANCH  16  17
HETATM   17  C   UNL     1      24.445  45.281  50.491  1.00  0.00     0.254 C 
BRANCH  17  18
HETATM   18  N   UNL     1      24.762  45.566  51.949  1.00  0.00    -0.070 N 
HETATM   19  H   UNL     1      23.851  45.840  52.370  1.00  0.00     0.279 HD
HETATM   20  C   UNL     1      25.309  44.392  52.726  1.00  0.00     0.235 C 
HETATM   21  C   UNL     1      25.496  44.777  54.187  1.00  0.00     0.028 C 
HETATM   22  C   UNL     1      26.383  46.005  54.342  1.00  0.00     0.003 C 
HETATM   23  C   UNL     1      25.850  47.165  53.512  1.00  0.00     0.028 C 
HETATM   24  C   UNL     1      25.670  46.774  52.055  1.00  0.00     0.235 C 
ENDBRANCH  17  18
ENDBRANCH  16  17
ENDBRANCH  13  16
ENDBRANCH  11  12
ENDBRANCH   6  11
BRANCH   7  25
HETATM   25  C   UNL     1      18.346  50.798  46.587  1.00  0.00    -0.030 A 
HETATM   26  C   UNL     1      18.598  50.136  45.377  1.00  0.00     0.010 A 
HETATM   27  C   UNL     1      18.175  50.696  44.159  1.00  0.00     0.008 A 
HETATM   28  C   UNL     1      17.491  51.920  44.111  1.00  0.00    -0.055 A 
HETATM   29  C   UNL     1      17.153  52.529  45.318  1.00  0.00     0.008 A 
HETATM   30  C   UNL     1      17.588  51.988  46.529  1.00  0.00     0.010 A 
BRANCH  28  31
HETATM   31  C   UNL     1      17.177  52.580  42.775  1.00  0.00     0.010 C 
HETATM   32  C   UNL     1      17.033  54.094  42.926  1.00  0.00     0.015 C 
HETATM   33  C   UNL     1      18.213  52.249  41.690  1.00  0.00     0.015 C 
ENDBRANCH  28  31
ENDBRANCH   7  25
BRANCH  10  34
HETATM   34  C   UNL     1      17.528  48.651  48.618  1.00  0.00     0.293 C 
HETATM   35  O   UNL     1      16.339  48.900  48.465  1.00  0.00    -0.259 OA
BRANCH  34  36
HETATM   36  O   UNL     1      18.127  47.449  48.626  1.00  0.00    -0.323 OA
HETATM   37  C   UNL     1      17.320  46.389  48.095  1.00  0.00     0.213 C 
ENDBRANCH  34  36
ENDBRANCH  10  34
TORSDOF 9
ENDMDL
MODEL 3
REMARK VINA RESULT:      -7.5      2.956      6.565
REMARK  9 active torsions:
REMARK  status: ('A' for Active; 'I' for Inactive)
REMARK    1  A    between atoms: C_6  and  C_7 
REMARK    2  A    between atoms: C_7  and  C_8 
REMARK       I    between atoms: C_8  and  N_9 
REMARK    3  A    between atoms: N_9  and  C_10 
REMARK    4  A    between atoms: C_10  and  C_11 
REMARK    5  A    between atoms: C_11  and  N_12 
REMARK    6  A    between atoms: C_20  and  C_21 
REMARK    7  A    between atoms: C_24  and  C_25 
REMARK    8  A    between atoms: C_32  and  C_33 
REMARK    9  A    between atoms: C_33  and  O_34 
ROOT
HETATM    1  C   UNL     1      27.310  51.460  41.356  1.00  0.00     0.071 C 
HETATM    2  C   UNL     1      28.496  50.564  41.609  1.00  0.00     0.048 C 
HETATM    3  N   UNL     1      28.227  49.193  41.458  1.00  0.00    -0.229 NA
HETATM    4  C   UNL     1      29.208  48.440  41.065  1.00  0.00     0.170 C 
HETATM    5  N   UNL     1      30.693  49.001  40.909  1.00  0.00    -0.319 N 
HETATM    6  C   UNL     1      30.889  48.802  39.635  1.00  0.00     0.011 C 
HETATM    7  C   UNL     1      30.817  50.002  41.987  1.00  0.00     0.166 C 
HETATM    8  S   UNL     1      29.049  46.933  40.216  1.00  0.00    -0.086 SA
HETATM    9  C   UNL     1      30.603  47.340  39.282  1.00  0.00     0.135 C 
HETATM   10  C   UNL     1      29.755  51.021  41.800  1.00  0.00     0.069 C 
ENDROOT
BRANCH   6  11
HETATM   11  C   UNL     1      30.592  49.906  38.652  1.00  0.00     0.156 C 
BRANCH  11  12
HETATM   12  C   UNL     1      31.697  50.709  38.026  1.00  0.00     0.223 C 
HETATM   13  N   UNL     1      32.860  50.696  38.751  1.00  0.00    -0.359 N 
HETATM   14  H   UNL     1      32.944  50.001  39.501  1.00  0.00     0.162 HD
HETATM   15  O   UNL     1      31.513  51.411  37.034  1.00  0.00    -0.273 OA
BRANCH  13  16
HETATM   16  C   UNL     1      33.924  51.702  38.781  1.00  0.00     0.150 C 
BRANCH  16  17
HETATM   17  C   UNL     1      33.694  53.057  39.474  1.00  0.00     0.254 C 
BRANCH  17  18
HETATM   18  N   UNL     1      34.963  53.809  39.836  1.00  0.00    -0.070 N 
HETATM   19  H   UNL     1      34.883  53.989  40.857  1.00  0.00     0.279 HD
HETATM   20  C   UNL     1      36.247  53.054  39.587  1.00  0.00     0.235 C 
HETATM   21  C   UNL     1      37.435  53.873  40.076  1.00  0.00     0.028 C 
HETATM   22  C   UNL     1      37.473  55.255  39.437  1.00  0.00     0.003 C 
HETATM   23  C   UNL     1      36.154  55.985  39.650  1.00  0.00     0.028 C 
HETATM   24  C   UNL     1      34.974  55.164  39.157  1.00  0.00     0.235 C 
ENDBRANCH  17  18
ENDBRANCH  16  17
ENDBRANCH  13  16
ENDBRANCH  11  12
ENDBRANCH   6  11
BRANCH   7  25
HETATM   25  C   UNL     1      32.186  50.333  42.554  1.00  0.00    -0.030 A 
HETATM   26  C   UNL     1      32.407  51.250  43.591  1.00  0.00     0.010 A 
HETATM   27  C   UNL     1      33.689  51.783  43.810  1.00  0.00     0.008 A 
HETATM   28  C   UNL     1      34.782  51.418  43.008  1.00  0.00    -0.055 A 
HETATM   29  C   UNL     1      34.587  50.433  42.042  1.00  0.00     0.008 A 
HETATM   30  C   UNL     1      33.312  49.916  41.808  1.00  0.00     0.010 A 
BRANCH  28  31
HETATM   31  C   UNL     1      36.125  52.119  43.165  1.00  0.00     0.010 C 
HETATM   32  C   UNL     1      36.257  52.756  44.548  1.00  0.00     0.015 C 
HETATM   33  C   UNL     1      37.317  51.190  42.890  1.00  0.00     0.015 C 
ENDBRANCH  28  31
ENDBRANCH   7  25
BRANCH  10  34
HETATM   34  C   UNL     1      30.186  52.384  41.462  1.00  0.00     0.293 C 
HETATM   35  O   UNL     1      30.367  53.210  42.347  1.00  0.00    -0.259 OA
BRANCH  34  36
HETATM   36  O   UNL     1      30.193  52.580  40.133  1.00  0.00    -0.323 OA
HETATM   37  C   UNL     1      29.519  53.775  39.715  1.00  0.00     0.213 C 
ENDBRANCH  34  36
ENDBRANCH  10  34
TORSDOF 9
ENDMDL
MODEL 4
REMARK VINA RESULT:      -7.4      2.332      3.272
REMARK  9 active torsions:
REMARK  status: ('A' for Active; 'I' for Inactive)
REMARK    1  A    between atoms: C_6  and  C_7 
REMARK    2  A    between atoms: C_7  and  C_8 
REMARK       I    between atoms: C_8  and  N_9 
REMARK    3  A    between atoms: N_9  and  C_10 
REMARK    4  A    between atoms: C_10  and  C_11 
REMARK    5  A    between atoms: C_11  and  N_12 
REMARK    6  A    between atoms: C_20  and  C_21 
REMARK    7  A    between atoms: C_24  and  C_25 
REMARK    8  A    between atoms: C_32  and  C_33 
REMARK    9  A    between atoms: C_33  and  O_34 
ROOT
HETATM    1  C   UNL     1      31.900  47.827  40.455  1.00  0.00     0.071 C 
HETATM    2  C   UNL     1      30.509  48.222  40.885  1.00  0.00     0.048 C 
HETATM    3  N   UNL     1      30.448  49.419  41.618  1.00  0.00    -0.229 NA
HETATM    4  C   UNL     1      29.363  50.123  41.507  1.00  0.00     0.170 C 
HETATM    5  N   UNL     1      28.089  49.591  40.708  1.00  0.00    -0.319 N 
HETATM    6  C   UNL     1      27.997  50.500  39.777  1.00  0.00     0.011 C 
HETATM    7  C   UNL     1      28.093  48.134  40.948  1.00  0.00     0.166 C 
HETATM    8  S   UNL     1      29.242  51.838  41.745  1.00  0.00    -0.086 SA
HETATM    9  C   UNL     1      27.953  51.894  40.409  1.00  0.00     0.135 C 
HETATM   10  C   UNL     1      29.387  47.588  40.470  1.00  0.00     0.069 C 
ENDROOT
BRANCH   6  11
HETATM   11  C   UNL     1      28.666  50.276  38.445  1.00  0.00     0.156 C 
BRANCH  11  12
HETATM   12  C   UNL     1      29.789  51.160  37.980  1.00  0.00     0.223 C 
HETATM   13  N   UNL     1      31.019  50.768  38.439  1.00  0.00    -0.359 N 
HETATM   14  H   UNL     1      31.095  49.833  38.855  1.00  0.00     0.162 HD
HETATM   15  O   UNL     1      29.587  52.204  37.363  1.00  0.00    -0.273 OA
BRANCH  13  16
HETATM   16  C   UNL     1      32.213  51.588  38.656  1.00  0.00     0.150 C 
BRANCH  16  17
HETATM   17  C   UNL     1      32.348  52.444  39.928  1.00  0.00     0.254 C 
BRANCH  17  18
HETATM   18  N   UNL     1      33.560  52.121  40.786  1.00  0.00    -0.070 N 
HETATM   19  H   UNL     1      34.033  53.036  40.931  1.00  0.00     0.279 HD
HETATM   20  C   UNL     1      33.246  51.530  42.139  1.00  0.00     0.235 C 
HETATM   21  C   UNL     1      34.531  51.341  42.935  1.00  0.00     0.028 C 
HETATM   22  C   UNL     1      35.545  50.490  42.182  1.00  0.00     0.003 C 
HETATM   23  C   UNL     1      35.813  51.068  40.798  1.00  0.00     0.028 C 
HETATM   24  C   UNL     1      34.527  51.251  40.009  1.00  0.00     0.235 C 
ENDBRANCH  17  18
ENDBRANCH  16  17
ENDBRANCH  13  16
ENDBRANCH  11  12
ENDBRANCH   6  11
BRANCH   7  25
HETATM   25  C   UNL     1      26.792  47.355  40.874  1.00  0.00    -0.030 A 
HETATM   26  C   UNL     1      25.589  47.878  40.380  1.00  0.00     0.010 A 
HETATM   27  C   UNL     1      24.366  47.254  40.678  1.00  0.00     0.008 A 
HETATM   28  C   UNL     1      24.306  46.096  41.470  1.00  0.00    -0.055 A 
HETATM   29  C   UNL     1      25.507  45.519  41.878  1.00  0.00     0.008 A 
HETATM   30  C   UNL     1      26.722  46.145  41.601  1.00  0.00     0.010 A 
BRANCH  28  31
HETATM   31  C   UNL     1      22.963  45.525  41.905  1.00  0.00     0.010 C 
HETATM   32  C   UNL     1      22.491  44.432  40.947  1.00  0.00     0.015 C 
HETATM   33  C   UNL     1      22.980  44.999  43.348  1.00  0.00     0.015 C 
ENDBRANCH  28  31
ENDBRANCH   7  25
BRANCH  10  34
HETATM   34  C   UNL     1      29.347  46.675  39.320  1.00  0.00     0.293 C 
HETATM   35  O   UNL     1      29.075  47.102  38.205  1.00  0.00    -0.259 OA
BRANCH  34  36
HETATM   36  O   UNL     1      29.494  45.397  39.703  1.00  0.00    -0.323 OA
HETATM   37  C   UNL     1      29.387  44.449  38.633  1.00  0.00     0.213 C 
ENDBRANCH  34  36
ENDBRANCH  10  34
TORSDOF 9
ENDMDL
MODEL 5
REMARK VINA RESULT:      -7.4      2.155      9.238
REMARK  9 active torsions:
REMARK  status: ('A' for Active; 'I' for Inactive)
REMARK    1  A    between atoms: C_6  and  C_7 
REMARK    2  A    between atoms: C_7  and  C_8 
REMARK       I    between atoms: C_8  and  N_9 
REMARK    3  A    between atoms: N_9  and  C_10 
REMARK    4  A    between atoms: C_10  and  C_11 
REMARK    5  A    between atoms: C_11  and  N_12 
REMARK    6  A    between atoms: C_20  and  C_21 
REMARK    7  A    between atoms: C_24  and  C_25 
REMARK    8  A    between atoms: C_32  and  C_33 
REMARK    9  A    between atoms: C_33  and  O_34 
ROOT
HETATM    1  C   UNL     1      28.032  52.740  40.974  1.00  0.00     0.071 C 
HETATM    2  C   UNL     1      28.932  51.716  41.618  1.00  0.00     0.048 C 
HETATM    3  N   UNL     1      28.282  50.528  41.991  1.00  0.00    -0.229 NA
HETATM    4  C   UNL     1      28.988  49.439  41.972  1.00  0.00     0.170 C 
HETATM    5  N   UNL     1      30.558  49.455  41.694  1.00  0.00    -0.319 N 
HETATM    6  C   UNL     1      30.614  48.736  40.607  1.00  0.00     0.011 C 
HETATM    7  C   UNL     1      31.022  50.714  42.309  1.00  0.00     0.166 C 
HETATM    8  S   UNL     1      28.363  47.833  41.762  1.00  0.00    -0.086 SA
HETATM    9  C   UNL     1      29.909  47.395  40.830  1.00  0.00     0.135 C 
HETATM   10  C   UNL     1      30.279  51.837  41.686  1.00  0.00     0.069 C 
ENDROOT
BRANCH   6  11
HETATM   11  C   UNL     1      30.579  49.413  39.261  1.00  0.00     0.156 C 
BRANCH  11  12
HETATM   12  C   UNL     1      29.350  49.366  38.397  1.00  0.00     0.223 C 
HETATM   13  N   UNL     1      28.588  50.502  38.469  1.00  0.00    -0.359 N 
HETATM   14  H   UNL     1      29.009  51.329  38.908  1.00  0.00     0.162 HD
HETATM   15  O   UNL     1      29.009  48.347  37.801  1.00  0.00    -0.273 OA
BRANCH  13  16
HETATM   16  C   UNL     1      27.150  50.650  38.232  1.00  0.00     0.150 C 
BRANCH  16  17
HETATM   17  C   UNL     1      26.134  49.950  39.153  1.00  0.00     0.254 C 
BRANCH  17  18
HETATM   18  N   UNL     1      25.046  49.178  38.427  1.00  0.00    -0.070 N 
HETATM   19  H   UNL     1      24.883  48.334  39.013  1.00  0.00     0.279 HD
HETATM   20  C   UNL     1      23.734  49.911  38.278  1.00  0.00     0.235 C 
HETATM   21  C   UNL     1      22.702  49.002  37.622  1.00  0.00     0.028 C 
HETATM   22  C   UNL     1      23.189  48.462  36.285  1.00  0.00     0.003 C 
HETATM   23  C   UNL     1      24.538  47.772  36.439  1.00  0.00     0.028 C 
HETATM   24  C   UNL     1      25.563  48.686  37.090  1.00  0.00     0.235 C 
ENDBRANCH  17  18
ENDBRANCH  16  17
ENDBRANCH  13  16
ENDBRANCH  11  12
ENDBRANCH   6  11
BRANCH   7  25
HETATM   25  C   UNL     1      32.461  50.839  42.778  1.00  0.00    -0.030 A 
HETATM   26  C   UNL     1      32.873  51.656  43.840  1.00  0.00     0.010 A 
HETATM   27  C   UNL     1      34.226  52.012  43.980  1.00  0.00     0.008 A 
HETATM   28  C   UNL     1      35.201  51.565  43.075  1.00  0.00    -0.055 A 
HETATM   29  C   UNL     1      34.809  50.673  42.078  1.00  0.00     0.008 A 
HETATM   30  C   UNL     1      33.465  50.333  41.923  1.00  0.00     0.010 A 
BRANCH  28  31
HETATM   31  C   UNL     1      36.630  52.084  43.157  1.00  0.00     0.010 C 
HETATM   32  C   UNL     1      36.803  53.042  44.335  1.00  0.00     0.015 C 
HETATM   33  C   UNL     1      37.669  50.955  43.232  1.00  0.00     0.015 C 
ENDBRANCH  28  31
ENDBRANCH   7  25
BRANCH  10  34
HETATM   34  C   UNL     1      31.052  52.785  40.873  1.00  0.00     0.293 C 
HETATM   35  O   UNL     1      31.302  53.904  41.304  1.00  0.00    -0.259 OA
BRANCH  34  36
HETATM   36  O   UNL     1      31.277  52.304  39.640  1.00  0.00    -0.323 OA
HETATM   37  C   UNL     1      32.641  52.409  39.210  1.00  0.00     0.213 C 
ENDBRANCH  34  36
ENDBRANCH  10  34
TORSDOF 9
ENDMDL
MODEL 6
REMARK VINA RESULT:      -7.3     12.070     15.154
REMARK  9 active torsions:
REMARK  status: ('A' for Active; 'I' for Inactive)
REMARK    1  A    between atoms: C_6  and  C_7 
REMARK    2  A    between atoms: C_7  and  C_8 
REMARK       I    between atoms: C_8  and  N_9 
REMARK    3  A    between atoms: N_9  and  C_10 
REMARK    4  A    between atoms: C_10  and  C_11 
REMARK    5  A    between atoms: C_11  and  N_12 
REMARK    6  A    between atoms: C_20  and  C_21 
REMARK    7  A    between atoms: C_24  and  C_25 
REMARK    8  A    between atoms: C_32  and  C_33 
REMARK    9  A    between atoms: C_33  and  O_34 
ROOT
HETATM    1  C   UNL     1      25.486  45.124  54.319  1.00  0.00     0.071 C 
HETATM    2  C   UNL     1      25.495  44.234  53.102  1.00  0.00     0.048 C 
HETATM    3  N   UNL     1      24.306  44.266  52.355  1.00  0.00    -0.229 NA
HETATM    4  C   UNL     1      24.407  44.060  51.077  1.00  0.00     0.170 C 
HETATM    5  N   UNL     1      25.786  43.633  50.397  1.00  0.00    -0.319 N 
HETATM    6  C   UNL     1      25.973  44.640  49.590  1.00  0.00     0.011 C 
HETATM    7  C   UNL     1      26.443  42.787  51.412  1.00  0.00     0.166 C 
HETATM    8  S   UNL     1      23.302  44.637  49.869  1.00  0.00    -0.086 SA
HETATM    9  C   UNL     1      24.738  44.843  48.708  1.00  0.00     0.135 C 
HETATM   10  C   UNL     1      26.595  43.584  52.655  1.00  0.00     0.069 C 
ENDROOT
BRANCH   6  11
HETATM   11  C   UNL     1      26.801  45.817  50.042  1.00  0.00     0.156 C 
BRANCH  11  12
HETATM   12  C   UNL     1      26.451  47.219  49.630  1.00  0.00     0.223 C 
HETATM   13  N   UNL     1      25.205  47.614  50.040  1.00  0.00    -0.359 N 
HETATM   14  H   UNL     1      24.731  47.036  50.743  1.00  0.00     0.162 HD
HETATM   15  O   UNL     1      27.170  47.878  48.882  1.00  0.00    -0.273 OA
BRANCH  13  16
HETATM   16  C   UNL     1      24.326  48.619  49.438  1.00  0.00     0.150 C 
BRANCH  16  17
HETATM   17  C   UNL     1      22.933  48.223  48.919  1.00  0.00     0.254 C 
BRANCH  17  18
HETATM   18  N   UNL     1      21.774  48.913  49.617  1.00  0.00    -0.070 N 
HETATM   19  H   UNL     1      21.881  48.661  50.621  1.00  0.00     0.279 HD
HETATM   20  C   UNL     1      21.764  50.418  49.505  1.00  0.00     0.235 C 
HETATM   21  C   UNL     1      20.614  50.994  50.321  1.00  0.00     0.028 C 
HETATM   22  C   UNL     1      19.273  50.400  49.910  1.00  0.00     0.003 C 
HETATM   23  C   UNL     1      19.313  48.879  49.977  1.00  0.00     0.028 C 
HETATM   24  C   UNL     1      20.460  48.312  49.158  1.00  0.00     0.235 C 
ENDBRANCH  17  18
ENDBRANCH  16  17
ENDBRANCH  13  16
ENDBRANCH  11  12
ENDBRANCH   6  11
BRANCH   7  25
HETATM   25  C   UNL     1      27.451  41.737  50.980  1.00  0.00    -0.030 A 
HETATM   26  C   UNL     1      27.620  41.308  49.656  1.00  0.00     0.010 A 
HETATM   27  C   UNL     1      28.282  40.099  49.379  1.00  0.00     0.008 A 
HETATM   28  C   UNL     1      28.793  39.289  50.405  1.00  0.00    -0.055 A 
HETATM   29  C   UNL     1      28.714  39.762  51.714  1.00  0.00     0.008 A 
HETATM   30  C   UNL     1      28.041  40.952  51.996  1.00  0.00     0.010 A 
BRANCH  28  31
HETATM   31  C   UNL     1      29.370  37.915  50.092  1.00  0.00     0.010 C 
HETATM   32  C   UNL     1      30.476  38.007  49.041  1.00  0.00     0.015 C 
HETATM   33  C   UNL     1      29.882  37.186  51.343  1.00  0.00     0.015 C 
ENDBRANCH  28  31
ENDBRANCH   7  25
BRANCH  10  34
HETATM   34  C   UNL     1      27.962  43.912  53.079  1.00  0.00     0.293 C 
HETATM   35  O   UNL     1      28.767  44.358  52.272  1.00  0.00    -0.259 OA
BRANCH  34  36
HETATM   36  O   UNL     1      28.188  43.528  54.346  1.00  0.00    -0.323 OA
HETATM   37  C   UNL     1      29.572  43.321  54.657  1.00  0.00     0.213 C 
ENDBRANCH  34  36
ENDBRANCH  10  34
TORSDOF 9
ENDMDL
MODEL 7
REMARK VINA RESULT:      -7.2     12.117     13.913
REMARK  9 active torsions:
REMARK  status: ('A' for Active; 'I' for Inactive)
REMARK    1  A    between atoms: C_6  and  C_7 
REMARK    2  A    between atoms: C_7  and  C_8 
REMARK       I    between atoms: C_8  and  N_9 
REMARK    3  A    between atoms: N_9  and  C_10 
REMARK    4  A    between atoms: C_10  and  C_11 
REMARK    5  A    between atoms: C_11  and  N_12 
REMARK    6  A    between atoms: C_20  and  C_21 
REMARK    7  A    between atoms: C_24  and  C_25 
REMARK    8  A    between atoms: C_32  and  C_33 
REMARK    9  A    between atoms: C_33  and  O_34 
ROOT
HETATM    1  C   UNL     1      27.235  47.930  49.778  1.00  0.00     0.071 C 
HETATM    2  C   UNL     1      26.584  46.597  49.508  1.00  0.00     0.048 C 
HETATM    3  N   UNL     1      27.434  45.493  49.683  1.00  0.00    -0.229 NA
HETATM    4  C   UNL     1      26.884  44.380  50.063  1.00  0.00     0.170 C 
HETATM    5  N   UNL     1      25.301  44.216  50.176  1.00  0.00    -0.319 N 
HETATM    6  C   UNL     1      25.180  43.951  51.447  1.00  0.00     0.011 C 
HETATM    7  C   UNL     1      24.771  45.054  49.082  1.00  0.00     0.166 C 
HETATM    8  S   UNL     1      27.678  43.105  50.934  1.00  0.00    -0.086 SA
HETATM    9  C   UNL     1      26.082  42.773  51.825  1.00  0.00     0.135 C 
HETATM   10  C   UNL     1      25.258  46.441  49.282  1.00  0.00     0.069 C 
ENDROOT
BRANCH   6  11
HETATM   11  C   UNL     1      24.925  45.072  52.422  1.00  0.00     0.156 C 
BRANCH  11  12
HETATM   12  C   UNL     1      25.350  44.966  53.860  1.00  0.00     0.223 C 
HETATM   13  N   UNL     1      26.538  45.594  54.126  1.00  0.00    -0.359 N 
HETATM   14  H   UNL     1      26.906  46.235  53.415  1.00  0.00     0.162 HD
HETATM   15  O   UNL     1      24.747  44.264  54.669  1.00  0.00    -0.273 OA
BRANCH  13  16
HETATM   16  C   UNL     1      27.506  45.298  55.185  1.00  0.00     0.150 C 
BRANCH  16  17
HETATM   17  C   UNL     1      28.731  46.207  55.395  1.00  0.00     0.254 C 
BRANCH  17  18
HETATM   18  N   UNL     1      29.928  45.523  56.031  1.00  0.00    -0.070 N 
HETATM   19  H   UNL     1      30.752  46.060  55.693  1.00  0.00     0.279 HD
HETATM   20  C   UNL     1      29.943  45.533  57.541  1.00  0.00     0.235 C 
HETATM   21  C   UNL     1      31.233  44.904  58.053  1.00  0.00     0.028 C 
HETATM   22  C   UNL     1      31.434  43.497  57.508  1.00  0.00     0.003 C 
HETATM   23  C   UNL     1      31.364  43.491  55.986  1.00  0.00     0.028 C 
HETATM   24  C   UNL     1      30.073  44.117  55.483  1.00  0.00     0.235 C 
ENDBRANCH  17  18
ENDBRANCH  16  17
ENDBRANCH  13  16
ENDBRANCH  11  12
ENDBRANCH   6  11
BRANCH   7  25
HETATM   25  C   UNL     1      23.414  44.736  48.479  1.00  0.00    -0.030 A 
HETATM   26  C   UNL     1      23.150  44.721  47.102  1.00  0.00     0.010 A 
HETATM   27  C   UNL     1      21.827  44.792  46.631  1.00  0.00     0.008 A 
HETATM   28  C   UNL     1      20.738  44.876  47.511  1.00  0.00    -0.055 A 
HETATM   29  C   UNL     1      20.991  44.790  48.879  1.00  0.00     0.008 A 
HETATM   30  C   UNL     1      22.303  44.740  49.352  1.00  0.00     0.010 A 
BRANCH  28  31
HETATM   31  C   UNL     1      19.329  45.104  46.978  1.00  0.00     0.010 C 
HETATM   32  C   UNL     1      18.408  45.652  48.068  1.00  0.00     0.015 C 
HETATM   33  C   UNL     1      19.300  46.019  45.746  1.00  0.00     0.015 C 
ENDBRANCH  28  31
ENDBRANCH   7  25
BRANCH  10  34
HETATM   34  C   UNL     1      24.254  47.467  49.592  1.00  0.00     0.293 C 
HETATM   35  O   UNL     1      24.054  47.802  50.753  1.00  0.00    -0.259 OA
BRANCH  34  36
HETATM   36  O   UNL     1      23.560  47.821  48.498  1.00  0.00    -0.323 OA
HETATM   37  C   UNL     1      22.266  48.370  48.778  1.00  0.00     0.213 C 
ENDBRANCH  34  36
ENDBRANCH  10  34
TORSDOF 9
ENDMDL
MODEL 8
REMARK VINA RESULT:      -7.0     13.335     17.763
REMARK  9 active torsions:
REMARK  status: ('A' for Active; 'I' for Inactive)
REMARK    1  A    between atoms: C_6  and  C_7 
REMARK    2  A    between atoms: C_7  and  C_8 
REMARK       I    between atoms: C_8  and  N_9 
REMARK    3  A    between atoms: N_9  and  C_10 
REMARK    4  A    between atoms: C_10  and  C_11 
REMARK    5  A    between atoms: C_11  and  N_12 
REMARK    6  A    between atoms: C_20  and  C_21 
REMARK    7  A    between atoms: C_24  and  C_25 
REMARK    8  A    between atoms: C_32  and  C_33 
REMARK    9  A    between atoms: C_33  and  O_34 
ROOT
HETATM    1  C   UNL     1      13.827  48.438  45.666  1.00  0.00     0.071 C 
HETATM    2  C   UNL     1      15.080  49.262  45.506  1.00  0.00     0.048 C 
HETATM    3  N   UNL     1      15.221  49.858  44.242  1.00  0.00    -0.229 NA
HETATM    4  C   UNL     1      15.860  50.987  44.191  1.00  0.00     0.170 C 
HETATM    5  N   UNL     1      16.593  51.600  45.468  1.00  0.00    -0.319 N 
HETATM    6  C   UNL     1      15.942  52.723  45.599  1.00  0.00     0.011 C 
HETATM    7  C   UNL     1      17.084  50.420  46.206  1.00  0.00     0.166 C 
HETATM    8  S   UNL     1      15.655  52.212  42.978  1.00  0.00    -0.086 SA
HETATM    9  C   UNL     1      15.965  53.500  44.280  1.00  0.00     0.135 C 
HETATM   10  C   UNL     1      15.921  49.554  46.525  1.00  0.00     0.069 C 
ENDROOT
BRANCH   6  11
HETATM   11  C   UNL     1      14.744  52.789  46.513  1.00  0.00     0.156 C 
BRANCH  11  12
HETATM   12  C   UNL     1      14.124  54.105  46.889  1.00  0.00     0.223 C 
HETATM   13  N   UNL     1      14.503  54.554  48.127  1.00  0.00    -0.359 N 
HETATM   14  H   UNL     1      15.302  54.093  48.575  1.00  0.00     0.162 HD
HETATM   15  O   UNL     1      13.260  54.641  46.198  1.00  0.00    -0.273 OA
BRANCH  13  16
HETATM   16  C   UNL     1      13.775  55.445  49.033  1.00  0.00     0.150 C 
BRANCH  16  17
HETATM   17  C   UNL     1      14.428  56.745  49.537  1.00  0.00     0.254 C 
BRANCH  17  18
HETATM   18  N   UNL     1      14.473  56.890  51.048  1.00  0.00    -0.070 N 
HETATM   19  H   UNL     1      13.479  57.002  51.334  1.00  0.00     0.279 HD
HETATM   20  C   UNL     1      15.047  55.705  51.787  1.00  0.00     0.235 C 
HETATM   21  C   UNL     1      14.951  55.932  53.290  1.00  0.00     0.028 C 
HETATM   22  C   UNL     1      15.629  57.228  53.712  1.00  0.00     0.003 C 
HETATM   23  C   UNL     1      15.079  58.408  52.922  1.00  0.00     0.028 C 
HETATM   24  C   UNL     1      15.181  58.176  51.424  1.00  0.00     0.235 C 
ENDBRANCH  17  18
ENDBRANCH  16  17
ENDBRANCH  13  16
ENDBRANCH  11  12
ENDBRANCH   6  11
BRANCH   7  25
HETATM   25  C   UNL     1      18.288  50.550  47.121  1.00  0.00    -0.030 A 
HETATM   26  C   UNL     1      18.623  51.718  47.819  1.00  0.00     0.010 A 
HETATM   27  C   UNL     1      19.919  51.893  48.336  1.00  0.00     0.008 A 
HETATM   28  C   UNL     1      20.911  50.914  48.175  1.00  0.00    -0.055 A 
HETATM   29  C   UNL     1      20.553  49.711  47.569  1.00  0.00     0.008 A 
HETATM   30  C   UNL     1      19.274  49.541  47.038  1.00  0.00     0.010 A 
BRANCH  28  31
HETATM   31  C   UNL     1      22.345  51.188  48.608  1.00  0.00     0.010 C 
HETATM   32  C   UNL     1      22.558  50.822  50.077  1.00  0.00     0.015 C 
HETATM   33  C   UNL     1      23.380  50.473  47.726  1.00  0.00     0.015 C 
ENDBRANCH  28  31
ENDBRANCH   7  25
BRANCH  10  34
HETATM   34  C   UNL     1      15.567  49.401  47.942  1.00  0.00     0.293 C 
HETATM   35  O   UNL     1      15.548  50.378  48.681  1.00  0.00    -0.259 OA
BRANCH  34  36
HETATM   36  O   UNL     1      15.433  48.107  48.277  1.00  0.00    -0.323 OA
HETATM   37  C   UNL     1      16.675  47.437  48.528  1.00  0.00     0.213 C 
ENDBRANCH  34  36
ENDBRANCH  10  34
TORSDOF 9
ENDMDL
MODEL 9
REMARK VINA RESULT:      -6.7     11.925     14.954
REMARK  9 active torsions:
REMARK  status: ('A' for Active; 'I' for Inactive)
REMARK    1  A    between atoms: C_6  and  C_7 
REMARK    2  A    between atoms: C_7  and  C_8 
REMARK       I    between atoms: C_8  and  N_9 
REMARK    3  A    between atoms: N_9  and  C_10 
REMARK    4  A    between atoms: C_10  and  C_11 
REMARK    5  A    between atoms: C_11  and  N_12 
REMARK    6  A    between atoms: C_20  and  C_21 
REMARK    7  A    between atoms: C_24  and  C_25 
REMARK    8  A    between atoms: C_32  and  C_33 
REMARK    9  A    between atoms: C_33  and  O_34 
ROOT
HETATM    1  C   UNL     1      18.659  48.992  51.391  1.00  0.00     0.071 C 
HETATM    2  C   UNL     1      19.108  49.796  50.197  1.00  0.00     0.048 C 
HETATM    3  N   UNL     1      20.304  50.506  50.394  1.00  0.00    -0.229 NA
HETATM    4  C   UNL     1      21.052  50.702  49.352  1.00  0.00     0.170 C 
HETATM    5  N   UNL     1      20.575  50.302  47.883  1.00  0.00    -0.319 N 
HETATM    6  C   UNL     1      21.491  49.429  47.566  1.00  0.00     0.011 C 
HETATM    7  C   UNL     1      19.119  50.543  47.897  1.00  0.00     0.166 C 
HETATM    8  S   UNL     1      22.770  50.952  49.372  1.00  0.00    -0.086 SA
HETATM    9  C   UNL     1      22.883  50.036  47.760  1.00  0.00     0.135 C 
HETATM   10  C   UNL     1      18.522  49.722  48.979  1.00  0.00     0.069 C 
ENDROOT
BRANCH   6  11
HETATM   11  C   UNL     1      21.245  47.963  47.820  1.00  0.00     0.156 C 
BRANCH  11  12
HETATM   12  C   UNL     1      21.130  46.985  46.685  1.00  0.00     0.223 C 
HETATM   13  N   UNL     1      19.896  46.983  46.089  1.00  0.00    -0.359 N 
HETATM   14  H   UNL     1      19.261  47.759  46.309  1.00  0.00     0.162 HD
HETATM   15  O   UNL     1      22.021  46.180  46.423  1.00  0.00    -0.273 OA
BRANCH  13  16
HETATM   16  C   UNL     1      19.239  45.894  45.363  1.00  0.00     0.150 C 
BRANCH  16  17
HETATM   17  C   UNL     1      17.777  46.037  44.904  1.00  0.00     0.254 C 
BRANCH  17  18
HETATM   18  N   UNL     1      17.524  47.179  43.935  1.00  0.00    -0.070 N 
HETATM   19  H   UNL     1      17.900  48.022  44.415  1.00  0.00     0.279 HD
HETATM   20  C   UNL     1      18.212  47.048  42.598  1.00  0.00     0.235 C 
HETATM   21  C   UNL     1      17.958  48.293  41.758  1.00  0.00     0.028 C 
HETATM   22  C   UNL     1      16.471  48.570  41.589  1.00  0.00     0.003 C 
HETATM   23  C   UNL     1      15.778  48.647  42.943  1.00  0.00     0.028 C 
HETATM   24  C   UNL     1      16.033  47.401  43.774  1.00  0.00     0.235 C 
ENDBRANCH  17  18
ENDBRANCH  16  17
ENDBRANCH  13  16
ENDBRANCH  11  12
ENDBRANCH   6  11
BRANCH   7  25
HETATM   25  C   UNL     1      18.393  50.848  46.598  1.00  0.00    -0.030 A 
HETATM   26  C   UNL     1      18.717  50.270  45.363  1.00  0.00     0.010 A 
HETATM   27  C   UNL     1      18.273  50.857  44.165  1.00  0.00     0.008 A 
HETATM   28  C   UNL     1      17.497  52.026  44.163  1.00  0.00    -0.055 A 
HETATM   29  C   UNL     1      17.090  52.544  45.392  1.00  0.00     0.008 A 
HETATM   30  C   UNL     1      17.545  51.977  46.583  1.00  0.00     0.010 A 
BRANCH  28  31
HETATM   31  C   UNL     1      17.155  52.726  42.855  1.00  0.00     0.010 C 
HETATM   32  C   UNL     1      18.121  52.320  41.742  1.00  0.00     0.015 C 
HETATM   33  C   UNL     1      15.703  52.488  42.414  1.00  0.00     0.015 C 
ENDBRANCH  28  31
ENDBRANCH   7  25
BRANCH  10  34
HETATM   34  C   UNL     1      17.616  48.638  48.577  1.00  0.00     0.293 C 
HETATM   35  O   UNL     1      18.063  47.529  48.310  1.00  0.00    -0.259 OA
BRANCH  34  36
HETATM   36  O   UNL     1      16.358  49.083  48.422  1.00  0.00    -0.323 OA
HETATM   37  C   UNL     1      15.629  48.424  47.378  1.00  0.00     0.213 C 
ENDBRANCH  34  36
ENDBRANCH  10  34
TORSDOF 9
ENDMDL
MODEL 10
REMARK VINA RESULT:      -6.6      4.325      9.352
REMARK  9 active torsions:
REMARK  status: ('A' for Active; 'I' for Inactive)
REMARK    1  A    between atoms: C_6  and  C_7 
REMARK    2  A    between atoms: C_7  and  C_8 
REMARK       I    between atoms: C_8  and  N_9 
REMARK    3  A    between atoms: N_9  and  C_10 
REMARK    4  A    between atoms: C_10  and  C_11 
REMARK    5  A    between atoms: C_11  and  N_12 
REMARK    6  A    between atoms: C_20  and  C_21 
REMARK    7  A    between atoms: C_24  and  C_25 
REMARK    8  A    between atoms: C_32  and  C_33 
REMARK    9  A    between atoms: C_33  and  O_34 
ROOT
HETATM    1  C   UNL     1      26.029  49.192  37.184  1.00  0.00     0.071 C 
HETATM    2  C   UNL     1      26.327  49.088  38.658  1.00  0.00     0.048 C 
HETATM    3  N   UNL     1      25.338  48.424  39.403  1.00  0.00    -0.229 NA
HETATM    4  C   UNL     1      25.729  47.776  40.457  1.00  0.00     0.170 C 
HETATM    5  N   UNL     1      27.232  47.850  40.985  1.00  0.00    -0.319 N 
HETATM    6  C   UNL     1      27.581  46.597  40.885  1.00  0.00     0.011 C 
HETATM    7  C   UNL     1      27.658  49.229  40.673  1.00  0.00     0.166 C 
HETATM    8  S   UNL     1      24.915  46.416  41.167  1.00  0.00    -0.086 SA
HETATM    9  C   UNL     1      26.573  45.712  41.624  1.00  0.00     0.135 C 
HETATM   10  C   UNL     1      27.511  49.442  39.212  1.00  0.00     0.069 C 
ENDROOT
BRANCH   6  11
HETATM   11  C   UNL     1      28.264  46.109  39.633  1.00  0.00     0.156 C 
BRANCH  11  12
HETATM   12  C   UNL     1      28.282  44.650  39.274  1.00  0.00     0.223 C 
HETATM   13  N   UNL     1      27.054  44.161  38.915  1.00  0.00    -0.359 N 
HETATM   14  H   UNL     1      26.310  44.841  38.718  1.00  0.00     0.162 HD
HETATM   15  O   UNL     1      29.282  43.952  39.426  1.00  0.00    -0.273 OA
BRANCH  13  16
HETATM   16  C   UNL     1      26.560  42.785  39.008  1.00  0.00     0.150 C 
BRANCH  16  17
HETATM   17  C   UNL     1      25.854  42.297  40.286  1.00  0.00     0.254 C 
BRANCH  17  18
HETATM   18  N   UNL     1      26.713  41.439  41.199  1.00  0.00    -0.070 N 
HETATM   19  H   UNL     1      27.232  40.806  40.557  1.00  0.00     0.279 HD
HETATM   20  C   UNL     1      27.719  42.198  42.030  1.00  0.00     0.235 C 
HETATM   21  C   UNL     1      28.577  41.224  42.826  1.00  0.00     0.028 C 
HETATM   22  C   UNL     1      27.732  40.298  43.690  1.00  0.00     0.003 C 
HETATM   23  C   UNL     1      26.686  39.578  42.849  1.00  0.00     0.028 C 
HETATM   24  C   UNL     1      25.832  40.557  42.060  1.00  0.00     0.235 C 
ENDBRANCH  17  18
ENDBRANCH  16  17
ENDBRANCH  13  16
ENDBRANCH  11  12
ENDBRANCH   6  11
BRANCH   7  25
HETATM   25  C   UNL     1      28.754  49.883  41.494  1.00  0.00    -0.030 A 
HETATM   26  C   UNL     1      28.964  51.267  41.565  1.00  0.00     0.010 A 
HETATM   27  C   UNL     1      30.191  51.779  42.023  1.00  0.00     0.008 A 
HETATM   28  C   UNL     1      31.236  50.932  42.424  1.00  0.00    -0.055 A 
HETATM   29  C   UNL     1      30.995  49.560  42.448  1.00  0.00     0.008 A 
HETATM   30  C   UNL     1      29.786  49.046  41.976  1.00  0.00     0.010 A 
BRANCH  28  31
HETATM   31  C   UNL     1      32.604  51.503  42.771  1.00  0.00     0.010 C 
HETATM   32  C   UNL     1      32.727  51.769  44.271  1.00  0.00     0.015 C 
HETATM   33  C   UNL     1      33.760  50.611  42.292  1.00  0.00     0.015 C 
ENDBRANCH  28  31
ENDBRANCH   7  25
BRANCH  10  34
HETATM   34  C   UNL     1      28.741  49.651  38.437  1.00  0.00     0.293 C 
HETATM   35  O   UNL     1      29.594  48.773  38.388  1.00  0.00    -0.259 OA
BRANCH  34  36
HETATM   36  O   UNL     1      28.819  50.907  37.970  1.00  0.00    -0.323 OA
HETATM   37  C   UNL     1      30.132  51.477  38.038  1.00  0.00     0.213 C 
ENDBRANCH  34  36
ENDBRANCH  10  34
TORSDOF 9
ENDMDL
