MODEL 1
REMARK VINA RESULT:      -9.4      0.000      0.000
REMARK  8 active torsions:
REMARK  status: ('A' for Active; 'I' for Inactive)
REMARK    1  A    between atoms: C_3  and  S_4 
REMARK    2  A    between atoms: S_4  and  C_5 
REMARK    3  A    between atoms: C_5  and  C_6 
REMARK       I    between atoms: C_6  and  N_7 
REMARK    4  A    between atoms: N_7  and  C_8 
REMARK    5  A    between atoms: C_8  and  C_9 
REMARK    6  A    between atoms: C_9  and  C_10 
REMARK    7  A    between atoms: C_19  and  C_20 
REMARK    8  A    between atoms: C_25  and  O_26 
ROOT
HETATM    1  C   UNL     1      27.100  45.216  50.184  1.00  0.00     0.160 C 
HETATM    2  N   UNL     1      25.982  44.844  51.011  1.00  0.00    -0.310 N 
HETATM    3  C   UNL     1      24.651  44.833  50.696  1.00  0.00     0.191 A 
HETATM    4  N   UNL     1      23.954  44.409  51.725  1.00  0.00    -0.122 NA
HETATM    5  N   UNL     1      24.826  44.168  52.752  1.00  0.00    -0.126 NA
HETATM    6  C   UNL     1      26.047  44.421  52.319  1.00  0.00     0.188 A 
ENDROOT
BRANCH   3   7
HETATM    7  S   UNL     1      23.990  45.333  49.180  1.00  0.00    -0.081 SA
BRANCH   7   8
HETATM    8  C   UNL     1      23.970  47.139  49.370  1.00  0.00     0.185 C 
BRANCH   8   9
HETATM    9  C   UNL     1      22.757  47.774  48.710  1.00  0.00     0.227 C 
HETATM   10  N   UNL     1      21.542  47.297  49.143  1.00  0.00    -0.360 N 
HETATM   11  H   UNL     1      21.525  46.622  49.907  1.00  0.00     0.162 HD
HETATM   12  O   UNL     1      22.867  48.610  47.815  1.00  0.00    -0.273 OA
BRANCH  10  13
HETATM   13  C   UNL     1      20.280  47.685  48.546  1.00  0.00     0.127 C 
BRANCH  13  14
HETATM   14  C   UNL     1      19.371  48.366  49.571  1.00  0.00     0.058 C 
BRANCH  14  15
HETATM   15  C   UNL     1      19.177  49.831  49.275  1.00  0.00    -0.057 A 
HETATM   16  C   UNL     1      18.346  50.616  50.084  1.00  0.00     0.007 A 
HETATM   17  C   UNL     1      18.162  51.970  49.803  1.00  0.00     0.001 A 
HETATM   18  C   UNL     1      18.799  52.550  48.708  1.00  0.00     0.000 A 
HETATM   19  C   UNL     1      19.622  51.775  47.891  1.00  0.00     0.001 A 
HETATM   20  C   UNL     1      19.809  50.422  48.172  1.00  0.00     0.007 A 
ENDBRANCH  14  15
ENDBRANCH  13  14
ENDBRANCH  10  13
ENDBRANCH   8   9
ENDBRANCH   7   8
ENDBRANCH   3   7
BRANCH   6  21
HETATM   21  C   UNL     1      27.225  44.269  53.115  1.00  0.00     0.125 A 
HETATM   22  O   UNL     1      27.540  45.088  54.168  1.00  0.00    -0.303 OA
HETATM   23  C   UNL     1      28.731  44.672  54.688  1.00  0.00     0.119 A 
HETATM   24  C   UNL     1      29.193  43.568  53.982  1.00  0.00     0.003 A 
HETATM   25  C   UNL     1      29.402  45.264  55.765  1.00  0.00     0.102 A 
HETATM   26  C   UNL     1      28.225  43.321  52.976  1.00  0.00     0.055 A 
HETATM   27  C   UNL     1      30.407  42.979  54.368  1.00  0.00     0.014 A 
HETATM   28  C   UNL     1      31.104  43.534  55.448  1.00  0.00     0.004 A 
HETATM   29  C   UNL     1      30.612  44.653  56.131  1.00  0.00     0.040 A 
BRANCH  25  30
HETATM   30  O   UNL     1      28.837  46.354  56.363  1.00  0.00    -0.353 OA
HETATM   31  C   UNL     1      28.622  46.273  57.767  1.00  0.00     0.210 C 
ENDBRANCH  25  30
ENDBRANCH   6  21
TORSDOF 8
ENDMDL
MODEL 2
REMARK VINA RESULT:      -9.1      2.007     10.588
REMARK  8 active torsions:
REMARK  status: ('A' for Active; 'I' for Inactive)
REMARK    1  A    between atoms: C_3  and  S_4 
REMARK    2  A    between atoms: S_4  and  C_5 
REMARK    3  A    between atoms: C_5  and  C_6 
REMARK       I    between atoms: C_6  and  N_7 
REMARK    4  A    between atoms: N_7  and  C_8 
REMARK    5  A    between atoms: C_8  and  C_9 
REMARK    6  A    between atoms: C_9  and  C_10 
REMARK    7  A    between atoms: C_19  and  C_20 
REMARK    8  A    between atoms: C_25  and  O_26 
ROOT
HETATM    1  C   UNL     1      24.449  46.927  50.325  1.00  0.00     0.160 C 
HETATM    2  N   UNL     1      23.833  46.162  49.273  1.00  0.00    -0.310 N 
HETATM    3  C   UNL     1      24.172  44.922  48.806  1.00  0.00     0.191 A 
HETATM    4  N   UNL     1      23.346  44.565  47.849  1.00  0.00    -0.122 NA
HETATM    5  N   UNL     1      22.466  45.594  47.649  1.00  0.00    -0.126 NA
HETATM    6  C   UNL     1      22.753  46.551  48.512  1.00  0.00     0.188 A 
ENDROOT
BRANCH   3   7
HETATM    7  S   UNL     1      25.507  43.983  49.374  1.00  0.00    -0.081 SA
BRANCH   7   8
HETATM    8  C   UNL     1      24.760  43.098  50.772  1.00  0.00     0.185 C 
BRANCH   8   9
HETATM    9  C   UNL     1      25.229  43.639  52.113  1.00  0.00     0.227 C 
HETATM   10  N   UNL     1      26.423  43.126  52.562  1.00  0.00    -0.360 N 
HETATM   11  H   UNL     1      26.942  42.489  51.956  1.00  0.00     0.162 HD
HETATM   12  O   UNL     1      24.556  44.434  52.766  1.00  0.00    -0.273 OA
BRANCH  10  13
HETATM   13  C   UNL     1      26.971  43.420  53.871  1.00  0.00     0.127 C 
BRANCH  13  14
HETATM   14  C   UNL     1      27.916  44.622  53.816  1.00  0.00     0.058 C 
BRANCH  14  15
HETATM   15  C   UNL     1      29.039  44.509  54.815  1.00  0.00    -0.057 A 
HETATM   16  C   UNL     1      29.335  45.575  55.675  1.00  0.00     0.007 A 
HETATM   17  C   UNL     1      30.381  45.471  56.592  1.00  0.00     0.001 A 
HETATM   18  C   UNL     1      31.145  44.307  56.654  1.00  0.00     0.000 A 
HETATM   19  C   UNL     1      30.864  43.244  55.796  1.00  0.00     0.001 A 
HETATM   20  C   UNL     1      29.817  43.345  54.880  1.00  0.00     0.007 A 
ENDBRANCH  14  15
ENDBRANCH  13  14
ENDBRANCH  10  13
ENDBRANCH   8   9
ENDBRANCH   7   8
ENDBRANCH   3   7
BRANCH   6  21
HETATM   21  C   UNL     1      22.035  47.783  48.608  1.00  0.00     0.125 A 
HETATM   22  O   UNL     1      20.801  47.899  49.194  1.00  0.00    -0.303 OA
HETATM   23  C   UNL     1      20.405  49.201  49.096  1.00  0.00     0.119 A 
HETATM   24  C   UNL     1      21.389  49.945  48.456  1.00  0.00     0.003 A 
HETATM   25  C   UNL     1      19.191  49.722  49.560  1.00  0.00     0.102 A 
HETATM   26  C   UNL     1      22.425  49.029  48.144  1.00  0.00     0.055 A 
HETATM   27  C   UNL     1      21.179  51.320  48.264  1.00  0.00     0.014 A 
HETATM   28  C   UNL     1      19.981  51.882  48.723  1.00  0.00     0.004 A 
HETATM   29  C   UNL     1      19.008  51.098  49.357  1.00  0.00     0.040 A 
BRANCH  25  30
HETATM   30  O   UNL     1      18.309  48.872  50.164  1.00  0.00    -0.353 OA
HETATM   31  C   UNL     1      18.540  48.581  51.536  1.00  0.00     0.210 C 
ENDBRANCH  25  30
ENDBRANCH   6  21
TORSDOF 8
ENDMDL
MODEL 3
REMARK VINA RESULT:      -9.1      1.806     11.196
REMARK  8 active torsions:
REMARK  status: ('A' for Active; 'I' for Inactive)
REMARK    1  A    between atoms: C_3  and  S_4 
REMARK    2  A    between atoms: S_4  and  C_5 
REMARK    3  A    between atoms: C_5  and  C_6 
REMARK       I    between atoms: C_6  and  N_7 
REMARK    4  A    between atoms: N_7  and  C_8 
REMARK    5  A    between atoms: C_8  and  C_9 
REMARK    6  A    between atoms: C_9  and  C_10 
REMARK    7  A    between atoms: C_19  and  C_20 
REMARK    8  A    between atoms: C_25  and  O_26 
ROOT
HETATM    1  C   UNL     1      21.866  46.377  48.441  1.00  0.00     0.160 C 
HETATM    2  N   UNL     1      22.877  47.193  49.060  1.00  0.00    -0.310 N 
HETATM    3  C   UNL     1      24.130  46.835  49.476  1.00  0.00     0.191 A 
HETATM    4  N   UNL     1      24.750  47.881  49.972  1.00  0.00    -0.122 NA
HETATM    5  N   UNL     1      23.888  48.943  49.922  1.00  0.00    -0.126 NA
HETATM    6  C   UNL     1      22.764  48.531  49.364  1.00  0.00     0.188 A 
ENDROOT
BRANCH   3   7
HETATM    7  S   UNL     1      24.782  45.237  49.385  1.00  0.00    -0.081 SA
BRANCH   7   8
HETATM    8  C   UNL     1      24.818  44.760  51.136  1.00  0.00     0.185 C 
BRANCH   8   9
HETATM    9  C   UNL     1      26.205  44.897  51.742  1.00  0.00     0.227 C 
HETATM   10  N   UNL     1      27.045  43.830  51.523  1.00  0.00    -0.360 N 
HETATM   11  H   UNL     1      26.723  43.068  50.927  1.00  0.00     0.162 HD
HETATM   12  O   UNL     1      26.525  45.870  52.423  1.00  0.00    -0.273 OA
BRANCH  10  13
HETATM   13  C   UNL     1      28.358  43.718  52.124  1.00  0.00     0.127 C 
BRANCH  13  14
HETATM   14  C   UNL     1      28.288  43.005  53.476  1.00  0.00     0.058 C 
BRANCH  14  15
HETATM   15  C   UNL     1      29.114  43.699  54.529  1.00  0.00    -0.057 A 
HETATM   16  C   UNL     1      28.769  44.983  54.970  1.00  0.00     0.007 A 
HETATM   17  C   UNL     1      29.540  45.626  55.939  1.00  0.00     0.001 A 
HETATM   18  C   UNL     1      30.665  44.997  56.469  1.00  0.00     0.000 A 
HETATM   19  C   UNL     1      31.022  43.723  56.030  1.00  0.00     0.001 A 
HETATM   20  C   UNL     1      30.250  43.077  55.063  1.00  0.00     0.007 A 
ENDBRANCH  14  15
ENDBRANCH  13  14
ENDBRANCH  10  13
ENDBRANCH   8   9
ENDBRANCH   7   8
ENDBRANCH   3   7
BRANCH   6  21
HETATM   21  C   UNL     1      21.631  49.372  49.133  1.00  0.00     0.125 A 
HETATM   22  O   UNL     1      20.334  48.938  49.217  1.00  0.00    -0.303 OA
HETATM   23  C   UNL     1      19.515  49.988  48.921  1.00  0.00     0.119 A 
HETATM   24  C   UNL     1      20.277  51.119  48.656  1.00  0.00     0.003 A 
HETATM   25  C   UNL     1      18.116  49.945  48.881  1.00  0.00     0.102 A 
HETATM   26  C   UNL     1      21.629  50.713  48.790  1.00  0.00     0.055 A 
HETATM   27  C   UNL     1      19.619  52.317  48.338  1.00  0.00     0.014 A 
HETATM   28  C   UNL     1      18.220  52.320  48.297  1.00  0.00     0.004 A 
HETATM   29  C   UNL     1      17.484  51.157  48.563  1.00  0.00     0.040 A 
BRANCH  25  30
HETATM   30  O   UNL     1      17.494  48.760  49.155  1.00  0.00    -0.353 OA
HETATM   31  C   UNL     1      17.219  47.911  48.048  1.00  0.00     0.210 C 
ENDBRANCH  25  30
ENDBRANCH   6  21
TORSDOF 8
ENDMDL
MODEL 4
REMARK VINA RESULT:      -8.9      1.403      1.846
REMARK  8 active torsions:
REMARK  status: ('A' for Active; 'I' for Inactive)
REMARK    1  A    between atoms: C_3  and  S_4 
REMARK    2  A    between atoms: S_4  and  C_5 
REMARK    3  A    between atoms: C_5  and  C_6 
REMARK       I    between atoms: C_6  and  N_7 
REMARK    4  A    between atoms: N_7  and  C_8 
REMARK    5  A    between atoms: C_8  and  C_9 
REMARK    6  A    between atoms: C_9  and  C_10 
REMARK    7  A    between atoms: C_19  and  C_20 
REMARK    8  A    between atoms: C_25  and  O_26 
ROOT
HETATM    1  C   UNL     1      26.375  45.792  49.684  1.00  0.00     0.160 C 
HETATM    2  N   UNL     1      25.313  45.087  50.353  1.00  0.00    -0.310 N 
HETATM    3  C   UNL     1      23.986  45.031  50.029  1.00  0.00     0.191 A 
HETATM    4  N   UNL     1      23.351  44.260  50.883  1.00  0.00    -0.122 NA
HETATM    5  N   UNL     1      24.259  43.825  51.810  1.00  0.00    -0.126 NA
HETATM    6  C   UNL     1      25.441  44.314  51.486  1.00  0.00     0.188 A 
ENDROOT
BRANCH   3   7
HETATM    7  S   UNL     1      23.254  45.874  48.710  1.00  0.00    -0.081 SA
BRANCH   7   8
HETATM    8  C   UNL     1      23.568  47.604  49.167  1.00  0.00     0.185 C 
BRANCH   8   9
HETATM    9  C   UNL     1      22.293  48.430  49.203  1.00  0.00     0.227 C 
HETATM   10  N   UNL     1      22.442  49.711  49.681  1.00  0.00    -0.360 N 
HETATM   11  H   UNL     1      23.380  50.043  49.906  1.00  0.00     0.162 HD
HETATM   12  O   UNL     1      21.203  47.960  48.881  1.00  0.00    -0.273 OA
BRANCH  10  13
HETATM   13  C   UNL     1      21.327  50.607  49.910  1.00  0.00     0.127 C 
BRANCH  13  14
HETATM   14  C   UNL     1      20.908  51.309  48.617  1.00  0.00     0.058 C 
BRANCH  14  15
HETATM   15  C   UNL     1      19.444  51.668  48.612  1.00  0.00    -0.057 A 
HETATM   16  C   UNL     1      18.708  51.635  47.421  1.00  0.00     0.007 A 
HETATM   17  C   UNL     1      17.355  51.976  47.418  1.00  0.00     0.001 A 
HETATM   18  C   UNL     1      16.728  52.359  48.601  1.00  0.00     0.000 A 
HETATM   19  C   UNL     1      17.453  52.403  49.791  1.00  0.00     0.001 A 
HETATM   20  C   UNL     1      18.806  52.061  49.796  1.00  0.00     0.007 A 
ENDBRANCH  14  15
ENDBRANCH  13  14
ENDBRANCH  10  13
ENDBRANCH   8   9
ENDBRANCH   7   8
ENDBRANCH   3   7
BRANCH   6  21
HETATM   21  C   UNL     1      26.640  44.062  52.222  1.00  0.00     0.125 A 
HETATM   22  O   UNL     1      26.954  44.690  53.400  1.00  0.00    -0.303 OA
HETATM   23  C   UNL     1      28.168  44.227  53.817  1.00  0.00     0.119 A 
HETATM   24  C   UNL     1      28.646  43.283  52.917  1.00  0.00     0.003 A 
HETATM   25  C   UNL     1      28.845  44.639  54.972  1.00  0.00     0.102 A 
HETATM   26  C   UNL     1      27.665  43.188  51.899  1.00  0.00     0.055 A 
HETATM   27  C   UNL     1      29.885  42.674  53.171  1.00  0.00     0.014 A 
HETATM   28  C   UNL     1      30.590  43.050  54.321  1.00  0.00     0.004 A 
HETATM   29  C   UNL     1      30.080  44.013  55.202  1.00  0.00     0.040 A 
BRANCH  25  30
HETATM   30  O   UNL     1      28.261  45.585  55.765  1.00  0.00    -0.353 OA
HETATM   31  C   UNL     1      28.325  46.930  55.308  1.00  0.00     0.210 C 
ENDBRANCH  25  30
ENDBRANCH   6  21
TORSDOF 8
ENDMDL
MODEL 5
REMARK VINA RESULT:      -8.5      1.961      2.870
REMARK  8 active torsions:
REMARK  status: ('A' for Active; 'I' for Inactive)
REMARK    1  A    between atoms: C_3  and  S_4 
REMARK    2  A    between atoms: S_4  and  C_5 
REMARK    3  A    between atoms: C_5  and  C_6 
REMARK       I    between atoms: C_6  and  N_7 
REMARK    4  A    between atoms: N_7  and  C_8 
REMARK    5  A    between atoms: C_8  and  C_9 
REMARK    6  A    between atoms: C_9  and  C_10 
REMARK    7  A    between atoms: C_19  and  C_20 
REMARK    8  A    between atoms: C_25  and  O_26 
ROOT
HETATM    1  C   UNL     1      25.491  46.453  49.996  1.00  0.00     0.160 C 
HETATM    2  N   UNL     1      24.674  45.328  50.369  1.00  0.00    -0.310 N 
HETATM    3  C   UNL     1      23.502  44.898  49.809  1.00  0.00     0.191 A 
HETATM    4  N   UNL     1      23.082  43.819  50.429  1.00  0.00    -0.122 NA
HETATM    5  N   UNL     1      23.965  43.545  51.439  1.00  0.00    -0.126 NA
HETATM    6  C   UNL     1      24.928  44.447  51.396  1.00  0.00     0.188 A 
ENDROOT
BRANCH   3   7
HETATM    7  S   UNL     1      22.687  45.681  48.502  1.00  0.00    -0.081 SA
BRANCH   7   8
HETATM    8  C   UNL     1      21.329  44.520  48.174  1.00  0.00     0.185 C 
BRANCH   8   9
HETATM    9  C   UNL     1      19.967  45.188  48.261  1.00  0.00     0.227 C 
HETATM   10  N   UNL     1      19.995  46.535  48.539  1.00  0.00    -0.360 N 
HETATM   11  H   UNL     1      20.899  47.004  48.597  1.00  0.00     0.162 HD
HETATM   12  O   UNL     1      18.922  44.552  48.145  1.00  0.00    -0.273 OA
BRANCH  10  13
HETATM   13  C   UNL     1      18.802  47.319  48.786  1.00  0.00     0.127 C 
BRANCH  13  14
HETATM   14  C   UNL     1      19.027  48.325  49.916  1.00  0.00     0.058 C 
BRANCH  14  15
HETATM   15  C   UNL     1      19.063  49.746  49.414  1.00  0.00    -0.057 A 
HETATM   16  C   UNL     1      19.694  50.056  48.202  1.00  0.00     0.007 A 
HETATM   17  C   UNL     1      19.734  51.373  47.744  1.00  0.00     0.001 A 
HETATM   18  C   UNL     1      19.153  52.392  48.495  1.00  0.00     0.000 A 
HETATM   19  C   UNL     1      18.530  52.096  49.707  1.00  0.00     0.001 A 
HETATM   20  C   UNL     1      18.487  50.779  50.165  1.00  0.00     0.007 A 
ENDBRANCH  14  15
ENDBRANCH  13  14
ENDBRANCH  10  13
ENDBRANCH   8   9
ENDBRANCH   7   8
ENDBRANCH   3   7
BRANCH   6  21
HETATM   21  C   UNL     1      26.039  44.473  52.295  1.00  0.00     0.125 A 
HETATM   22  O   UNL     1      27.109  43.621  52.204  1.00  0.00    -0.303 OA
HETATM   23  C   UNL     1      27.970  43.910  53.223  1.00  0.00     0.119 A 
HETATM   24  C   UNL     1      27.470  44.965  53.976  1.00  0.00     0.003 A 
HETATM   25  C   UNL     1      29.176  43.248  53.485  1.00  0.00     0.102 A 
HETATM   26  C   UNL     1      26.233  45.314  53.378  1.00  0.00     0.055 A 
HETATM   27  C   UNL     1      28.215  45.425  55.073  1.00  0.00     0.014 A 
HETATM   28  C   UNL     1      29.432  44.796  55.363  1.00  0.00     0.004 A 
HETATM   29  C   UNL     1      29.902  43.730  54.585  1.00  0.00     0.040 A 
BRANCH  25  30
HETATM   30  O   UNL     1      29.543  42.219  52.665  1.00  0.00    -0.353 OA
HETATM   31  C   UNL     1      28.838  40.995  52.822  1.00  0.00     0.210 C 
ENDBRANCH  25  30
ENDBRANCH   6  21
TORSDOF 8
ENDMDL
MODEL 6
REMARK VINA RESULT:      -8.4      2.189      3.288
REMARK  8 active torsions:
REMARK  status: ('A' for Active; 'I' for Inactive)
REMARK    1  A    between atoms: C_3  and  S_4 
REMARK    2  A    between atoms: S_4  and  C_5 
REMARK    3  A    between atoms: C_5  and  C_6 
REMARK       I    between atoms: C_6  and  N_7 
REMARK    4  A    between atoms: N_7  and  C_8 
REMARK    5  A    between atoms: C_8  and  C_9 
REMARK    6  A    between atoms: C_9  and  C_10 
REMARK    7  A    between atoms: C_19  and  C_20 
REMARK    8  A    between atoms: C_25  and  O_26 
ROOT
HETATM    1  C   UNL     1      24.489  44.069  50.525  1.00  0.00     0.160 C 
HETATM    2  N   UNL     1      24.313  45.481  50.305  1.00  0.00    -0.310 N 
HETATM    3  C   UNL     1      23.559  46.112  49.355  1.00  0.00     0.191 A 
HETATM    4  N   UNL     1      23.649  47.414  49.506  1.00  0.00    -0.122 NA
HETATM    5  N   UNL     1      24.503  47.656  50.548  1.00  0.00    -0.126 NA
HETATM    6  C   UNL     1      24.895  46.494  51.035  1.00  0.00     0.188 A 
ENDROOT
BRANCH   3   7
HETATM    7  S   UNL     1      22.649  45.310  48.123  1.00  0.00    -0.081 SA
BRANCH   7   8
HETATM    8  C   UNL     1      21.130  44.877  49.017  1.00  0.00     0.185 C 
BRANCH   8   9
HETATM    9  C   UNL     1      19.991  45.837  48.716  1.00  0.00     0.227 C 
HETATM   10  N   UNL     1      19.971  46.977  49.485  1.00  0.00    -0.360 N 
HETATM   11  H   UNL     1      20.736  47.140  50.139  1.00  0.00     0.162 HD
HETATM   12  O   UNL     1      19.124  45.578  47.883  1.00  0.00    -0.273 OA
BRANCH  10  13
HETATM   13  C   UNL     1      18.897  47.949  49.436  1.00  0.00     0.127 C 
BRANCH  13  14
HETATM   14  C   UNL     1      19.174  49.025  48.385  1.00  0.00     0.058 C 
BRANCH  14  15
HETATM   15  C   UNL     1      20.510  49.692  48.592  1.00  0.00    -0.057 A 
HETATM   16  C   UNL     1      20.798  50.347  49.796  1.00  0.00     0.007 A 
HETATM   17  C   UNL     1      22.032  50.971  49.982  1.00  0.00     0.001 A 
HETATM   18  C   UNL     1      22.985  50.954  48.965  1.00  0.00     0.000 A 
HETATM   19  C   UNL     1      22.705  50.312  47.760  1.00  0.00     0.001 A 
HETATM   20  C   UNL     1      21.472  49.686  47.573  1.00  0.00     0.007 A 
ENDBRANCH  14  15
ENDBRANCH  13  14
ENDBRANCH  10  13
ENDBRANCH   8   9
ENDBRANCH   7   8
ENDBRANCH   3   7
BRANCH   6  21
HETATM   21  C   UNL     1      25.786  46.350  52.143  1.00  0.00     0.125 A 
HETATM   22  O   UNL     1      26.605  45.266  52.324  1.00  0.00    -0.303 OA
HETATM   23  C   UNL     1      27.301  45.449  53.483  1.00  0.00     0.119 A 
HETATM   24  C   UNL     1      26.948  46.663  54.058  1.00  0.00     0.003 A 
HETATM   25  C   UNL     1      28.230  44.552  54.026  1.00  0.00     0.102 A 
HETATM   26  C   UNL     1      25.975  47.229  53.197  1.00  0.00     0.055 A 
HETATM   27  C   UNL     1      27.564  47.045  55.260  1.00  0.00     0.014 A 
HETATM   28  C   UNL     1      28.506  46.182  55.831  1.00  0.00     0.004 A 
HETATM   29  C   UNL     1      28.832  44.961  55.226  1.00  0.00     0.040 A 
BRANCH  25  30
HETATM   30  O   UNL     1      28.476  43.387  53.357  1.00  0.00    -0.353 OA
HETATM   31  C   UNL     1      29.824  43.139  52.980  1.00  0.00     0.210 C 
ENDBRANCH  25  30
ENDBRANCH   6  21
TORSDOF 8
ENDMDL
MODEL 7
REMARK VINA RESULT:      -8.3      2.318      3.240
REMARK  8 active torsions:
REMARK  status: ('A' for Active; 'I' for Inactive)
REMARK    1  A    between atoms: C_3  and  S_4 
REMARK    2  A    between atoms: S_4  and  C_5 
REMARK    3  A    between atoms: C_5  and  C_6 
REMARK       I    between atoms: C_6  and  N_7 
REMARK    4  A    between atoms: N_7  and  C_8 
REMARK    5  A    between atoms: C_8  and  C_9 
REMARK    6  A    between atoms: C_9  and  C_10 
REMARK    7  A    between atoms: C_19  and  C_20 
REMARK    8  A    between atoms: C_25  and  O_26 
ROOT
HETATM    1  C   UNL     1      24.054  46.627  49.315  1.00  0.00     0.160 C 
HETATM    2  N   UNL     1      23.316  45.405  49.501  1.00  0.00    -0.310 N 
HETATM    3  C   UNL     1      22.188  44.980  48.856  1.00  0.00     0.191 A 
HETATM    4  N   UNL     1      21.839  43.795  49.303  1.00  0.00    -0.122 NA
HETATM    5  N   UNL     1      22.725  43.440  50.285  1.00  0.00    -0.126 NA
HETATM    6  C   UNL     1      23.619  44.404  50.397  1.00  0.00     0.188 A 
ENDROOT
BRANCH   3   7
HETATM    7  S   UNL     1      21.336  45.884  47.655  1.00  0.00    -0.081 SA
BRANCH   7   8
HETATM    8  C   UNL     1      19.743  45.015  47.607  1.00  0.00     0.185 C 
BRANCH   8   9
HETATM    9  C   UNL     1      18.631  45.813  48.267  1.00  0.00     0.227 C 
HETATM   10  N   UNL     1      19.046  46.925  48.963  1.00  0.00    -0.360 N 
HETATM   11  H   UNL     1      20.033  47.180  48.934  1.00  0.00     0.162 HD
HETATM   12  O   UNL     1      17.457  45.451  48.225  1.00  0.00    -0.273 OA
BRANCH  10  13
HETATM   13  C   UNL     1      18.154  47.739  49.762  1.00  0.00     0.127 C 
BRANCH  13  14
HETATM   14  C   UNL     1      18.926  48.810  50.535  1.00  0.00     0.058 C 
BRANCH  14  15
HETATM   15  C   UNL     1      18.938  50.134  49.816  1.00  0.00    -0.057 A 
HETATM   16  C   UNL     1      20.108  50.598  49.200  1.00  0.00     0.007 A 
HETATM   17  C   UNL     1      20.119  51.828  48.543  1.00  0.00     0.001 A 
HETATM   18  C   UNL     1      18.965  52.609  48.501  1.00  0.00     0.000 A 
HETATM   19  C   UNL     1      17.798  52.161  49.118  1.00  0.00     0.001 A 
HETATM   20  C   UNL     1      17.785  50.929  49.774  1.00  0.00     0.007 A 
ENDBRANCH  14  15
ENDBRANCH  13  14
ENDBRANCH  10  13
ENDBRANCH   8   9
ENDBRANCH   7   8
ENDBRANCH   3   7
BRANCH   6  21
HETATM   21  C   UNL     1      24.712  44.378  51.318  1.00  0.00     0.125 A 
HETATM   22  O   UNL     1      24.803  45.199  52.412  1.00  0.00    -0.303 OA
HETATM   23  C   UNL     1      25.974  44.919  53.055  1.00  0.00     0.119 A 
HETATM   24  C   UNL     1      26.646  43.902  52.390  1.00  0.00     0.003 A 
HETATM   25  C   UNL     1      26.442  45.559  54.210  1.00  0.00     0.102 A 
HETATM   26  C   UNL     1      25.834  43.566  51.277  1.00  0.00     0.055 A 
HETATM   27  C   UNL     1      27.875  43.458  52.901  1.00  0.00     0.014 A 
HETATM   28  C   UNL     1      28.374  44.064  54.060  1.00  0.00     0.004 A 
HETATM   29  C   UNL     1      27.671  45.093  54.701  1.00  0.00     0.040 A 
BRANCH  25  30
HETATM   30  O   UNL     1      25.680  46.552  54.757  1.00  0.00    -0.353 OA
HETATM   31  C   UNL     1      26.085  47.888  54.489  1.00  0.00     0.210 C 
ENDBRANCH  25  30
ENDBRANCH   6  21
TORSDOF 8
ENDMDL
MODEL 8
REMARK VINA RESULT:      -8.1      1.751      2.415
REMARK  8 active torsions:
REMARK  status: ('A' for Active; 'I' for Inactive)
REMARK    1  A    between atoms: C_3  and  S_4 
REMARK    2  A    between atoms: S_4  and  C_5 
REMARK    3  A    between atoms: C_5  and  C_6 
REMARK       I    between atoms: C_6  and  N_7 
REMARK    4  A    between atoms: N_7  and  C_8 
REMARK    5  A    between atoms: C_8  and  C_9 
REMARK    6  A    between atoms: C_9  and  C_10 
REMARK    7  A    between atoms: C_19  and  C_20 
REMARK    8  A    between atoms: C_25  and  O_26 
ROOT
HETATM    1  C   UNL     1      26.974  44.850  50.803  1.00  0.00     0.160 C 
HETATM    2  N   UNL     1      26.282  45.889  51.521  1.00  0.00    -0.310 N 
HETATM    3  C   UNL     1      25.245  46.676  51.100  1.00  0.00     0.191 A 
HETATM    4  N   UNL     1      24.884  47.490  52.065  1.00  0.00    -0.122 NA
HETATM    5  N   UNL     1      25.714  47.270  53.132  1.00  0.00    -0.126 NA
HETATM    6  C   UNL     1      26.548  46.300  52.807  1.00  0.00     0.188 A 
ENDROOT
BRANCH   3   7
HETATM    7  S   UNL     1      24.541  46.621  49.523  1.00  0.00    -0.081 SA
BRANCH   7   8
HETATM    8  C   UNL     1      23.437  45.187  49.668  1.00  0.00     0.185 C 
BRANCH   8   9
HETATM    9  C   UNL     1      22.081  45.436  49.028  1.00  0.00     0.227 C 
HETATM   10  N   UNL     1      21.793  46.756  48.771  1.00  0.00    -0.360 N 
HETATM   11  H   UNL     1      22.510  47.458  48.950  1.00  0.00     0.162 HD
HETATM   12  O   UNL     1      21.285  44.524  48.814  1.00  0.00    -0.273 OA
BRANCH  10  13
HETATM   13  C   UNL     1      20.505  47.205  48.283  1.00  0.00     0.127 C 
BRANCH  13  14
HETATM   14  C   UNL     1      19.660  47.795  49.414  1.00  0.00     0.058 C 
BRANCH  14  15
HETATM   15  C   UNL     1      19.538  49.294  49.312  1.00  0.00    -0.057 A 
HETATM   16  C   UNL     1      18.554  49.977  50.039  1.00  0.00     0.007 A 
HETATM   17  C   UNL     1      18.437  51.364  49.936  1.00  0.00     0.001 A 
HETATM   18  C   UNL     1      19.296  52.078  49.103  1.00  0.00     0.000 A 
HETATM   19  C   UNL     1      20.273  51.406  48.369  1.00  0.00     0.001 A 
HETATM   20  C   UNL     1      20.392  50.020  48.472  1.00  0.00     0.007 A 
ENDBRANCH  14  15
ENDBRANCH  13  14
ENDBRANCH  10  13
ENDBRANCH   8   9
ENDBRANCH   7   8
ENDBRANCH   3   7
BRANCH   6  21
HETATM   21  C   UNL     1      27.558  45.789  53.681  1.00  0.00     0.125 A 
HETATM   22  O   UNL     1      28.209  44.600  53.475  1.00  0.00    -0.303 OA
HETATM   23  C   UNL     1      29.088  44.414  54.501  1.00  0.00     0.119 A 
HETATM   24  C   UNL     1      29.023  45.490  55.377  1.00  0.00     0.003 A 
HETATM   25  C   UNL     1      29.930  43.307  54.664  1.00  0.00     0.102 A 
HETATM   26  C   UNL     1      28.038  46.361  54.847  1.00  0.00     0.055 A 
HETATM   27  C   UNL     1      29.861  45.497  56.503  1.00  0.00     0.014 A 
HETATM   28  C   UNL     1      30.726  44.413  56.697  1.00  0.00     0.004 A 
HETATM   29  C   UNL     1      30.759  43.340  55.796  1.00  0.00     0.040 A 
BRANCH  25  30
HETATM   30  O   UNL     1      29.884  42.313  53.728  1.00  0.00    -0.353 OA
HETATM   31  C   UNL     1      28.659  41.601  53.612  1.00  0.00     0.210 C 
ENDBRANCH  25  30
ENDBRANCH   6  21
TORSDOF 8
ENDMDL
MODEL 9
REMARK VINA RESULT:      -8.1      1.753      2.724
REMARK  8 active torsions:
REMARK  status: ('A' for Active; 'I' for Inactive)
REMARK    1  A    between atoms: C_3  and  S_4 
REMARK    2  A    between atoms: S_4  and  C_5 
REMARK    3  A    between atoms: C_5  and  C_6 
REMARK       I    between atoms: C_6  and  N_7 
REMARK    4  A    between atoms: N_7  and  C_8 
REMARK    5  A    between atoms: C_8  and  C_9 
REMARK    6  A    between atoms: C_9  and  C_10 
REMARK    7  A    between atoms: C_19  and  C_20 
REMARK    8  A    between atoms: C_25  and  O_26 
ROOT
HETATM    1  C   UNL     1      26.239  47.615  50.545  1.00  0.00     0.160 C 
HETATM    2  N   UNL     1      25.357  46.504  50.790  1.00  0.00    -0.310 N 
HETATM    3  C   UNL     1      24.262  46.106  50.074  1.00  0.00     0.191 A 
HETATM    4  N   UNL     1      23.741  45.030  50.617  1.00  0.00    -0.122 NA
HETATM    5  N   UNL     1      24.476  44.725  51.731  1.00  0.00    -0.126 NA
HETATM    6  C   UNL     1      25.453  45.607  51.830  1.00  0.00     0.188 A 
ENDROOT
BRANCH   3   7
HETATM    7  S   UNL     1      23.644  46.921  48.680  1.00  0.00    -0.081 SA
BRANCH   7   8
HETATM    8  C   UNL     1      22.903  48.402  49.425  1.00  0.00     0.185 C 
BRANCH   8   9
HETATM    9  C   UNL     1      21.469  48.619  48.969  1.00  0.00     0.227 C 
HETATM   10  N   UNL     1      21.203  49.868  48.460  1.00  0.00    -0.360 N 
HETATM   11  H   UNL     1      21.974  50.528  48.354  1.00  0.00     0.162 HD
HETATM   12  O   UNL     1      20.606  47.754  49.103  1.00  0.00    -0.273 OA
BRANCH  10  13
HETATM   13  C   UNL     1      19.872  50.308  48.092  1.00  0.00     0.127 C 
BRANCH  13  14
HETATM   14  C   UNL     1      19.649  51.772  48.475  1.00  0.00     0.058 C 
BRANCH  14  15
HETATM   15  C   UNL     1      18.185  52.113  48.594  1.00  0.00    -0.057 A 
HETATM   16  C   UNL     1      17.647  52.514  49.823  1.00  0.00     0.007 A 
HETATM   17  C   UNL     1      16.291  52.821  49.933  1.00  0.00     0.001 A 
HETATM   18  C   UNL     1      15.459  52.721  48.819  1.00  0.00     0.000 A 
HETATM   19  C   UNL     1      15.983  52.315  47.593  1.00  0.00     0.001 A 
HETATM   20  C   UNL     1      17.340  52.010  47.481  1.00  0.00     0.007 A 
ENDBRANCH  14  15
ENDBRANCH  13  14
ENDBRANCH  10  13
ENDBRANCH   8   9
ENDBRANCH   7   8
ENDBRANCH   3   7
BRANCH   6  21
HETATM   21  C   UNL     1      26.435  45.599  52.869  1.00  0.00     0.125 A 
HETATM   22  O   UNL     1      27.307  44.562  53.082  1.00  0.00    -0.303 OA
HETATM   23  C   UNL     1      28.086  44.877  54.157  1.00  0.00     0.119 A 
HETATM   24  C   UNL     1      27.734  46.130  54.642  1.00  0.00     0.003 A 
HETATM   25  C   UNL     1      29.089  44.066  54.703  1.00  0.00     0.102 A 
HETATM   26  C   UNL     1      26.674  46.581  53.816  1.00  0.00     0.055 A 
HETATM   27  C   UNL     1      28.428  46.646  55.748  1.00  0.00     0.014 A 
HETATM   28  C   UNL     1      29.446  45.871  56.317  1.00  0.00     0.004 A 
HETATM   29  C   UNL     1      29.768  44.607  55.805  1.00  0.00     0.040 A 
BRANCH  25  30
HETATM   30  O   UNL     1      29.325  42.850  54.129  1.00  0.00    -0.353 OA
HETATM   31  C   UNL     1      30.240  42.823  53.041  1.00  0.00     0.210 C 
ENDBRANCH  25  30
ENDBRANCH   6  21
TORSDOF 8
ENDMDL
MODEL 10
REMARK VINA RESULT:      -7.8      5.009      7.949
REMARK  8 active torsions:
REMARK  status: ('A' for Active; 'I' for Inactive)
REMARK    1  A    between atoms: C_3  and  S_4 
REMARK    2  A    between atoms: S_4  and  C_5 
REMARK    3  A    between atoms: C_5  and  C_6 
REMARK       I    between atoms: C_6  and  N_7 
REMARK    4  A    between atoms: N_7  and  C_8 
REMARK    5  A    between atoms: C_8  and  C_9 
REMARK    6  A    between atoms: C_9  and  C_10 
REMARK    7  A    between atoms: C_19  and  C_20 
REMARK    8  A    between atoms: C_25  and  O_26 
ROOT
HETATM    1  C   UNL     1      20.697  48.500  47.554  1.00  0.00     0.160 C 
HETATM    2  N   UNL     1      20.612  49.550  48.535  1.00  0.00    -0.310 N 
HETATM    3  C   UNL     1      19.514  50.256  48.941  1.00  0.00     0.191 A 
HETATM    4  N   UNL     1      19.856  51.115  49.874  1.00  0.00    -0.122 NA
HETATM    5  N   UNL     1      21.207  51.007  50.068  1.00  0.00    -0.126 NA
HETATM    6  C   UNL     1      21.660  50.059  49.269  1.00  0.00     0.188 A 
ENDROOT
BRANCH   3   7
HETATM    7  S   UNL     1      17.922  50.062  48.297  1.00  0.00    -0.081 SA
BRANCH   7   8
HETATM    8  C   UNL     1      17.452  51.784  47.966  1.00  0.00     0.185 C 
BRANCH   8   9
HETATM    9  C   UNL     1      16.472  52.322  48.996  1.00  0.00     0.227 C 
HETATM   10  N   UNL     1      15.447  53.082  48.484  1.00  0.00    -0.360 N 
HETATM   11  H   UNL     1      15.366  53.176  47.472  1.00  0.00     0.162 HD
HETATM   12  O   UNL     1      16.626  52.133  50.201  1.00  0.00    -0.273 OA
BRANCH  10  13
HETATM   13  C   UNL     1      14.489  53.784  49.314  1.00  0.00     0.127 C 
BRANCH  13  14
HETATM   14  C   UNL     1      14.689  55.298  49.228  1.00  0.00     0.058 C 
BRANCH  14  15
HETATM   15  C   UNL     1      14.864  55.927  50.587  1.00  0.00    -0.057 A 
HETATM   16  C   UNL     1      14.781  55.147  51.747  1.00  0.00     0.007 A 
HETATM   17  C   UNL     1      14.935  55.733  53.004  1.00  0.00     0.001 A 
HETATM   18  C   UNL     1      15.166  57.103  53.113  1.00  0.00     0.000 A 
HETATM   19  C   UNL     1      15.242  57.890  51.964  1.00  0.00     0.001 A 
HETATM   20  C   UNL     1      15.090  57.305  50.707  1.00  0.00     0.007 A 
ENDBRANCH  14  15
ENDBRANCH  13  14
ENDBRANCH  10  13
ENDBRANCH   8   9
ENDBRANCH   7   8
ENDBRANCH   3   7
BRANCH   6  21
HETATM   21  C   UNL     1      23.030  49.656  49.204  1.00  0.00     0.125 A 
HETATM   22  O   UNL     1      23.508  48.499  49.762  1.00  0.00    -0.303 OA
HETATM   23  C   UNL     1      24.851  48.438  49.528  1.00  0.00     0.119 A 
HETATM   24  C   UNL     1      25.253  49.552  48.802  1.00  0.00     0.003 A 
HETATM   25  C   UNL     1      25.708  47.416  49.955  1.00  0.00     0.102 A 
HETATM   26  C   UNL     1      24.083  50.327  48.604  1.00  0.00     0.055 A 
HETATM   27  C   UNL     1      26.606  49.676  48.448  1.00  0.00     0.014 A 
HETATM   28  C   UNL     1      27.494  48.670  48.847  1.00  0.00     0.004 A 
HETATM   29  C   UNL     1      27.054  47.563  49.585  1.00  0.00     0.040 A 
BRANCH  25  30
HETATM   30  O   UNL     1      25.178  46.380  50.671  1.00  0.00    -0.353 OA
HETATM   31  C   UNL     1      25.089  45.125  50.009  1.00  0.00     0.210 C 
ENDBRANCH  25  30
ENDBRANCH   6  21
TORSDOF 8
ENDMDL
