MODEL 1
REMARK VINA RESULT:      -9.1      0.000      0.000
REMARK  5 active torsions:
REMARK  status: ('A' for Active; 'I' for Inactive)
REMARK    1  A    between atoms: C_2  and  C_3 
REMARK    2  A    between atoms: C_2  and  C_19 
REMARK       I    between atoms: C_3  and  N_4 
REMARK    3  A    between atoms: N_4  and  C_5 
REMARK    4  A    between atoms: C_8  and  O_9 
REMARK    5  A    between atoms: O_9  and  C_10 
ROOT
HETATM    1  C   UNL     1      27.162  44.277  52.686  1.00  0.00     0.234 C 
HETATM    2  N   UNL     1      26.002  45.037  52.761  1.00  0.00    -0.325 N 
HETATM    3  O   UNL     1      27.906  44.234  51.709  1.00  0.00    -0.272 OA
HETATM    4  H   UNL     1      25.538  45.068  53.661  1.00  0.00     0.169 HD
ENDROOT
BRANCH   2   5
HETATM    5  C   UNL     1      25.443  45.833  51.741  1.00  0.00     0.052 A 
HETATM    6  C   UNL     1      25.691  47.189  51.550  1.00  0.00     0.149 A 
HETATM    7  N   UNL     1      25.152  47.928  50.545  1.00  0.00    -0.235 NA
HETATM    8  C   UNL     1      24.330  47.289  49.688  1.00  0.00     0.169 A 
HETATM    9  C   UNL     1      24.007  45.946  49.799  1.00  0.00     0.060 A 
HETATM   10  C   UNL     1      24.578  45.210  50.837  1.00  0.00     0.035 A 
BRANCH   8  11
HETATM   11  O   UNL     1      23.713  47.988  48.659  1.00  0.00    -0.291 OA
BRANCH  11  12
HETATM   12  C   UNL     1      22.589  48.708  48.968  1.00  0.00     0.095 A 
HETATM   13  C   UNL     1      21.313  48.160  49.022  1.00  0.00     0.153 A 
HETATM   14  N   UNL     1      20.211  48.849  49.409  1.00  0.00    -0.270 NA
HETATM   15  C   UNL     1      20.398  50.144  49.747  1.00  0.00     0.116 A 
HETATM   16  C   UNL     1      21.634  50.775  49.735  1.00  0.00     0.022 A 
HETATM   17  C   UNL     1      22.750  50.036  49.349  1.00  0.00     0.040 A 
ENDBRANCH  11  12
ENDBRANCH   8  11
ENDBRANCH   2   5
BRANCH   1  18
HETATM   18  C   UNL     1      27.434  43.428  53.961  1.00  0.00     0.061 C 
HETATM   19  C   UNL     1      26.103  43.369  54.744  1.00  0.00     0.030 C 
HETATM   20  C   UNL     1      27.787  41.980  53.556  1.00  0.00     0.030 C 
BRANCH  18  21
HETATM   21  C   UNL     1      28.613  44.013  54.762  1.00  0.00    -0.038 A 
HETATM   22  C   UNL     1      29.756  43.265  55.090  1.00  0.00     0.050 A 
HETATM   23  C   UNL     1      30.791  43.841  55.825  1.00  0.00     0.117 A 
HETATM   24  F   UNL     1      31.865  43.102  56.132  1.00  0.00    -0.206 F 
HETATM   25  C   UNL     1      30.729  45.162  56.246  1.00  0.00     0.042 A 
HETATM   26  C   UNL     1      29.610  45.924  55.927  1.00  0.00     0.004 A 
HETATM   27  C   UNL     1      28.564  45.356  55.194  1.00  0.00     0.008 A 
ENDBRANCH  18  21
ENDBRANCH   1  18
TORSDOF 5
ENDMDL
MODEL 2
REMARK VINA RESULT:      -8.9      1.805      2.277
REMARK  5 active torsions:
REMARK  status: ('A' for Active; 'I' for Inactive)
REMARK    1  A    between atoms: C_2  and  C_3 
REMARK    2  A    between atoms: C_2  and  C_19 
REMARK       I    between atoms: C_3  and  N_4 
REMARK    3  A    between atoms: N_4  and  C_5 
REMARK    4  A    between atoms: C_8  and  O_9 
REMARK    5  A    between atoms: O_9  and  C_10 
ROOT
HETATM    1  C   UNL     1      27.184  43.820  53.054  1.00  0.00     0.234 C 
HETATM    2  N   UNL     1      27.265  44.602  51.909  1.00  0.00    -0.325 N 
HETATM    3  O   UNL     1      26.157  43.633  53.701  1.00  0.00    -0.272 OA
HETATM    4  H   UNL     1      28.147  44.587  51.411  1.00  0.00     0.169 HD
ENDROOT
BRANCH   2   5
HETATM    5  C   UNL     1      26.228  45.354  51.322  1.00  0.00     0.052 A 
HETATM    6  C   UNL     1      25.830  46.627  51.720  1.00  0.00     0.149 A 
HETATM    7  N   UNL     1      24.839  47.338  51.121  1.00  0.00    -0.235 NA
HETATM    8  C   UNL     1      24.215  46.758  50.076  1.00  0.00     0.169 A 
HETATM    9  C   UNL     1      24.525  45.490  49.611  1.00  0.00     0.060 A 
HETATM   10  C   UNL     1      25.549  44.784  50.241  1.00  0.00     0.035 A 
BRANCH   8  11
HETATM   11  O   UNL     1      23.167  47.409  49.438  1.00  0.00    -0.291 OA
BRANCH  11  12
HETATM   12  C   UNL     1      23.373  48.704  49.042  1.00  0.00     0.095 A 
HETATM   13  C   UNL     1      24.443  49.107  48.251  1.00  0.00     0.153 A 
HETATM   14  N   UNL     1      24.606  50.371  47.787  1.00  0.00    -0.270 NA
HETATM   15  C   UNL     1      23.658  51.267  48.139  1.00  0.00     0.116 A 
HETATM   16  C   UNL     1      22.550  50.957  48.913  1.00  0.00     0.022 A 
HETATM   17  C   UNL     1      22.402  49.647  49.361  1.00  0.00     0.040 A 
ENDBRANCH  11  12
ENDBRANCH   8  11
ENDBRANCH   2   5
BRANCH   1  18
HETATM   18  C   UNL     1      28.549  43.213  53.491  1.00  0.00     0.061 C 
HETATM   19  C   UNL     1      28.290  41.720  53.796  1.00  0.00     0.030 C 
HETATM   20  C   UNL     1      29.543  43.268  52.309  1.00  0.00     0.030 C 
BRANCH  18  21
HETATM   21  C   UNL     1      29.145  44.006  54.670  1.00  0.00    -0.038 A 
HETATM   22  C   UNL     1      28.505  45.120  55.238  1.00  0.00     0.050 A 
HETATM   23  C   UNL     1      29.092  45.807  56.299  1.00  0.00     0.117 A 
HETATM   24  F   UNL     1      28.464  46.872  56.815  1.00  0.00    -0.206 F 
HETATM   25  C   UNL     1      30.313  45.412  56.827  1.00  0.00     0.042 A 
HETATM   26  C   UNL     1      30.961  44.308  56.285  1.00  0.00     0.004 A 
HETATM   27  C   UNL     1      30.384  43.613  55.218  1.00  0.00     0.008 A 
ENDBRANCH  18  21
ENDBRANCH   1  18
TORSDOF 5
ENDMDL
MODEL 3
REMARK VINA RESULT:      -8.6      1.861      2.462
REMARK  5 active torsions:
REMARK  status: ('A' for Active; 'I' for Inactive)
REMARK    1  A    between atoms: C_2  and  C_3 
REMARK    2  A    between atoms: C_2  and  C_19 
REMARK       I    between atoms: C_3  and  N_4 
REMARK    3  A    between atoms: N_4  and  C_5 
REMARK    4  A    between atoms: C_8  and  O_9 
REMARK    5  A    between atoms: O_9  and  C_10 
ROOT
HETATM    1  C   UNL     1      28.226  43.729  52.652  1.00  0.00     0.234 C 
HETATM    2  N   UNL     1      26.943  44.172  52.944  1.00  0.00    -0.325 N 
HETATM    3  O   UNL     1      28.859  44.039  51.646  1.00  0.00    -0.272 OA
HETATM    4  H   UNL     1      26.576  43.930  53.856  1.00  0.00     0.169 HD
ENDROOT
BRANCH   2   5
HETATM    5  C   UNL     1      26.124  44.989  52.138  1.00  0.00     0.052 A 
HETATM    6  C   UNL     1      25.414  44.564  51.019  1.00  0.00     0.149 A 
HETATM    7  N   UNL     1      24.616  45.370  50.272  1.00  0.00    -0.235 NA
HETATM    8  C   UNL     1      24.515  46.658  50.656  1.00  0.00     0.169 A 
HETATM    9  C   UNL     1      25.191  47.184  51.745  1.00  0.00     0.060 A 
HETATM   10  C   UNL     1      26.001  46.334  52.497  1.00  0.00     0.035 A 
BRANCH   8  11
HETATM   11  O   UNL     1      23.747  47.550  49.918  1.00  0.00    -0.291 OA
BRANCH  11  12
HETATM   12  C   UNL     1      24.409  48.446  49.120  1.00  0.00     0.095 A 
HETATM   13  C   UNL     1      23.772  49.297  48.224  1.00  0.00     0.153 A 
HETATM   14  N   UNL     1      24.414  50.243  47.494  1.00  0.00    -0.270 NA
HETATM   15  C   UNL     1      25.751  50.331  47.667  1.00  0.00     0.116 A 
HETATM   16  C   UNL     1      26.472  49.535  48.545  1.00  0.00     0.022 A 
HETATM   17  C   UNL     1      25.782  48.584  49.293  1.00  0.00     0.040 A 
ENDBRANCH  11  12
ENDBRANCH   8  11
ENDBRANCH   2   5
BRANCH   1  18
HETATM   18  C   UNL     1      28.802  42.748  53.714  1.00  0.00     0.061 C 
HETATM   19  C   UNL     1      27.616  41.895  54.217  1.00  0.00     0.030 C 
HETATM   20  C   UNL     1      29.801  41.781  53.039  1.00  0.00     0.030 C 
BRANCH  18  21
HETATM   21  C   UNL     1      29.541  43.521  54.823  1.00  0.00    -0.038 A 
HETATM   22  C   UNL     1      30.647  42.993  55.510  1.00  0.00     0.050 A 
HETATM   23  C   UNL     1      31.274  43.732  56.512  1.00  0.00     0.117 A 
HETATM   24  F   UNL     1      32.321  43.200  57.158  1.00  0.00    -0.206 F 
HETATM   25  C   UNL     1      30.834  45.003  56.855  1.00  0.00     0.042 A 
HETATM   26  C   UNL     1      29.746  45.548  56.184  1.00  0.00     0.004 A 
HETATM   27  C   UNL     1      29.106  44.815  55.179  1.00  0.00     0.008 A 
ENDBRANCH  18  21
ENDBRANCH   1  18
TORSDOF 5
ENDMDL
MODEL 4
REMARK VINA RESULT:      -8.4      1.890      2.615
REMARK  5 active torsions:
REMARK  status: ('A' for Active; 'I' for Inactive)
REMARK    1  A    between atoms: C_2  and  C_3 
REMARK    2  A    between atoms: C_2  and  C_19 
REMARK       I    between atoms: C_3  and  N_4 
REMARK    3  A    between atoms: N_4  and  C_5 
REMARK    4  A    between atoms: C_8  and  O_9 
REMARK    5  A    between atoms: O_9  and  C_10 
ROOT
HETATM    1  C   UNL     1      26.714  44.706  50.403  1.00  0.00     0.234 C 
HETATM    2  N   UNL     1      25.533  45.384  50.677  1.00  0.00    -0.325 N 
HETATM    3  O   UNL     1      27.577  45.096  49.620  1.00  0.00    -0.272 OA
HETATM    4  H   UNL     1      24.958  45.009  51.422  1.00  0.00     0.169 HD
ENDROOT
BRANCH   2   5
HETATM    5  C   UNL     1      25.086  46.581  50.085  1.00  0.00     0.052 A 
HETATM    6  C   UNL     1      25.807  47.770  50.027  1.00  0.00     0.149 A 
HETATM    7  N   UNL     1      25.358  48.905  49.430  1.00  0.00    -0.235 NA
HETATM    8  C   UNL     1      24.136  48.857  48.863  1.00  0.00     0.169 A 
HETATM    9  C   UNL     1      23.333  47.728  48.879  1.00  0.00     0.060 A 
HETATM   10  C   UNL     1      23.820  46.575  49.493  1.00  0.00     0.035 A 
BRANCH   8  11
HETATM   11  O   UNL     1      23.596  49.990  48.268  1.00  0.00    -0.291 OA
BRANCH  11  12
HETATM   12  C   UNL     1      22.343  50.377  48.665  1.00  0.00     0.095 A 
HETATM   13  C   UNL     1      22.012  50.685  49.979  1.00  0.00     0.153 A 
HETATM   14  N   UNL     1      20.797  51.149  50.364  1.00  0.00    -0.270 NA
HETATM   15  C   UNL     1      19.875  51.302  49.388  1.00  0.00     0.116 A 
HETATM   16  C   UNL     1      20.115  51.032  48.048  1.00  0.00     0.022 A 
HETATM   17  C   UNL     1      21.378  50.573  47.683  1.00  0.00     0.040 A 
ENDBRANCH  11  12
ENDBRANCH   8  11
ENDBRANCH   2   5
BRANCH   1  18
HETATM   18  C   UNL     1      26.845  43.353  51.159  1.00  0.00     0.061 C 
HETATM   19  C   UNL     1      25.428  42.981  51.650  1.00  0.00     0.030 C 
HETATM   20  C   UNL     1      27.287  42.248  50.174  1.00  0.00     0.030 C 
BRANCH  18  21
HETATM   21  C   UNL     1      27.896  43.457  52.281  1.00  0.00    -0.038 A 
HETATM   22  C   UNL     1      27.748  44.312  53.385  1.00  0.00     0.050 A 
HETATM   23  C   UNL     1      28.733  44.374  54.370  1.00  0.00     0.117 A 
HETATM   24  F   UNL     1      28.570  45.205  55.407  1.00  0.00    -0.206 F 
HETATM   25  C   UNL     1      29.879  43.595  54.293  1.00  0.00     0.042 A 
HETATM   26  C   UNL     1      30.044  42.736  53.212  1.00  0.00     0.004 A 
HETATM   27  C   UNL     1      29.064  42.668  52.218  1.00  0.00     0.008 A 
ENDBRANCH  18  21
ENDBRANCH   1  18
TORSDOF 5
ENDMDL
MODEL 5
REMARK VINA RESULT:      -8.3      4.669      6.911
REMARK  5 active torsions:
REMARK  status: ('A' for Active; 'I' for Inactive)
REMARK    1  A    between atoms: C_2  and  C_3 
REMARK    2  A    between atoms: C_2  and  C_19 
REMARK       I    between atoms: C_3  and  N_4 
REMARK    3  A    between atoms: N_4  and  C_5 
REMARK    4  A    between atoms: C_8  and  O_9 
REMARK    5  A    between atoms: O_9  and  C_10 
ROOT
HETATM    1  C   UNL     1      27.347  43.781  52.583  1.00  0.00     0.234 C 
HETATM    2  N   UNL     1      26.895  42.469  52.560  1.00  0.00    -0.325 N 
HETATM    3  O   UNL     1      27.832  44.370  51.619  1.00  0.00    -0.272 OA
HETATM    4  H   UNL     1      26.419  42.139  53.391  1.00  0.00     0.169 HD
ENDROOT
BRANCH   2   5
HETATM    5  C   UNL     1      26.957  41.569  51.477  1.00  0.00     0.052 A 
HETATM    6  C   UNL     1      25.919  41.306  50.588  1.00  0.00     0.149 A 
HETATM    7  N   UNL     1      26.013  40.448  49.539  1.00  0.00    -0.235 NA
HETATM    8  C   UNL     1      27.195  39.823  49.363  1.00  0.00     0.169 A 
HETATM    9  C   UNL     1      28.285  40.004  50.200  1.00  0.00     0.060 A 
HETATM   10  C   UNL     1      28.162  40.894  51.266  1.00  0.00     0.035 A 
BRANCH   8  11
HETATM   11  O   UNL     1      27.354  38.903  48.335  1.00  0.00    -0.291 OA
BRANCH  11  12
HETATM   12  C   UNL     1      27.240  39.364  47.049  1.00  0.00     0.095 A 
HETATM   13  C   UNL     1      26.263  38.934  46.160  1.00  0.00     0.153 A 
HETATM   14  N   UNL     1      26.094  39.447  44.916  1.00  0.00    -0.270 NA
HETATM   15  C   UNL     1      26.948  40.428  44.550  1.00  0.00     0.116 A 
HETATM   16  C   UNL     1      27.946  40.932  45.371  1.00  0.00     0.022 A 
HETATM   17  C   UNL     1      28.083  40.395  46.649  1.00  0.00     0.040 A 
ENDBRANCH  11  12
ENDBRANCH   8  11
ENDBRANCH   2   5
BRANCH   1  18
HETATM   18  C   UNL     1      27.225  44.458  53.979  1.00  0.00     0.061 C 
HETATM   19  C   UNL     1      26.700  45.891  53.730  1.00  0.00     0.030 C 
HETATM   20  C   UNL     1      26.157  43.724  54.820  1.00  0.00     0.030 C 
BRANCH  18  21
HETATM   21  C   UNL     1      28.568  44.398  54.731  1.00  0.00    -0.038 A 
HETATM   22  C   UNL     1      28.971  45.383  55.648  1.00  0.00     0.050 A 
HETATM   23  C   UNL     1      30.201  45.285  56.296  1.00  0.00     0.117 A 
HETATM   24  F   UNL     1      30.564  46.243  57.160  1.00  0.00    -0.206 F 
HETATM   25  C   UNL     1      31.057  44.218  56.062  1.00  0.00     0.042 A 
HETATM   26  C   UNL     1      30.677  43.228  55.163  1.00  0.00     0.004 A 
HETATM   27  C   UNL     1      29.446  43.317  54.505  1.00  0.00     0.008 A 
ENDBRANCH  18  21
ENDBRANCH   1  18
TORSDOF 5
ENDMDL
MODEL 6
REMARK VINA RESULT:      -8.1      2.504      3.385
REMARK  5 active torsions:
REMARK  status: ('A' for Active; 'I' for Inactive)
REMARK    1  A    between atoms: C_2  and  C_3 
REMARK    2  A    between atoms: C_2  and  C_19 
REMARK       I    between atoms: C_3  and  N_4 
REMARK    3  A    between atoms: N_4  and  C_5 
REMARK    4  A    between atoms: C_8  and  O_9 
REMARK    5  A    between atoms: O_9  and  C_10 
ROOT
HETATM    1  C   UNL     1      25.099  44.931  51.321  1.00  0.00     0.234 C 
HETATM    2  N   UNL     1      25.252  45.818  50.264  1.00  0.00    -0.325 N 
HETATM    3  O   UNL     1      24.017  44.572  51.780  1.00  0.00    -0.272 OA
HETATM    4  H   UNL     1      26.194  45.946  49.913  1.00  0.00     0.169 HD
ENDROOT
BRANCH   2   5
HETATM    5  C   UNL     1      24.230  46.501  49.576  1.00  0.00     0.052 A 
HETATM    6  C   UNL     1      23.179  45.899  48.890  1.00  0.00     0.149 A 
HETATM    7  N   UNL     1      22.195  46.584  48.251  1.00  0.00    -0.235 NA
HETATM    8  C   UNL     1      22.256  47.930  48.297  1.00  0.00     0.169 A 
HETATM    9  C   UNL     1      23.267  48.626  48.940  1.00  0.00     0.060 A 
HETATM   10  C   UNL     1      24.262  47.898  49.592  1.00  0.00     0.035 A 
BRANCH   8  11
HETATM   11  O   UNL     1      21.305  48.697  47.635  1.00  0.00    -0.291 OA
BRANCH  11  12
HETATM   12  C   UNL     1      20.544  49.552  48.389  1.00  0.00     0.095 A 
HETATM   13  C   UNL     1      19.852  49.164  49.530  1.00  0.00     0.153 A 
HETATM   14  N   UNL     1      19.166  50.023  50.325  1.00  0.00    -0.270 NA
HETATM   15  C   UNL     1      19.172  51.322  49.954  1.00  0.00     0.116 A 
HETATM   16  C   UNL     1      19.843  51.805  48.840  1.00  0.00     0.022 A 
HETATM   17  C   UNL     1      20.552  50.901  48.052  1.00  0.00     0.040 A 
ENDBRANCH  11  12
ENDBRANCH   8  11
ENDBRANCH   2   5
BRANCH   1  18
HETATM   18  C   UNL     1      26.447  44.440  51.923  1.00  0.00     0.061 C 
HETATM   19  C   UNL     1      26.264  42.942  52.254  1.00  0.00     0.030 C 
HETATM   20  C   UNL     1      27.559  44.535  50.854  1.00  0.00     0.030 C 
BRANCH  18  21
HETATM   21  C   UNL     1      26.852  45.309  53.129  1.00  0.00    -0.038 A 
HETATM   22  C   UNL     1      26.199  46.510  53.455  1.00  0.00     0.050 A 
HETATM   23  C   UNL     1      26.611  47.262  54.554  1.00  0.00     0.117 A 
HETATM   24  F   UNL     1      25.977  48.408  54.836  1.00  0.00    -0.206 F 
HETATM   25  C   UNL     1      27.666  46.851  55.357  1.00  0.00     0.042 A 
HETATM   26  C   UNL     1      28.322  45.662  55.057  1.00  0.00     0.004 A 
HETATM   27  C   UNL     1      27.920  44.900  53.956  1.00  0.00     0.008 A 
ENDBRANCH  18  21
ENDBRANCH   1  18
TORSDOF 5
ENDMDL
MODEL 7
REMARK VINA RESULT:      -8.1      2.680      3.135
REMARK  5 active torsions:
REMARK  status: ('A' for Active; 'I' for Inactive)
REMARK    1  A    between atoms: C_2  and  C_3 
REMARK    2  A    between atoms: C_2  and  C_19 
REMARK       I    between atoms: C_3  and  N_4 
REMARK    3  A    between atoms: N_4  and  C_5 
REMARK    4  A    between atoms: C_8  and  O_9 
REMARK    5  A    between atoms: O_9  and  C_10 
ROOT
HETATM    1  C   UNL     1      27.567  43.526  52.203  1.00  0.00     0.234 C 
HETATM    2  N   UNL     1      26.299  42.977  52.336  1.00  0.00    -0.325 N 
HETATM    3  O   UNL     1      27.911  44.278  51.295  1.00  0.00    -0.272 OA
HETATM    4  H   UNL     1      26.115  42.460  53.187  1.00  0.00     0.169 HD
ENDROOT
BRANCH   2   5
HETATM    5  C   UNL     1      25.214  43.126  51.449  1.00  0.00     0.052 A 
HETATM    6  C   UNL     1      24.307  44.182  51.456  1.00  0.00     0.149 A 
HETATM    7  N   UNL     1      23.281  44.311  50.575  1.00  0.00    -0.235 NA
HETATM    8  C   UNL     1      23.151  43.347  49.641  1.00  0.00     0.169 A 
HETATM    9  C   UNL     1      23.991  42.249  49.557  1.00  0.00     0.060 A 
HETATM   10  C   UNL     1      25.039  42.143  50.471  1.00  0.00     0.035 A 
BRANCH   8  11
HETATM   11  O   UNL     1      22.103  43.393  48.731  1.00  0.00    -0.291 OA
BRANCH  11  12
HETATM   12  C   UNL     1      21.748  44.620  48.234  1.00  0.00     0.095 A 
HETATM   13  C   UNL     1      22.444  45.272  47.224  1.00  0.00     0.153 A 
HETATM   14  N   UNL     1      22.049  46.446  46.671  1.00  0.00    -0.270 NA
HETATM   15  C   UNL     1      20.912  46.989  47.160  1.00  0.00     0.116 A 
HETATM   16  C   UNL     1      20.144  46.406  48.158  1.00  0.00     0.022 A 
HETATM   17  C   UNL     1      20.567  45.193  48.693  1.00  0.00     0.040 A 
ENDBRANCH  11  12
ENDBRANCH   8  11
ENDBRANCH   2   5
BRANCH   1  18
HETATM   18  C   UNL     1      28.562  43.068  53.309  1.00  0.00     0.061 C 
HETATM   19  C   UNL     1      28.025  41.727  53.858  1.00  0.00     0.030 C 
HETATM   20  C   UNL     1      29.943  42.779  52.678  1.00  0.00     0.030 C 
BRANCH  18  21
HETATM   21  C   UNL     1      28.731  44.166  54.376  1.00  0.00    -0.038 A 
HETATM   22  C   UNL     1      29.827  44.211  55.254  1.00  0.00     0.050 A 
HETATM   23  C   UNL     1      29.927  45.223  56.208  1.00  0.00     0.117 A 
HETATM   24  F   UNL     1      30.978  45.237  57.039  1.00  0.00    -0.206 F 
HETATM   25  C   UNL     1      28.959  46.212  56.316  1.00  0.00     0.042 A 
HETATM   26  C   UNL     1      27.869  46.191  55.453  1.00  0.00     0.004 A 
HETATM   27  C   UNL     1      27.756  45.179  54.494  1.00  0.00     0.008 A 
ENDBRANCH  18  21
ENDBRANCH   1  18
TORSDOF 5
ENDMDL
MODEL 8
REMARK VINA RESULT:      -7.8      4.021      9.584
REMARK  5 active torsions:
REMARK  status: ('A' for Active; 'I' for Inactive)
REMARK    1  A    between atoms: C_2  and  C_3 
REMARK    2  A    between atoms: C_2  and  C_19 
REMARK       I    between atoms: C_3  and  N_4 
REMARK    3  A    between atoms: N_4  and  C_5 
REMARK    4  A    between atoms: C_8  and  O_9 
REMARK    5  A    between atoms: O_9  and  C_10 
ROOT
HETATM    1  C   UNL     1      22.749  49.248  48.726  1.00  0.00     0.234 C 
HETATM    2  N   UNL     1      23.097  48.324  49.702  1.00  0.00    -0.325 N 
HETATM    3  O   UNL     1      23.324  49.374  47.648  1.00  0.00    -0.272 OA
HETATM    4  H   UNL     1      22.476  48.250  50.499  1.00  0.00     0.169 HD
ENDROOT
BRANCH   2   5
HETATM    5  C   UNL     1      24.179  47.422  49.669  1.00  0.00     0.052 A 
HETATM    6  C   UNL     1      25.523  47.772  49.768  1.00  0.00     0.149 A 
HETATM    7  N   UNL     1      26.546  46.879  49.753  1.00  0.00    -0.235 NA
HETATM    8  C   UNL     1      26.219  45.576  49.636  1.00  0.00     0.169 A 
HETATM    9  C   UNL     1      24.915  45.125  49.516  1.00  0.00     0.060 A 
HETATM   10  C   UNL     1      23.884  46.063  49.539  1.00  0.00     0.035 A 
BRANCH   8  11
HETATM   11  O   UNL     1      27.214  44.608  49.575  1.00  0.00    -0.291 OA
BRANCH  11  12
HETATM   12  C   UNL     1      27.309  43.731  50.624  1.00  0.00     0.095 A 
HETATM   13  C   UNL     1      27.214  42.351  50.486  1.00  0.00     0.153 A 
HETATM   14  N   UNL     1      27.391  41.476  51.506  1.00  0.00    -0.270 NA
HETATM   15  C   UNL     1      27.668  42.010  52.716  1.00  0.00     0.116 A 
HETATM   16  C   UNL     1      27.795  43.372  52.949  1.00  0.00     0.022 A 
HETATM   17  C   UNL     1      27.624  44.244  51.878  1.00  0.00     0.040 A 
ENDBRANCH  11  12
ENDBRANCH   8  11
ENDBRANCH   2   5
BRANCH   1  18
HETATM   18  C   UNL     1      21.561  50.167  49.133  1.00  0.00     0.061 C 
HETATM   19  C   UNL     1      21.984  50.885  50.435  1.00  0.00     0.030 C 
HETATM   20  C   UNL     1      21.356  51.259  48.059  1.00  0.00     0.030 C 
BRANCH  18  21
HETATM   21  C   UNL     1      20.260  49.351  49.256  1.00  0.00    -0.038 A 
HETATM   22  C   UNL     1      19.772  48.536  48.221  1.00  0.00     0.050 A 
HETATM   23  C   UNL     1      18.585  47.824  48.381  1.00  0.00     0.117 A 
HETATM   24  F   UNL     1      18.138  47.062  47.374  1.00  0.00    -0.206 F 
HETATM   25  C   UNL     1      17.856  47.892  49.560  1.00  0.00     0.042 A 
HETATM   26  C   UNL     1      18.323  48.687  50.601  1.00  0.00     0.004 A 
HETATM   27  C   UNL     1      19.511  49.408  50.451  1.00  0.00     0.008 A 
ENDBRANCH  18  21
ENDBRANCH   1  18
TORSDOF 5
ENDMDL
MODEL 9
REMARK VINA RESULT:      -7.8      2.397      2.909
REMARK  5 active torsions:
REMARK  status: ('A' for Active; 'I' for Inactive)
REMARK    1  A    between atoms: C_2  and  C_3 
REMARK    2  A    between atoms: C_2  and  C_19 
REMARK       I    between atoms: C_3  and  N_4 
REMARK    3  A    between atoms: N_4  and  C_5 
REMARK    4  A    between atoms: C_8  and  O_9 
REMARK    5  A    between atoms: O_9  and  C_10 
ROOT
HETATM    1  C   UNL     1      27.829  43.640  52.338  1.00  0.00     0.234 C 
HETATM    2  N   UNL     1      26.443  43.710  52.389  1.00  0.00    -0.325 N 
HETATM    3  O   UNL     1      28.522  44.154  51.463  1.00  0.00    -0.272 OA
HETATM    4  H   UNL     1      26.001  43.337  53.220  1.00  0.00     0.169 HD
ENDROOT
BRANCH   2   5
HETATM    5  C   UNL     1      25.590  44.315  51.445  1.00  0.00     0.052 A 
HETATM    6  C   UNL     1      24.907  43.647  50.432  1.00  0.00     0.149 A 
HETATM    7  N   UNL     1      24.073  44.253  49.547  1.00  0.00    -0.235 NA
HETATM    8  C   UNL     1      23.908  45.585  49.676  1.00  0.00     0.169 A 
HETATM    9  C   UNL     1      24.552  46.344  50.639  1.00  0.00     0.060 A 
HETATM   10  C   UNL     1      25.399  45.696  51.538  1.00  0.00     0.035 A 
BRANCH   8  11
HETATM   11  O   UNL     1      23.101  46.279  48.783  1.00  0.00    -0.291 OA
BRANCH  11  12
HETATM   12  C   UNL     1      22.128  45.571  48.126  1.00  0.00     0.095 A 
HETATM   13  C   UNL     1      20.926  45.190  48.710  1.00  0.00     0.153 A 
HETATM   14  N   UNL     1      19.927  44.563  48.040  1.00  0.00    -0.270 NA
HETATM   15  C   UNL     1      20.150  44.302  46.733  1.00  0.00     0.116 A 
HETATM   16  C   UNL     1      21.312  44.654  46.062  1.00  0.00     0.022 A 
HETATM   17  C   UNL     1      22.312  45.312  46.772  1.00  0.00     0.040 A 
ENDBRANCH  11  12
ENDBRANCH   8  11
ENDBRANCH   2   5
BRANCH   1  18
HETATM   18  C   UNL     1      28.453  42.801  53.490  1.00  0.00     0.061 C 
HETATM   19  C   UNL     1      27.304  41.967  54.101  1.00  0.00     0.030 C 
HETATM   20  C   UNL     1      29.479  41.802  52.909  1.00  0.00     0.030 C 
BRANCH  18  21
HETATM   21  C   UNL     1      29.176  43.714  54.498  1.00  0.00    -0.038 A 
HETATM   22  C   UNL     1      30.355  43.333  55.161  1.00  0.00     0.050 A 
HETATM   23  C   UNL     1      30.965  44.196  56.070  1.00  0.00     0.117 A 
HETATM   24  F   UNL     1      32.083  43.803  56.695  1.00  0.00    -0.206 F 
HETATM   25  C   UNL     1      30.435  45.450  56.343  1.00  0.00     0.042 A 
HETATM   26  C   UNL     1      29.273  45.851  55.693  1.00  0.00     0.004 A 
HETATM   27  C   UNL     1      28.651  44.993  54.781  1.00  0.00     0.008 A 
ENDBRANCH  18  21
ENDBRANCH   1  18
TORSDOF 5
ENDMDL
MODEL 10
REMARK VINA RESULT:      -7.7     16.993     19.558
REMARK  5 active torsions:
REMARK  status: ('A' for Active; 'I' for Inactive)
REMARK    1  A    between atoms: C_2  and  C_3 
REMARK    2  A    between atoms: C_2  and  C_19 
REMARK       I    between atoms: C_3  and  N_4 
REMARK    3  A    between atoms: N_4  and  C_5 
REMARK    4  A    between atoms: C_8  and  O_9 
REMARK    5  A    between atoms: O_9  and  C_10 
ROOT
HETATM    1  C   UNL     1      38.253  46.725  64.986  1.00  0.00     0.234 C 
HETATM    2  N   UNL     1      37.816  46.005  63.881  1.00  0.00    -0.325 N 
HETATM    3  O   UNL     1      38.948  46.265  65.889  1.00  0.00    -0.272 OA
HETATM    4  H   UNL     1      37.341  46.530  63.157  1.00  0.00     0.169 HD
ENDROOT
BRANCH   2   5
HETATM    5  C   UNL     1      38.031  44.637  63.622  1.00  0.00     0.052 A 
HETATM    6  C   UNL     1      37.137  43.611  63.918  1.00  0.00     0.149 A 
HETATM    7  N   UNL     1      37.361  42.301  63.639  1.00  0.00    -0.235 NA
HETATM    8  C   UNL     1      38.527  41.995  63.035  1.00  0.00     0.169 A 
HETATM    9  C   UNL     1      39.489  42.938  62.712  1.00  0.00     0.060 A 
HETATM   10  C   UNL     1      39.232  44.276  63.005  1.00  0.00     0.035 A 
BRANCH   8  11
HETATM   11  O   UNL     1      38.842  40.672  62.753  1.00  0.00    -0.291 OA
BRANCH  11  12
HETATM   12  C   UNL     1      39.563  39.979  63.690  1.00  0.00     0.095 A 
HETATM   13  C   UNL     1      39.521  40.253  65.051  1.00  0.00     0.153 A 
HETATM   14  N   UNL     1      40.167  39.518  65.990  1.00  0.00    -0.270 NA
HETATM   15  C   UNL     1      40.890  38.469  65.540  1.00  0.00     0.116 A 
HETATM   16  C   UNL     1      40.982  38.110  64.204  1.00  0.00     0.022 A 
HETATM   17  C   UNL     1      40.294  38.874  63.265  1.00  0.00     0.040 A 
ENDBRANCH  11  12
ENDBRANCH   8  11
ENDBRANCH   2   5
BRANCH   1  18
HETATM   18  C   UNL     1      37.745  48.196  65.011  1.00  0.00     0.061 C 
HETATM   19  C   UNL     1      38.982  49.094  64.784  1.00  0.00     0.030 C 
HETATM   20  C   UNL     1      36.788  48.435  63.822  1.00  0.00     0.030 C 
BRANCH  18  21
HETATM   21  C   UNL     1      36.984  48.486  66.319  1.00  0.00    -0.038 A 
HETATM   22  C   UNL     1      37.362  49.505  67.208  1.00  0.00     0.050 A 
HETATM   23  C   UNL     1      36.643  49.720  68.383  1.00  0.00     0.117 A 
HETATM   24  F   UNL     1      37.030  50.694  69.218  1.00  0.00    -0.206 F 
HETATM   25  C   UNL     1      35.538  48.944  68.706  1.00  0.00     0.042 A 
HETATM   26  C   UNL     1      35.143  47.933  67.837  1.00  0.00     0.004 A 
HETATM   27  C   UNL     1      35.858  47.706  66.657  1.00  0.00     0.008 A 
ENDBRANCH  18  21
ENDBRANCH   1  18
TORSDOF 5
ENDMDL
