MODEL 1
REMARK VINA RESULT:      -8.9      0.000      0.000
REMARK  10 active torsions:
REMARK  status: ('A' for Active; 'I' for Inactive)
REMARK    1  A    between atoms: C_7  and  N_8 
REMARK    2  A    between atoms: C_9  and  S_10 
REMARK    3  A    between atoms: S_10  and  C_11 
REMARK    4  A    between atoms: C_11  and  C_12 
REMARK       I    between atoms: C_12  and  N_13 
REMARK    5  A    between atoms: N_13  and  C_14 
REMARK    6  A    between atoms: C_14  and  C_15 
REMARK    7  A    between atoms: C_15  and  C_16 
REMARK    8  A    between atoms: C_18  and  O_19 
REMARK    9  A    between atoms: C_21  and  O_22 
REMARK   10  A    between atoms: C_30  and  N_31 
ROOT
HETATM    1  N   UNL     1      25.750  45.933  51.074  1.00  0.00    -0.276 N 
HETATM    2  C   UNL     1      25.583  44.628  50.533  1.00  0.00     0.177 A 
HETATM    3  N   UNL     1      25.948  43.507  51.108  1.00  0.00    -0.204 NA
HETATM    4  C   UNL     1      26.497  43.670  52.331  1.00  0.00     0.162 A 
HETATM    5  C   UNL     1      26.731  44.821  53.029  1.00  0.00     0.081 A 
HETATM    6  C   UNL     1      26.382  46.052  52.386  1.00  0.00     0.124 A 
HETATM    7  N   UNL     1      26.912  42.661  53.150  1.00  0.00    -0.260 N 
HETATM    8  H   UNL     1      26.887  41.664  52.971  1.00  0.00     0.191 HD
HETATM    9  N   UNL     1      27.394  43.105  54.331  1.00  0.00    -0.177 NA
HETATM   10  C   UNL     1      27.271  44.441  54.267  1.00  0.00     0.068 A 
HETATM   11  C   UNL     1      27.681  45.266  55.428  1.00  0.00     0.073 C 
ENDROOT
BRANCH   2  12
HETATM   12  S   UNL     1      24.762  44.408  48.973  1.00  0.00    -0.082 SA
BRANCH  12  13
HETATM   13  C   UNL     1      23.142  43.826  49.549  1.00  0.00     0.185 C 
BRANCH  13  14
HETATM   14  C   UNL     1      22.020  44.215  48.597  1.00  0.00     0.227 C 
HETATM   15  N   UNL     1      21.549  45.501  48.814  1.00  0.00    -0.360 N 
HETATM   16  H   UNL     1      21.815  45.973  49.668  1.00  0.00     0.162 HD
HETATM   17  O   UNL     1      21.536  43.466  47.755  1.00  0.00    -0.273 OA
BRANCH  15  18
HETATM   18  C   UNL     1      20.407  46.018  48.075  1.00  0.00     0.127 C 
BRANCH  18  19
HETATM   19  C   UNL     1      20.770  47.294  47.316  1.00  0.00     0.058 C 
BRANCH  19  20
HETATM   20  C   UNL     1      20.317  48.547  48.022  1.00  0.00    -0.054 A 
HETATM   21  C   UNL     1      19.777  48.474  49.315  1.00  0.00     0.046 A 
HETATM   22  C   UNL     1      19.339  49.630  49.975  1.00  0.00     0.102 A 
HETATM   23  C   UNL     1      19.447  50.880  49.334  1.00  0.00     0.101 A 
HETATM   24  C   UNL     1      20.006  50.953  48.054  1.00  0.00     0.040 A 
HETATM   25  C   UNL     1      20.437  49.794  47.404  1.00  0.00     0.010 A 
BRANCH  22  26
HETATM   26  O   UNL     1      18.788  49.644  51.233  1.00  0.00    -0.353 OA
HETATM   27  C   UNL     1      18.494  48.394  51.839  1.00  0.00     0.210 C 
ENDBRANCH  22  26
BRANCH  23  28
HETATM   28  O   UNL     1      18.994  51.965  50.044  1.00  0.00    -0.353 OA
HETATM   29  C   UNL     1      17.742  52.520  49.668  1.00  0.00     0.210 C 
ENDBRANCH  23  28
ENDBRANCH  19  20
ENDBRANCH  18  19
ENDBRANCH  15  18
ENDBRANCH  13  14
ENDBRANCH  12  13
ENDBRANCH   2  12
BRANCH   1  30
HETATM   30  C   UNL     1      25.323  47.104  50.379  1.00  0.00     0.043 A 
HETATM   31  C   UNL     1      23.963  47.387  50.195  1.00  0.00     0.032 A 
HETATM   32  C   UNL     1      23.567  48.490  49.436  1.00  0.00     0.026 A 
HETATM   33  C   UNL     1      24.521  49.314  48.836  1.00  0.00     0.040 A 
HETATM   34  C   UNL     1      25.890  49.051  48.997  1.00  0.00    -0.038 A 
HETATM   35 CL   UNL     1      23.963  50.642  47.886  1.00  0.00    -0.084 Cl
HETATM   36  C   UNL     1      26.943  49.913  48.356  1.00  0.00     0.050 C 
HETATM   37  C   UNL     1      26.276  47.946  49.775  1.00  0.00     0.038 A 
ENDBRANCH   1  30
BRANCH   6  38
HETATM   38  N   UNL     1      26.668  47.213  52.944  1.00  0.00    -0.384 N 
HETATM   39  H   UNL     1      25.958  47.907  53.125  1.00  0.00     0.157 HD
HETATM   40  H   UNL     1      27.615  47.415  53.241  1.00  0.00     0.157 HD
ENDBRANCH   6  38
TORSDOF 10
ENDMDL
MODEL 2
REMARK VINA RESULT:      -8.7      3.237      8.577
REMARK  10 active torsions:
REMARK  status: ('A' for Active; 'I' for Inactive)
REMARK    1  A    between atoms: C_7  and  N_8 
REMARK    2  A    between atoms: C_9  and  S_10 
REMARK    3  A    between atoms: S_10  and  C_11 
REMARK    4  A    between atoms: C_11  and  C_12 
REMARK       I    between atoms: C_12  and  N_13 
REMARK    5  A    between atoms: N_13  and  C_14 
REMARK    6  A    between atoms: C_14  and  C_15 
REMARK    7  A    between atoms: C_15  and  C_16 
REMARK    8  A    between atoms: C_18  and  O_19 
REMARK    9  A    between atoms: C_21  and  O_22 
REMARK   10  A    between atoms: C_30  and  N_31 
ROOT
HETATM    1  N   UNL     1      22.059  48.748  48.945  1.00  0.00    -0.276 N 
HETATM    2  C   UNL     1      21.436  47.569  48.448  1.00  0.00     0.177 A 
HETATM    3  N   UNL     1      20.144  47.365  48.355  1.00  0.00    -0.204 NA
HETATM    4  C   UNL     1      19.392  48.413  48.753  1.00  0.00     0.162 A 
HETATM    5  C   UNL     1      19.786  49.626  49.244  1.00  0.00     0.081 A 
HETATM    6  C   UNL     1      21.195  49.837  49.396  1.00  0.00     0.124 A 
HETATM    7  N   UNL     1      18.030  48.468  48.709  1.00  0.00    -0.260 N 
HETATM    8  H   UNL     1      17.388  47.750  48.393  1.00  0.00     0.191 HD
HETATM    9  N   UNL     1      17.535  49.649  49.140  1.00  0.00    -0.177 NA
HETATM   10  C   UNL     1      18.620  50.374  49.459  1.00  0.00     0.068 A 
HETATM   11  C   UNL     1      18.448  51.763  49.946  1.00  0.00     0.073 C 
ENDROOT
BRANCH   2  12
HETATM   12  S   UNL     1      22.428  46.234  47.822  1.00  0.00    -0.082 SA
BRANCH  12  13
HETATM   13  C   UNL     1      21.518  44.820  48.503  1.00  0.00     0.185 C 
BRANCH  13  14
HETATM   14  C   UNL     1      22.420  43.879  49.289  1.00  0.00     0.227 C 
HETATM   15  N   UNL     1      23.247  44.545  50.181  1.00  0.00    -0.360 N 
HETATM   16  H   UNL     1      23.340  45.548  50.094  1.00  0.00     0.162 HD
HETATM   17  O   UNL     1      22.460  42.664  49.129  1.00  0.00    -0.273 OA
BRANCH  15  18
HETATM   18  C   UNL     1      24.254  43.829  50.949  1.00  0.00     0.127 C 
BRANCH  18  19
HETATM   19  C   UNL     1      24.691  44.632  52.175  1.00  0.00     0.058 C 
BRANCH  19  20
HETATM   20  C   UNL     1      25.941  44.088  52.818  1.00  0.00    -0.054 A 
HETATM   21  C   UNL     1      26.714  43.121  52.158  1.00  0.00     0.046 A 
HETATM   22  C   UNL     1      27.870  42.598  52.753  1.00  0.00     0.102 A 
HETATM   23  C   UNL     1      28.262  43.052  54.028  1.00  0.00     0.101 A 
HETATM   24  C   UNL     1      27.503  44.032  54.675  1.00  0.00     0.040 A 
HETATM   25  C   UNL     1      26.351  44.546  54.074  1.00  0.00     0.010 A 
BRANCH  22  26
HETATM   26  O   UNL     1      28.672  41.642  52.181  1.00  0.00    -0.353 OA
HETATM   27  C   UNL     1      28.195  40.991  51.013  1.00  0.00     0.210 C 
ENDBRANCH  22  26
BRANCH  23  28
HETATM   28  O   UNL     1      29.404  42.490  54.545  1.00  0.00    -0.353 OA
HETATM   29  C   UNL     1      30.454  43.367  54.925  1.00  0.00     0.210 C 
ENDBRANCH  23  28
ENDBRANCH  19  20
ENDBRANCH  18  19
ENDBRANCH  15  18
ENDBRANCH  13  14
ENDBRANCH  12  13
ENDBRANCH   2  12
BRANCH   1  30
HETATM   30  C   UNL     1      23.477  48.888  49.013  1.00  0.00     0.043 A 
HETATM   31  C   UNL     1      24.168  49.735  48.137  1.00  0.00     0.032 A 
HETATM   32  C   UNL     1      25.563  49.790  48.161  1.00  0.00     0.026 A 
HETATM   33  C   UNL     1      26.287  48.989  49.046  1.00  0.00     0.040 A 
HETATM   34  C   UNL     1      25.622  48.125  49.929  1.00  0.00    -0.038 A 
HETATM   35 CL   UNL     1      28.010  49.083  49.002  1.00  0.00    -0.084 Cl
HETATM   36  C   UNL     1      26.372  47.242  50.888  1.00  0.00     0.050 C 
HETATM   37  C   UNL     1      24.217  48.090  49.906  1.00  0.00     0.038 A 
ENDBRANCH   1  30
BRANCH   6  38
HETATM   38  N   UNL     1      21.658  50.938  49.957  1.00  0.00    -0.384 N 
HETATM   39  H   UNL     1      21.179  51.389  50.722  1.00  0.00     0.157 HD
HETATM   40  H   UNL     1      22.538  51.333  49.650  1.00  0.00     0.157 HD
ENDBRANCH   6  38
TORSDOF 10
ENDMDL
MODEL 3
REMARK VINA RESULT:      -8.7      3.563      8.806
REMARK  10 active torsions:
REMARK  status: ('A' for Active; 'I' for Inactive)
REMARK    1  A    between atoms: C_7  and  N_8 
REMARK    2  A    between atoms: C_9  and  S_10 
REMARK    3  A    between atoms: S_10  and  C_11 
REMARK    4  A    between atoms: C_11  and  C_12 
REMARK       I    between atoms: C_12  and  N_13 
REMARK    5  A    between atoms: N_13  and  C_14 
REMARK    6  A    between atoms: C_14  and  C_15 
REMARK    7  A    between atoms: C_15  and  C_16 
REMARK    8  A    between atoms: C_18  and  O_19 
REMARK    9  A    between atoms: C_21  and  O_22 
REMARK   10  A    between atoms: C_30  and  N_31 
ROOT
HETATM    1  N   UNL     1      21.994  48.472  48.957  1.00  0.00    -0.276 N 
HETATM    2  C   UNL     1      21.442  47.278  48.416  1.00  0.00     0.177 A 
HETATM    3  N   UNL     1      20.164  47.010  48.292  1.00  0.00    -0.204 NA
HETATM    4  C   UNL     1      19.352  48.007  48.706  1.00  0.00     0.162 A 
HETATM    5  C   UNL     1      19.674  49.224  49.238  1.00  0.00     0.081 A 
HETATM    6  C   UNL     1      21.068  49.502  49.423  1.00  0.00     0.124 A 
HETATM    7  N   UNL     1      17.989  47.993  48.638  1.00  0.00    -0.260 N 
HETATM    8  H   UNL     1      17.391  47.254  48.290  1.00  0.00     0.191 HD
HETATM    9  N   UNL     1      17.427  49.135  49.092  1.00  0.00    -0.177 NA
HETATM   10  C   UNL     1      18.468  49.905  49.452  1.00  0.00     0.068 A 
HETATM   11  C   UNL     1      18.216  51.269  49.975  1.00  0.00     0.073 C 
ENDROOT
BRANCH   2  12
HETATM   12  S   UNL     1      22.512  46.014  47.771  1.00  0.00    -0.082 SA
BRANCH  12  13
HETATM   13  C   UNL     1      22.580  44.899  49.202  1.00  0.00     0.185 C 
BRANCH  13  14
HETATM   14  C   UNL     1      24.007  44.508  49.559  1.00  0.00     0.227 C 
HETATM   15  N   UNL     1      24.137  44.080  50.871  1.00  0.00    -0.360 N 
HETATM   16  H   UNL     1      23.374  44.254  51.512  1.00  0.00     0.162 HD
HETATM   17  O   UNL     1      24.962  44.602  48.795  1.00  0.00    -0.273 OA
BRANCH  15  18
HETATM   18  C   UNL     1      25.441  43.762  51.432  1.00  0.00     0.127 C 
BRANCH  18  19
HETATM   19  C   UNL     1      25.461  43.976  52.946  1.00  0.00     0.058 C 
BRANCH  19  20
HETATM   20  C   UNL     1      26.851  43.925  53.528  1.00  0.00    -0.054 A 
HETATM   21  C   UNL     1      27.366  45.027  54.228  1.00  0.00     0.046 A 
HETATM   22  C   UNL     1      28.662  44.997  54.761  1.00  0.00     0.102 A 
HETATM   23  C   UNL     1      29.455  43.844  54.594  1.00  0.00     0.101 A 
HETATM   24  C   UNL     1      28.933  42.740  53.914  1.00  0.00     0.040 A 
HETATM   25  C   UNL     1      27.640  42.781  53.386  1.00  0.00     0.010 A 
BRANCH  22  26
HETATM   26  O   UNL     1      29.243  46.034  55.447  1.00  0.00    -0.353 OA
HETATM   27  C   UNL     1      28.876  46.216  56.806  1.00  0.00     0.210 C 
ENDBRANCH  22  26
BRANCH  23  28
HETATM   28  O   UNL     1      30.714  43.892  55.142  1.00  0.00    -0.353 OA
HETATM   29  C   UNL     1      30.950  43.127  56.314  1.00  0.00     0.210 C 
ENDBRANCH  23  28
ENDBRANCH  19  20
ENDBRANCH  18  19
ENDBRANCH  15  18
ENDBRANCH  13  14
ENDBRANCH  12  13
ENDBRANCH   2  12
BRANCH   1  30
HETATM   30  C   UNL     1      23.402  48.682  49.055  1.00  0.00     0.043 A 
HETATM   31  C   UNL     1      24.071  49.552  48.185  1.00  0.00     0.032 A 
HETATM   32  C   UNL     1      25.461  49.676  48.240  1.00  0.00     0.026 A 
HETATM   33  C   UNL     1      26.202  48.920  49.151  1.00  0.00     0.040 A 
HETATM   34  C   UNL     1      25.560  48.034  50.029  1.00  0.00    -0.038 A 
HETATM   35 CL   UNL     1      27.918  49.099  49.144  1.00  0.00    -0.084 Cl
HETATM   36  C   UNL     1      26.329  47.199  51.015  1.00  0.00     0.050 C 
HETATM   37  C   UNL     1      24.159  47.930  49.974  1.00  0.00     0.038 A 
ENDBRANCH   1  30
BRANCH   6  38
HETATM   38  N   UNL     1      21.464  50.608  50.023  1.00  0.00    -0.384 N 
HETATM   39  H   UNL     1      21.386  50.730  51.021  1.00  0.00     0.157 HD
HETATM   40  H   UNL     1      21.896  51.350  49.486  1.00  0.00     0.157 HD
ENDBRANCH   6  38
TORSDOF 10
ENDMDL
MODEL 4
REMARK VINA RESULT:      -8.6      5.197      9.139
REMARK  10 active torsions:
REMARK  status: ('A' for Active; 'I' for Inactive)
REMARK    1  A    between atoms: C_7  and  N_8 
REMARK    2  A    between atoms: C_9  and  S_10 
REMARK    3  A    between atoms: S_10  and  C_11 
REMARK    4  A    between atoms: C_11  and  C_12 
REMARK       I    between atoms: C_12  and  N_13 
REMARK    5  A    between atoms: N_13  and  C_14 
REMARK    6  A    between atoms: C_14  and  C_15 
REMARK    7  A    between atoms: C_15  and  C_16 
REMARK    8  A    between atoms: C_18  and  O_19 
REMARK    9  A    between atoms: C_21  and  O_22 
REMARK   10  A    between atoms: C_30  and  N_31 
ROOT
HETATM    1  N   UNL     1      24.261  43.789  49.066  1.00  0.00    -0.276 N 
HETATM    2  C   UNL     1      24.982  42.690  48.523  1.00  0.00     0.177 A 
HETATM    3  N   UNL     1      24.547  41.869  47.597  1.00  0.00    -0.204 NA
HETATM    4  C   UNL     1      23.312  42.164  47.138  1.00  0.00     0.162 A 
HETATM    5  C   UNL     1      22.466  43.170  47.511  1.00  0.00     0.081 A 
HETATM    6  C   UNL     1      22.914  44.040  48.558  1.00  0.00     0.124 A 
HETATM    7  N   UNL     1      22.659  41.494  46.145  1.00  0.00    -0.260 N 
HETATM    8  H   UNL     1      22.982  40.688  45.621  1.00  0.00     0.191 HD
HETATM    9  N   UNL     1      21.447  42.020  45.862  1.00  0.00    -0.177 NA
HETATM   10  C   UNL     1      21.329  43.067  46.696  1.00  0.00     0.068 A 
HETATM   11  C   UNL     1      20.112  43.910  46.636  1.00  0.00     0.073 C 
ENDROOT
BRANCH   2  12
HETATM   12  S   UNL     1      26.649  42.370  49.050  1.00  0.00    -0.082 SA
BRANCH  12  13
HETATM   13  C   UNL     1      26.472  40.662  49.636  1.00  0.00     0.185 C 
BRANCH  13  14
HETATM   14  C   UNL     1      27.439  40.337  50.766  1.00  0.00     0.227 C 
HETATM   15  N   UNL     1      27.160  41.033  51.932  1.00  0.00    -0.360 N 
HETATM   16  H   UNL     1      26.515  41.811  51.886  1.00  0.00     0.162 HD
HETATM   17  O   UNL     1      28.400  39.583  50.658  1.00  0.00    -0.273 OA
BRANCH  15  18
HETATM   18  C   UNL     1      28.034  40.937  53.092  1.00  0.00     0.127 C 
BRANCH  18  19
HETATM   19  C   UNL     1      29.289  41.790  52.912  1.00  0.00     0.058 C 
BRANCH  19  20
HETATM   20  C   UNL     1      29.334  42.974  53.844  1.00  0.00    -0.054 A 
HETATM   21  C   UNL     1      30.391  43.117  54.756  1.00  0.00     0.046 A 
HETATM   22  C   UNL     1      30.435  44.205  55.638  1.00  0.00     0.102 A 
HETATM   23  C   UNL     1      29.408  45.169  55.605  1.00  0.00     0.101 A 
HETATM   24  C   UNL     1      28.367  45.036  54.681  1.00  0.00     0.040 A 
HETATM   25  C   UNL     1      28.331  43.946  53.807  1.00  0.00     0.010 A 
BRANCH  22  26
HETATM   26  O   UNL     1      31.425  44.411  56.567  1.00  0.00    -0.353 OA
HETATM   27  C   UNL     1      31.904  43.283  57.284  1.00  0.00     0.210 C 
ENDBRANCH  22  26
BRANCH  23  28
HETATM   28  O   UNL     1      29.520  46.204  56.501  1.00  0.00    -0.353 OA
HETATM   29  C   UNL     1      28.764  46.118  57.700  1.00  0.00     0.210 C 
ENDBRANCH  23  28
ENDBRANCH  19  20
ENDBRANCH  18  19
ENDBRANCH  15  18
ENDBRANCH  13  14
ENDBRANCH  12  13
ENDBRANCH   2  12
BRANCH   1  30
HETATM   30  C   UNL     1      24.811  44.635  50.076  1.00  0.00     0.043 A 
HETATM   31  C   UNL     1      24.638  44.350  51.437  1.00  0.00     0.032 A 
HETATM   32  C   UNL     1      25.108  45.236  52.409  1.00  0.00     0.026 A 
HETATM   33  C   UNL     1      25.740  46.424  52.035  1.00  0.00     0.040 A 
HETATM   34  C   UNL     1      25.919  46.739  50.680  1.00  0.00    -0.038 A 
HETATM   35 CL   UNL     1      26.268  47.489  53.287  1.00  0.00    -0.084 Cl
HETATM   36  C   UNL     1      26.586  48.014  50.244  1.00  0.00     0.050 C 
HETATM   37  C   UNL     1      25.455  45.832  49.712  1.00  0.00     0.038 A 
ENDBRANCH   1  30
BRANCH   6  38
HETATM   38  N   UNL     1      22.121  44.973  49.049  1.00  0.00    -0.384 N 
HETATM   39  H   UNL     1      21.126  44.833  49.141  1.00  0.00     0.157 HD
HETATM   40  H   UNL     1      22.510  45.846  49.384  1.00  0.00     0.157 HD
ENDBRANCH   6  38
TORSDOF 10
ENDMDL
MODEL 5
REMARK VINA RESULT:      -8.5      2.978      5.446
REMARK  10 active torsions:
REMARK  status: ('A' for Active; 'I' for Inactive)
REMARK    1  A    between atoms: C_7  and  N_8 
REMARK    2  A    between atoms: C_9  and  S_10 
REMARK    3  A    between atoms: S_10  and  C_11 
REMARK    4  A    between atoms: C_11  and  C_12 
REMARK       I    between atoms: C_12  and  N_13 
REMARK    5  A    between atoms: N_13  and  C_14 
REMARK    6  A    between atoms: C_14  and  C_15 
REMARK    7  A    between atoms: C_15  and  C_16 
REMARK    8  A    between atoms: C_18  and  O_19 
REMARK    9  A    between atoms: C_21  and  O_22 
REMARK   10  A    between atoms: C_30  and  N_31 
ROOT
HETATM    1  N   UNL     1      25.622  44.751  50.952  1.00  0.00    -0.276 N 
HETATM    2  C   UNL     1      25.359  45.987  50.298  1.00  0.00     0.177 A 
HETATM    3  N   UNL     1      24.557  46.158  49.274  1.00  0.00    -0.204 NA
HETATM    4  C   UNL     1      23.934  45.029  48.870  1.00  0.00     0.162 A 
HETATM    5  C   UNL     1      24.035  43.759  49.364  1.00  0.00     0.081 A 
HETATM    6  C   UNL     1      24.948  43.556  50.449  1.00  0.00     0.124 A 
HETATM    7  N   UNL     1      23.019  44.952  47.862  1.00  0.00    -0.260 N 
HETATM    8  H   UNL     1      22.682  45.701  47.268  1.00  0.00     0.191 HD
HETATM    9  N   UNL     1      22.529  43.705  47.688  1.00  0.00    -0.177 NA
HETATM   10  C   UNL     1      23.146  42.965  48.626  1.00  0.00     0.068 A 
HETATM   11  C   UNL     1      22.817  41.526  48.748  1.00  0.00     0.073 C 
ENDROOT
BRANCH   2  12
HETATM   12  S   UNL     1      26.094  47.488  50.900  1.00  0.00    -0.082 SA
BRANCH  12  13
HETATM   13  C   UNL     1      26.980  48.025  49.409  1.00  0.00     0.185 C 
BRANCH  13  14
HETATM   14  C   UNL     1      26.293  49.196  48.722  1.00  0.00     0.227 C 
HETATM   15  N   UNL     1      24.910  49.095  48.736  1.00  0.00    -0.360 N 
HETATM   16  H   UNL     1      24.495  48.208  48.990  1.00  0.00     0.162 HD
HETATM   17  O   UNL     1      26.884  50.115  48.165  1.00  0.00    -0.273 OA
BRANCH  15  18
HETATM   18  C   UNL     1      24.079  50.064  48.038  1.00  0.00     0.127 C 
BRANCH  18  19
HETATM   19  C   UNL     1      23.249  50.891  49.020  1.00  0.00     0.058 C 
BRANCH  19  20
HETATM   20  C   UNL     1      21.778  50.563  48.968  1.00  0.00    -0.054 A 
HETATM   21  C   UNL     1      21.330  49.269  49.272  1.00  0.00     0.046 A 
HETATM   22  C   UNL     1      19.967  48.948  49.212  1.00  0.00     0.102 A 
HETATM   23  C   UNL     1      19.036  49.940  48.846  1.00  0.00     0.101 A 
HETATM   24  C   UNL     1      19.482  51.235  48.564  1.00  0.00     0.040 A 
HETATM   25  C   UNL     1      20.843  51.543  48.625  1.00  0.00     0.010 A 
BRANCH  22  26
HETATM   26  O   UNL     1      19.450  47.706  49.482  1.00  0.00    -0.353 OA
HETATM   27  C   UNL     1      19.816  46.636  48.624  1.00  0.00     0.210 C 
ENDBRANCH  22  26
BRANCH  23  28
HETATM   28  O   UNL     1      17.720  49.549  48.808  1.00  0.00    -0.353 OA
HETATM   29  C   UNL     1      17.146  49.300  47.533  1.00  0.00     0.210 C 
ENDBRANCH  23  28
ENDBRANCH  19  20
ENDBRANCH  18  19
ENDBRANCH  15  18
ENDBRANCH  13  14
ENDBRANCH  12  13
ENDBRANCH   2  12
BRANCH   1  30
HETATM   30  C   UNL     1      26.513  44.654  52.063  1.00  0.00     0.043 A 
HETATM   31  C   UNL     1      26.268  45.348  53.254  1.00  0.00     0.032 A 
HETATM   32  C   UNL     1      27.196  45.311  54.297  1.00  0.00     0.026 A 
HETATM   33  C   UNL     1      28.387  44.595  54.158  1.00  0.00     0.040 A 
HETATM   34  C   UNL     1      28.662  43.897  52.972  1.00  0.00    -0.038 A 
HETATM   35 CL   UNL     1      29.504  44.616  55.473  1.00  0.00    -0.084 Cl
HETATM   36  C   UNL     1      29.940  43.125  52.786  1.00  0.00     0.050 C 
HETATM   37  C   UNL     1      27.714  43.930  51.936  1.00  0.00     0.038 A 
ENDBRANCH   1  30
BRANCH   6  38
HETATM   38  N   UNL     1      25.184  42.345  50.918  1.00  0.00    -0.384 N 
HETATM   39  H   UNL     1      26.000  41.818  50.646  1.00  0.00     0.157 HD
HETATM   40  H   UNL     1      24.559  41.935  51.601  1.00  0.00     0.157 HD
ENDBRANCH   6  38
TORSDOF 10
ENDMDL
MODEL 6
REMARK VINA RESULT:      -8.3      3.406      4.935
REMARK  10 active torsions:
REMARK  status: ('A' for Active; 'I' for Inactive)
REMARK    1  A    between atoms: C_7  and  N_8 
REMARK    2  A    between atoms: C_9  and  S_10 
REMARK    3  A    between atoms: S_10  and  C_11 
REMARK    4  A    between atoms: C_11  and  C_12 
REMARK       I    between atoms: C_12  and  N_13 
REMARK    5  A    between atoms: N_13  and  C_14 
REMARK    6  A    between atoms: C_14  and  C_15 
REMARK    7  A    between atoms: C_15  and  C_16 
REMARK    8  A    between atoms: C_18  and  O_19 
REMARK    9  A    between atoms: C_21  and  O_22 
REMARK   10  A    between atoms: C_30  and  N_31 
ROOT
HETATM    1  N   UNL     1      27.388  42.846  51.852  1.00  0.00    -0.276 N 
HETATM    2  C   UNL     1      26.678  44.079  51.895  1.00  0.00     0.177 A 
HETATM    3  N   UNL     1      26.873  45.046  52.760  1.00  0.00    -0.204 NA
HETATM    4  C   UNL     1      27.865  44.802  53.642  1.00  0.00     0.162 A 
HETATM    5  C   UNL     1      28.668  43.703  53.763  1.00  0.00     0.081 A 
HETATM    6  C   UNL     1      28.427  42.622  52.854  1.00  0.00     0.124 A 
HETATM    7  N   UNL     1      28.292  45.667  54.607  1.00  0.00    -0.260 N 
HETATM    8  H   UNL     1      27.936  46.593  54.816  1.00  0.00     0.191 HD
HETATM    9  N   UNL     1      29.324  45.182  55.332  1.00  0.00    -0.177 NA
HETATM   10  C   UNL     1      29.569  43.971  54.803  1.00  0.00     0.068 A 
HETATM   11  C   UNL     1      30.680  43.153  55.344  1.00  0.00     0.073 C 
ENDROOT
BRANCH   2  12
HETATM   12  S   UNL     1      25.448  44.443  50.666  1.00  0.00    -0.082 SA
BRANCH  12  13
HETATM   13  C   UNL     1      24.751  45.968  51.360  1.00  0.00     0.185 C 
BRANCH  13  14
HETATM   14  C   UNL     1      24.982  47.170  50.455  1.00  0.00     0.227 C 
HETATM   15  N   UNL     1      23.802  47.772  50.045  1.00  0.00    -0.360 N 
HETATM   16  H   UNL     1      22.933  47.275  50.189  1.00  0.00     0.162 HD
HETATM   17  O   UNL     1      26.085  47.549  50.076  1.00  0.00    -0.273 OA
BRANCH  15  18
HETATM   18  C   UNL     1      23.811  48.872  49.092  1.00  0.00     0.127 C 
BRANCH  18  19
HETATM   19  C   UNL     1      22.610  48.798  48.149  1.00  0.00     0.058 C 
BRANCH  19  20
HETATM   20  C   UNL     1      21.363  49.409  48.736  1.00  0.00    -0.054 A 
HETATM   21  C   UNL     1      20.291  48.593  49.126  1.00  0.00     0.046 A 
HETATM   22  C   UNL     1      19.121  49.151  49.658  1.00  0.00     0.102 A 
HETATM   23  C   UNL     1      19.023  50.548  49.808  1.00  0.00     0.101 A 
HETATM   24  C   UNL     1      20.101  51.359  49.438  1.00  0.00     0.040 A 
HETATM   25  C   UNL     1      21.262  50.792  48.907  1.00  0.00     0.010 A 
BRANCH  22  26
HETATM   26  O   UNL     1      18.024  48.424  50.052  1.00  0.00    -0.353 OA
HETATM   27  C   UNL     1      17.362  47.643  49.069  1.00  0.00     0.210 C 
ENDBRANCH  22  26
BRANCH  23  28
HETATM   28  O   UNL     1      17.845  51.019  50.334  1.00  0.00    -0.353 OA
HETATM   29  C   UNL     1      17.232  52.124  49.686  1.00  0.00     0.210 C 
ENDBRANCH  23  28
ENDBRANCH  19  20
ENDBRANCH  18  19
ENDBRANCH  15  18
ENDBRANCH  13  14
ENDBRANCH  12  13
ENDBRANCH   2  12
BRANCH   1  30
HETATM   30  C   UNL     1      27.111  41.845  50.874  1.00  0.00     0.043 A 
HETATM   31  C   UNL     1      26.295  40.745  51.169  1.00  0.00     0.032 A 
HETATM   32  C   UNL     1      26.109  39.731  50.226  1.00  0.00     0.026 A 
HETATM   33  C   UNL     1      26.747  39.793  48.986  1.00  0.00     0.040 A 
HETATM   34  C   UNL     1      27.576  40.879  48.666  1.00  0.00    -0.038 A 
HETATM   35 CL   UNL     1      26.498  38.491  47.881  1.00  0.00    -0.084 Cl
HETATM   36  C   UNL     1      28.286  40.971  47.344  1.00  0.00     0.050 C 
HETATM   37  C   UNL     1      27.744  41.900  49.617  1.00  0.00     0.038 A 
ENDBRANCH   1  30
BRANCH   6  38
HETATM   38  N   UNL     1      29.086  41.484  52.965  1.00  0.00    -0.384 N 
HETATM   39  H   UNL     1      29.930  41.407  53.513  1.00  0.00     0.157 HD
HETATM   40  H   UNL     1      28.727  40.644  52.526  1.00  0.00     0.157 HD
ENDBRANCH   6  38
TORSDOF 10
ENDMDL
MODEL 7
REMARK VINA RESULT:      -8.0     10.435     13.672
REMARK  10 active torsions:
REMARK  status: ('A' for Active; 'I' for Inactive)
REMARK    1  A    between atoms: C_7  and  N_8 
REMARK    2  A    between atoms: C_9  and  S_10 
REMARK    3  A    between atoms: S_10  and  C_11 
REMARK    4  A    between atoms: C_11  and  C_12 
REMARK       I    between atoms: C_12  and  N_13 
REMARK    5  A    between atoms: N_13  and  C_14 
REMARK    6  A    between atoms: C_14  and  C_15 
REMARK    7  A    between atoms: C_15  and  C_16 
REMARK    8  A    between atoms: C_18  and  O_19 
REMARK    9  A    between atoms: C_21  and  O_22 
REMARK   10  A    between atoms: C_30  and  N_31 
ROOT
HETATM    1  N   UNL     1      26.702  48.569  39.983  1.00  0.00    -0.276 N 
HETATM    2  C   UNL     1      26.665  48.630  38.562  1.00  0.00     0.177 A 
HETATM    3  N   UNL     1      27.094  49.627  37.826  1.00  0.00    -0.204 NA
HETATM    4  C   UNL     1      27.633  50.641  38.535  1.00  0.00     0.162 A 
HETATM    5  C   UNL     1      27.777  50.773  39.888  1.00  0.00     0.081 A 
HETATM    6  C   UNL     1      27.265  49.710  40.701  1.00  0.00     0.124 A 
HETATM    7  N   UNL     1      28.192  51.767  38.003  1.00  0.00    -0.260 N 
HETATM    8  H   UNL     1      28.275  52.017  37.025  1.00  0.00     0.191 HD
HETATM    9  N   UNL     1      28.686  52.605  38.941  1.00  0.00    -0.177 NA
HETATM   10  C   UNL     1      28.444  51.987  40.109  1.00  0.00     0.068 A 
HETATM   11  C   UNL     1      28.891  52.620  41.372  1.00  0.00     0.073 C 
ENDROOT
BRANCH   2  12
HETATM   12  S   UNL     1      26.055  47.249  37.626  1.00  0.00    -0.082 SA
BRANCH  12  13
HETATM   13  C   UNL     1      27.597  46.687  36.852  1.00  0.00     0.185 C 
BRANCH  13  14
HETATM   14  C   UNL     1      28.665  46.342  37.879  1.00  0.00     0.227 C 
HETATM   15  N   UNL     1      29.475  47.421  38.199  1.00  0.00    -0.360 N 
HETATM   16  H   UNL     1      29.440  48.241  37.608  1.00  0.00     0.162 HD
HETATM   17  O   UNL     1      28.838  45.222  38.348  1.00  0.00    -0.273 OA
BRANCH  15  18
HETATM   18  C   UNL     1      30.619  47.266  39.085  1.00  0.00     0.127 C 
BRANCH  18  19
HETATM   19  C   UNL     1      30.483  48.146  40.327  1.00  0.00     0.058 C 
BRANCH  19  20
HETATM   20  C   UNL     1      31.206  49.463  40.196  1.00  0.00    -0.054 A 
HETATM   21  C   UNL     1      31.685  50.123  41.338  1.00  0.00     0.046 A 
HETATM   22  C   UNL     1      32.345  51.355  41.230  1.00  0.00     0.102 A 
HETATM   23  C   UNL     1      32.533  51.933  39.959  1.00  0.00     0.101 A 
HETATM   24  C   UNL     1      32.073  51.264  38.821  1.00  0.00     0.040 A 
HETATM   25  C   UNL     1      31.415  50.037  38.940  1.00  0.00     0.010 A 
BRANCH  22  26
HETATM   26  O   UNL     1      32.832  52.070  42.296  1.00  0.00    -0.353 OA
HETATM   27  C   UNL     1      32.393  51.701  43.595  1.00  0.00     0.210 C 
ENDBRANCH  22  26
BRANCH  23  28
HETATM   28  O   UNL     1      33.185  53.142  39.936  1.00  0.00    -0.353 OA
HETATM   29  C   UNL     1      34.490  53.173  39.376  1.00  0.00     0.210 C 
ENDBRANCH  23  28
ENDBRANCH  19  20
ENDBRANCH  18  19
ENDBRANCH  15  18
ENDBRANCH  13  14
ENDBRANCH  12  13
ENDBRANCH   2  12
BRANCH   1  30
HETATM   30  C   UNL     1      26.211  47.441  40.708  1.00  0.00     0.043 A 
HETATM   31  C   UNL     1      27.065  46.407  41.110  1.00  0.00     0.032 A 
HETATM   32  C   UNL     1      26.551  45.271  41.740  1.00  0.00     0.026 A 
HETATM   33  C   UNL     1      25.178  45.146  41.960  1.00  0.00     0.040 A 
HETATM   34  C   UNL     1      24.299  46.163  41.561  1.00  0.00    -0.038 A 
HETATM   35 CL   UNL     1      24.607  43.703  42.716  1.00  0.00    -0.084 Cl
HETATM   36  C   UNL     1      22.814  46.056  41.775  1.00  0.00     0.050 C 
HETATM   37  C   UNL     1      24.830  47.307  40.942  1.00  0.00     0.038 A 
ENDBRANCH   1  30
BRANCH   6  38
HETATM   38  N   UNL     1      27.269  49.802  42.017  1.00  0.00    -0.384 N 
HETATM   39  H   UNL     1      27.857  50.461  42.504  1.00  0.00     0.157 HD
HETATM   40  H   UNL     1      26.642  49.228  42.569  1.00  0.00     0.157 HD
ENDBRANCH   6  38
TORSDOF 10
ENDMDL
MODEL 8
REMARK VINA RESULT:      -8.0      3.397      5.788
REMARK  10 active torsions:
REMARK  status: ('A' for Active; 'I' for Inactive)
REMARK    1  A    between atoms: C_7  and  N_8 
REMARK    2  A    between atoms: C_9  and  S_10 
REMARK    3  A    between atoms: S_10  and  C_11 
REMARK    4  A    between atoms: C_11  and  C_12 
REMARK       I    between atoms: C_12  and  N_13 
REMARK    5  A    between atoms: N_13  and  C_14 
REMARK    6  A    between atoms: C_14  and  C_15 
REMARK    7  A    between atoms: C_15  and  C_16 
REMARK    8  A    between atoms: C_18  and  O_19 
REMARK    9  A    between atoms: C_21  and  O_22 
REMARK   10  A    between atoms: C_30  and  N_31 
ROOT
HETATM    1  N   UNL     1      27.975  43.157  52.092  1.00  0.00    -0.276 N 
HETATM    2  C   UNL     1      27.124  43.809  51.157  1.00  0.00     0.177 A 
HETATM    3  N   UNL     1      26.739  43.323  50.001  1.00  0.00    -0.204 NA
HETATM    4  C   UNL     1      27.201  42.080  49.746  1.00  0.00     0.162 A 
HETATM    5  C   UNL     1      28.009  41.283  50.507  1.00  0.00     0.081 A 
HETATM    6  C   UNL     1      28.474  41.828  51.748  1.00  0.00     0.124 A 
HETATM    7  N   UNL     1      26.906  41.340  48.638  1.00  0.00    -0.260 N 
HETATM    8  H   UNL     1      26.323  41.603  47.852  1.00  0.00     0.191 HD
HETATM    9  N   UNL     1      27.477  40.116  48.654  1.00  0.00    -0.177 NA
HETATM   10  C   UNL     1      28.151  40.071  49.816  1.00  0.00     0.068 A 
HETATM   11  C   UNL     1      28.884  38.837  50.183  1.00  0.00     0.073 C 
ENDROOT
BRANCH   2  12
HETATM   12  S   UNL     1      26.429  45.398  51.542  1.00  0.00    -0.082 SA
BRANCH  12  13
HETATM   13  C   UNL     1      26.622  46.224  49.937  1.00  0.00     0.185 C 
BRANCH  13  14
HETATM   14  C   UNL     1      26.002  47.614  49.926  1.00  0.00     0.227 C 
HETATM   15  N   UNL     1      26.554  48.443  48.962  1.00  0.00    -0.360 N 
HETATM   16  H   UNL     1      27.415  48.156  48.515  1.00  0.00     0.162 HD
HETATM   17  O   UNL     1      25.141  47.993  50.712  1.00  0.00    -0.273 OA
BRANCH  15  18
HETATM   18  C   UNL     1      26.167  49.843  48.864  1.00  0.00     0.127 C 
BRANCH  18  19
HETATM   19  C   UNL     1      25.099  50.049  47.790  1.00  0.00     0.058 C 
BRANCH  19  20
HETATM   20  C   UNL     1      23.695  49.932  48.327  1.00  0.00    -0.054 A 
HETATM   21  C   UNL     1      22.942  48.771  48.093  1.00  0.00     0.046 A 
HETATM   22  C   UNL     1      21.631  48.658  48.575  1.00  0.00     0.102 A 
HETATM   23  C   UNL     1      21.064  49.721  49.305  1.00  0.00     0.101 A 
HETATM   24  C   UNL     1      21.824  50.868  49.555  1.00  0.00     0.040 A 
HETATM   25  C   UNL     1      23.130  50.972  49.069  1.00  0.00     0.010 A 
BRANCH  22  26
HETATM   26  O   UNL     1      20.825  47.564  48.379  1.00  0.00    -0.353 OA
HETATM   27  C   UNL     1      20.976  46.839  47.168  1.00  0.00     0.210 C 
ENDBRANCH  22  26
BRANCH  23  28
HETATM   28  O   UNL     1      19.775  49.536  49.741  1.00  0.00    -0.353 OA
HETATM   29  C   UNL     1      19.027  50.692  50.089  1.00  0.00     0.210 C 
ENDBRANCH  23  28
ENDBRANCH  19  20
ENDBRANCH  18  19
ENDBRANCH  15  18
ENDBRANCH  13  14
ENDBRANCH  12  13
ENDBRANCH   2  12
BRANCH   1  30
HETATM   30  C   UNL     1      28.345  43.760  53.331  1.00  0.00     0.043 A 
HETATM   31  C   UNL     1      27.627  44.841  53.857  1.00  0.00     0.032 A 
HETATM   32  C   UNL     1      28.059  45.474  55.026  1.00  0.00     0.026 A 
HETATM   33  C   UNL     1      29.220  45.047  55.673  1.00  0.00     0.040 A 
HETATM   34  C   UNL     1      29.963  43.972  55.164  1.00  0.00    -0.038 A 
HETATM   35 CL   UNL     1      29.713  45.893  57.094  1.00  0.00    -0.084 Cl
HETATM   36  C   UNL     1      31.223  43.493  55.831  1.00  0.00     0.050 C 
HETATM   37  C   UNL     1      29.511  43.334  53.996  1.00  0.00     0.038 A 
ENDBRANCH   1  30
BRANCH   6  38
HETATM   38  N   UNL     1      29.339  41.168  52.495  1.00  0.00    -0.384 N 
HETATM   39  H   UNL     1      29.997  41.643  53.095  1.00  0.00     0.157 HD
HETATM   40  H   UNL     1      29.330  40.155  52.509  1.00  0.00     0.157 HD
ENDBRANCH   6  38
TORSDOF 10
ENDMDL
MODEL 9
REMARK VINA RESULT:      -8.0      2.762      4.450
REMARK  10 active torsions:
REMARK  status: ('A' for Active; 'I' for Inactive)
REMARK    1  A    between atoms: C_7  and  N_8 
REMARK    2  A    between atoms: C_9  and  S_10 
REMARK    3  A    between atoms: S_10  and  C_11 
REMARK    4  A    between atoms: C_11  and  C_12 
REMARK       I    between atoms: C_12  and  N_13 
REMARK    5  A    between atoms: N_13  and  C_14 
REMARK    6  A    between atoms: C_14  and  C_15 
REMARK    7  A    between atoms: C_15  and  C_16 
REMARK    8  A    between atoms: C_18  and  O_19 
REMARK    9  A    between atoms: C_21  and  O_22 
REMARK   10  A    between atoms: C_30  and  N_31 
ROOT
HETATM    1  N   UNL     1      26.823  44.688  52.372  1.00  0.00    -0.276 N 
HETATM    2  C   UNL     1      26.409  46.027  52.616  1.00  0.00     0.177 A 
HETATM    3  N   UNL     1      26.842  46.799  53.585  1.00  0.00    -0.204 NA
HETATM    4  C   UNL     1      27.782  46.225  54.366  1.00  0.00     0.162 A 
HETATM    5  C   UNL     1      28.321  44.971  54.294  1.00  0.00     0.081 A 
HETATM    6  C   UNL     1      27.816  44.105  53.270  1.00  0.00     0.124 A 
HETATM    7  N   UNL     1      28.422  46.833  55.406  1.00  0.00    -0.260 N 
HETATM    8  H   UNL     1      28.289  47.776  55.753  1.00  0.00     0.191 HD
HETATM    9  N   UNL     1      29.341  46.038  55.997  1.00  0.00    -0.177 NA
HETATM   10  C   UNL     1      29.291  44.888  55.304  1.00  0.00     0.068 A 
HETATM   11  C   UNL     1      30.207  43.781  55.666  1.00  0.00     0.073 C 
ENDROOT
BRANCH   2  12
HETATM   12  S   UNL     1      25.254  46.817  51.522  1.00  0.00    -0.082 SA
BRANCH  12  13
HETATM   13  C   UNL     1      26.353  47.203  50.130  1.00  0.00     0.185 C 
BRANCH  13  14
HETATM   14  C   UNL     1      25.915  48.454  49.380  1.00  0.00     0.227 C 
HETATM   15  N   UNL     1      24.543  48.518  49.192  1.00  0.00    -0.360 N 
HETATM   16  H   UNL     1      23.994  47.685  49.361  1.00  0.00     0.162 HD
HETATM   17  O   UNL     1      26.684  49.300  48.938  1.00  0.00    -0.273 OA
BRANCH  15  18
HETATM   18  C   UNL     1      23.941  49.585  48.407  1.00  0.00     0.127 C 
BRANCH  18  19
HETATM   19  C   UNL     1      23.083  50.500  49.281  1.00  0.00     0.058 C 
BRANCH  19  20
HETATM   20  C   UNL     1      21.609  50.374  48.994  1.00  0.00    -0.054 A 
HETATM   21  C   UNL     1      20.945  49.159  49.220  1.00  0.00     0.046 A 
HETATM   22  C   UNL     1      19.578  49.026  48.943  1.00  0.00     0.102 A 
HETATM   23  C   UNL     1      18.861  50.127  48.435  1.00  0.00     0.101 A 
HETATM   24  C   UNL     1      19.520  51.344  48.230  1.00  0.00     0.040 A 
HETATM   25  C   UNL     1      20.883  51.465  48.509  1.00  0.00     0.010 A 
BRANCH  22  26
HETATM   26  O   UNL     1      18.859  47.870  49.124  1.00  0.00    -0.353 OA
HETATM   27  C   UNL     1      19.357  46.681  48.530  1.00  0.00     0.210 C 
ENDBRANCH  22  26
BRANCH  23  28
HETATM   28  O   UNL     1      17.527  49.918  48.186  1.00  0.00    -0.353 OA
HETATM   29  C   UNL     1      16.603  50.851  48.727  1.00  0.00     0.210 C 
ENDBRANCH  23  28
ENDBRANCH  19  20
ENDBRANCH  18  19
ENDBRANCH  15  18
ENDBRANCH  13  14
ENDBRANCH  12  13
ENDBRANCH   2  12
BRANCH   1  30
HETATM   30  C   UNL     1      26.298  43.916  51.291  1.00  0.00     0.043 A 
HETATM   31  C   UNL     1      27.101  43.544  50.206  1.00  0.00     0.032 A 
HETATM   32  C   UNL     1      26.547  42.866  49.117  1.00  0.00     0.026 A 
HETATM   33  C   UNL     1      25.183  42.566  49.091  1.00  0.00     0.040 A 
HETATM   34  C   UNL     1      24.354  42.934  50.161  1.00  0.00    -0.038 A 
HETATM   35 CL   UNL     1      24.559  41.754  47.703  1.00  0.00    -0.084 Cl
HETATM   36  C   UNL     1      22.880  42.635  50.160  1.00  0.00     0.050 C 
HETATM   37  C   UNL     1      24.926  43.603  51.257  1.00  0.00     0.038 A 
ENDBRANCH   1  30
BRANCH   6  38
HETATM   38  N   UNL     1      28.206  42.847  53.194  1.00  0.00    -0.384 N 
HETATM   39  H   UNL     1      27.591  42.117  52.867  1.00  0.00     0.157 HD
HETATM   40  H   UNL     1      29.157  42.594  53.431  1.00  0.00     0.157 HD
ENDBRANCH   6  38
TORSDOF 10
ENDMDL
MODEL 10
REMARK VINA RESULT:      -8.0      4.246      9.628
REMARK  10 active torsions:
REMARK  status: ('A' for Active; 'I' for Inactive)
REMARK    1  A    between atoms: C_7  and  N_8 
REMARK    2  A    between atoms: C_9  and  S_10 
REMARK    3  A    between atoms: S_10  and  C_11 
REMARK    4  A    between atoms: C_11  and  C_12 
REMARK       I    between atoms: C_12  and  N_13 
REMARK    5  A    between atoms: N_13  and  C_14 
REMARK    6  A    between atoms: C_14  and  C_15 
REMARK    7  A    between atoms: C_15  and  C_16 
REMARK    8  A    between atoms: C_18  and  O_19 
REMARK    9  A    between atoms: C_21  and  O_22 
REMARK   10  A    between atoms: C_30  and  N_31 
ROOT
HETATM    1  N   UNL     1      20.922  47.190  47.593  1.00  0.00    -0.276 N 
HETATM    2  C   UNL     1      22.064  47.006  48.421  1.00  0.00     0.177 A 
HETATM    3  N   UNL     1      22.619  47.922  49.178  1.00  0.00    -0.204 NA
HETATM    4  C   UNL     1      21.988  49.116  49.147  1.00  0.00     0.162 A 
HETATM    5  C   UNL     1      20.882  49.494  48.440  1.00  0.00     0.081 A 
HETATM    6  C   UNL     1      20.301  48.513  47.572  1.00  0.00     0.124 A 
HETATM    7  N   UNL     1      22.339  50.212  49.880  1.00  0.00    -0.260 N 
HETATM    8  H   UNL     1      23.111  50.305  50.530  1.00  0.00     0.191 HD
HETATM    9  N   UNL     1      21.516  51.265  49.681  1.00  0.00    -0.177 NA
HETATM   10  C   UNL     1      20.604  50.820  48.800  1.00  0.00     0.068 A 
HETATM   11  C   UNL     1      19.507  51.721  48.372  1.00  0.00     0.073 C 
ENDROOT
BRANCH   2  12
HETATM   12  S   UNL     1      22.827  45.406  48.543  1.00  0.00    -0.082 SA
BRANCH  12  13
HETATM   13  C   UNL     1      24.283  45.827  49.543  1.00  0.00     0.185 C 
BRANCH  13  14
HETATM   14  C   UNL     1      24.528  44.818  50.655  1.00  0.00     0.227 C 
HETATM   15  N   UNL     1      25.859  44.747  51.036  1.00  0.00    -0.360 N 
HETATM   16  H   UNL     1      26.554  45.180  50.442  1.00  0.00     0.162 HD
HETATM   17  O   UNL     1      23.661  44.098  51.141  1.00  0.00    -0.273 OA
BRANCH  15  18
HETATM   18  C   UNL     1      26.311  43.768  52.013  1.00  0.00     0.127 C 
BRANCH  18  19
HETATM   19  C   UNL     1      27.790  43.433  51.819  1.00  0.00     0.058 C 
BRANCH  19  20
HETATM   20  C   UNL     1      28.611  43.656  53.065  1.00  0.00    -0.054 A 
HETATM   21  C   UNL     1      28.246  44.651  53.983  1.00  0.00     0.046 A 
HETATM   22  C   UNL     1      29.010  44.878  55.136  1.00  0.00     0.102 A 
HETATM   23  C   UNL     1      30.155  44.092  55.377  1.00  0.00     0.101 A 
HETATM   24  C   UNL     1      30.504  43.086  54.471  1.00  0.00     0.040 A 
HETATM   25  C   UNL     1      29.737  42.870  53.323  1.00  0.00     0.010 A 
BRANCH  22  26
HETATM   26  O   UNL     1      28.730  45.838  56.077  1.00  0.00    -0.353 OA
HETATM   27  C   UNL     1      27.877  46.907  55.696  1.00  0.00     0.210 C 
ENDBRANCH  22  26
BRANCH  23  28
HETATM   28  O   UNL     1      30.852  44.376  56.526  1.00  0.00    -0.353 OA
HETATM   29  C   UNL     1      31.680  43.353  57.061  1.00  0.00     0.210 C 
ENDBRANCH  23  28
ENDBRANCH  19  20
ENDBRANCH  18  19
ENDBRANCH  15  18
ENDBRANCH  13  14
ENDBRANCH  12  13
ENDBRANCH   2  12
BRANCH   1  30
HETATM   30  C   UNL     1      20.381  46.135  46.798  1.00  0.00     0.043 A 
HETATM   31  C   UNL     1      19.442  45.238  47.321  1.00  0.00     0.032 A 
HETATM   32  C   UNL     1      18.992  44.160  46.556  1.00  0.00     0.026 A 
HETATM   33  C   UNL     1      19.486  43.954  45.266  1.00  0.00     0.040 A 
HETATM   34  C   UNL     1      20.434  44.833  44.720  1.00  0.00    -0.038 A 
HETATM   35 CL   UNL     1      18.911  42.585  44.387  1.00  0.00    -0.084 Cl
HETATM   36  C   UNL     1      20.994  44.634  43.338  1.00  0.00     0.050 C 
HETATM   37  C   UNL     1      20.867  45.922  45.495  1.00  0.00     0.038 A 
ENDBRANCH   1  30
BRANCH   6  38
HETATM   38  N   UNL     1      19.295  48.823  46.777  1.00  0.00    -0.384 N 
HETATM   39  H   UNL     1      19.429  49.002  45.793  1.00  0.00     0.157 HD
HETATM   40  H   UNL     1      18.349  48.849  47.139  1.00  0.00     0.157 HD
ENDBRANCH   6  38
TORSDOF 10
ENDMDL
