MODEL 1
REMARK VINA RESULT:      -9.8      0.000      0.000
REMARK  5 active torsions:
REMARK  status: ('A' for Active; 'I' for Inactive)
REMARK    1  A    between atoms: C_6  and  N_7 
REMARK       I    between atoms: N_7  and  C_8 
REMARK       I    between atoms: C_8  and  N_9 
REMARK    2  A    between atoms: N_9  and  C_10 
REMARK    3  A    between atoms: C_10  and  C_11 
REMARK    4  A    between atoms: C_14  and  N_15 
REMARK       I    between atoms: N_15  and  C_16 
REMARK    5  A    between atoms: C_16  and  C_17 
ROOT
HETATM    1  C   UNL     1      26.076  45.559  49.793  1.00  0.00    -0.040 A 
HETATM    2  C   UNL     1      26.325  46.928  49.939  1.00  0.00     0.011 A 
HETATM    3  C   UNL     1      25.284  47.858  49.850  1.00  0.00     0.030 A 
HETATM    4  C   UNL     1      23.974  47.437  49.628  1.00  0.00     0.035 A 
HETATM    5  C   UNL     1      23.723  46.068  49.478  1.00  0.00     0.030 A 
HETATM    6  C   UNL     1      24.762  45.136  49.560  1.00  0.00     0.011 A 
ENDROOT
BRANCH   1   7
HETATM    7  C   UNL     1      27.188  44.558  49.961  1.00  0.00     0.162 C 
BRANCH   7   8
HETATM    8  N   UNL     1      26.825  43.556  50.939  1.00  0.00    -0.339 N 
HETATM    9  C   UNL     1      27.422  43.251  52.125  1.00  0.00     0.320 C 
HETATM   10  N   UNL     1      28.304  44.179  52.605  1.00  0.00    -0.309 N 
HETATM   11  O   UNL     1      27.117  42.189  52.656  1.00  0.00    -0.247 OA
HETATM   12  H   UNL     1      28.286  45.081  52.159  1.00  0.00     0.170 HD
HETATM   13  H   UNL     1      26.219  42.806  50.629  1.00  0.00     0.164 HD
BRANCH  10  14
HETATM   14  C   UNL     1      29.085  44.092  53.778  1.00  0.00     0.037 A 
HETATM   15  C   UNL     1      28.936  44.938  54.879  1.00  0.00     0.049 A 
HETATM   16  C   UNL     1      29.759  44.790  56.004  1.00  0.00     0.019 A 
HETATM   17  C   UNL     1      30.745  43.794  56.052  1.00  0.00    -0.044 A 
HETATM   18 BR   UNL     1      29.479  45.988  57.456  1.00  0.00    -0.051 Br
HETATM   19  C   UNL     1      31.651  43.611  57.236  1.00  0.00     0.049 C 
HETATM   20  C   UNL     1      30.878  42.941  54.949  1.00  0.00     0.010 A 
HETATM   21  C   UNL     1      30.055  43.086  53.828  1.00  0.00     0.030 A 
ENDBRANCH  10  14
ENDBRANCH   7   8
ENDBRANCH   1   7
BRANCH   4  22
HETATM   22  N   UNL     1      22.867  48.304  49.575  1.00  0.00    -0.321 N 
HETATM   23  C   UNL     1      22.527  49.204  48.580  1.00  0.00     0.279 C 
HETATM   24  O   UNL     1      23.116  49.344  47.513  1.00  0.00    -0.265 OA
HETATM   25  H   UNL     1      22.241  48.304  50.373  1.00  0.00     0.169 HD
BRANCH  23  26
HETATM   26  C   UNL     1      21.363  50.002  48.926  1.00  0.00     0.142 A 
HETATM   27  O   UNL     1      20.400  49.471  49.749  1.00  0.00    -0.317 OA
HETATM   28  C   UNL     1      19.451  50.428  49.921  1.00  0.00     0.143 A 
HETATM   29  C   UNL     1      19.778  51.565  49.220  1.00  0.00     0.027 A 
HETATM   30  C   UNL     1      21.009  51.291  48.578  1.00  0.00     0.045 A 
ENDBRANCH  23  26
ENDBRANCH   4  22
TORSDOF 5
ENDMDL
MODEL 2
REMARK VINA RESULT:      -9.4      3.756     10.845
REMARK  5 active torsions:
REMARK  status: ('A' for Active; 'I' for Inactive)
REMARK    1  A    between atoms: C_6  and  N_7 
REMARK       I    between atoms: N_7  and  C_8 
REMARK       I    between atoms: C_8  and  N_9 
REMARK    2  A    between atoms: N_9  and  C_10 
REMARK    3  A    between atoms: C_10  and  C_11 
REMARK    4  A    between atoms: C_14  and  N_15 
REMARK       I    between atoms: N_15  and  C_16 
REMARK    5  A    between atoms: C_16  and  C_17 
ROOT
HETATM    1  C   UNL     1      25.408  45.797  51.484  1.00  0.00    -0.040 A 
HETATM    2  C   UNL     1      25.482  46.526  52.677  1.00  0.00     0.011 A 
HETATM    3  C   UNL     1      26.398  46.176  53.674  1.00  0.00     0.030 A 
HETATM    4  C   UNL     1      27.267  45.100  53.492  1.00  0.00     0.035 A 
HETATM    5  C   UNL     1      27.192  44.367  52.303  1.00  0.00     0.030 A 
HETATM    6  C   UNL     1      26.272  44.711  51.306  1.00  0.00     0.011 A 
ENDROOT
BRANCH   1   7
HETATM    7  C   UNL     1      24.470  46.222  50.386  1.00  0.00     0.162 C 
BRANCH   7   8
HETATM    8  N   UNL     1      24.886  47.489  49.827  1.00  0.00    -0.339 N 
HETATM    9  C   UNL     1      24.127  48.496  49.311  1.00  0.00     0.320 C 
HETATM   10  N   UNL     1      22.793  48.448  49.605  1.00  0.00    -0.309 N 
HETATM   11  O   UNL     1      24.698  49.351  48.642  1.00  0.00    -0.247 OA
HETATM   12  H   UNL     1      22.521  47.806  50.330  1.00  0.00     0.170 HD
HETATM   13  H   UNL     1      25.852  47.570  49.533  1.00  0.00     0.164 HD
BRANCH  10  14
HETATM   14  C   UNL     1      21.785  49.334  49.165  1.00  0.00     0.037 A 
HETATM   15  C   UNL     1      20.910  49.060  48.112  1.00  0.00     0.049 A 
HETATM   16  C   UNL     1      19.941  49.998  47.732  1.00  0.00     0.019 A 
HETATM   17  C   UNL     1      19.826  51.228  48.396  1.00  0.00    -0.044 A 
HETATM   18 BR   UNL     1      18.793  49.533  46.288  1.00  0.00    -0.051 Br
HETATM   19  C   UNL     1      18.806  52.262  48.012  1.00  0.00     0.049 C 
HETATM   20  C   UNL     1      20.698  51.489  49.460  1.00  0.00     0.010 A 
HETATM   21  C   UNL     1      21.663  50.552  49.842  1.00  0.00     0.030 A 
ENDBRANCH  10  14
ENDBRANCH   7   8
ENDBRANCH   1   7
BRANCH   4  22
HETATM   22  N   UNL     1      28.248  44.716  54.425  1.00  0.00    -0.321 N 
HETATM   23  C   UNL     1      29.074  45.524  55.187  1.00  0.00     0.279 C 
HETATM   24  O   UNL     1      29.032  46.749  55.229  1.00  0.00    -0.265 OA
HETATM   25  H   UNL     1      28.405  43.721  54.547  1.00  0.00     0.169 HD
BRANCH  23  26
HETATM   26  C   UNL     1      30.034  44.761  55.965  1.00  0.00     0.142 A 
HETATM   27  O   UNL     1      30.340  45.161  57.243  1.00  0.00    -0.317 OA
HETATM   28  C   UNL     1      31.236  44.267  57.737  1.00  0.00     0.143 A 
HETATM   29  C   UNL     1      31.520  43.299  56.803  1.00  0.00     0.027 A 
HETATM   30  C   UNL     1      30.747  43.617  55.661  1.00  0.00     0.045 A 
ENDBRANCH  23  26
ENDBRANCH   4  22
TORSDOF 5
ENDMDL
MODEL 3
REMARK VINA RESULT:      -9.0      3.701     10.937
REMARK  5 active torsions:
REMARK  status: ('A' for Active; 'I' for Inactive)
REMARK    1  A    between atoms: C_6  and  N_7 
REMARK       I    between atoms: N_7  and  C_8 
REMARK       I    between atoms: C_8  and  N_9 
REMARK    2  A    between atoms: N_9  and  C_10 
REMARK    3  A    between atoms: C_10  and  C_11 
REMARK    4  A    between atoms: C_14  and  N_15 
REMARK       I    between atoms: N_15  and  C_16 
REMARK    5  A    between atoms: C_16  and  C_17 
ROOT
HETATM    1  C   UNL     1      25.717  45.766  51.681  1.00  0.00    -0.040 A 
HETATM    2  C   UNL     1      26.537  44.669  51.394  1.00  0.00     0.011 A 
HETATM    3  C   UNL     1      27.522  44.257  52.297  1.00  0.00     0.030 A 
HETATM    4  C   UNL     1      27.696  44.923  53.510  1.00  0.00     0.035 A 
HETATM    5  C   UNL     1      26.881  46.023  53.797  1.00  0.00     0.030 A 
HETATM    6  C   UNL     1      25.899  46.442  52.893  1.00  0.00     0.011 A 
ENDROOT
BRANCH   1   7
HETATM    7  C   UNL     1      24.613  46.161  50.737  1.00  0.00     0.162 C 
BRANCH   7   8
HETATM    8  N   UNL     1      24.796  47.522  50.284  1.00  0.00    -0.339 N 
HETATM    9  C   UNL     1      23.956  48.310  49.557  1.00  0.00     0.320 C 
HETATM   10  N   UNL     1      22.659  47.885  49.475  1.00  0.00    -0.309 N 
HETATM   11  O   UNL     1      24.426  49.324  49.050  1.00  0.00    -0.247 OA
HETATM   12  H   UNL     1      22.391  47.154  50.112  1.00  0.00     0.170 HD
HETATM   13  H   UNL     1      25.744  47.880  50.264  1.00  0.00     0.164 HD
BRANCH  10  14
HETATM   14  C   UNL     1      21.604  48.485  48.754  1.00  0.00     0.037 A 
HETATM   15  C   UNL     1      21.113  49.766  49.011  1.00  0.00     0.049 A 
HETATM   16  C   UNL     1      20.055  50.287  48.253  1.00  0.00     0.019 A 
HETATM   17  C   UNL     1      19.467  49.537  47.224  1.00  0.00    -0.044 A 
HETATM   18 BR   UNL     1      19.457  52.043  48.675  1.00  0.00    -0.051 Br
HETATM   19  C   UNL     1      18.326  50.057  46.396  1.00  0.00     0.049 C 
HETATM   20  C   UNL     1      19.974  48.258  46.964  1.00  0.00     0.010 A 
HETATM   21  C   UNL     1      21.032  47.740  47.718  1.00  0.00     0.030 A 
ENDBRANCH  10  14
ENDBRANCH   7   8
ENDBRANCH   1   7
BRANCH   4  22
HETATM   22  N   UNL     1      28.629  44.540  54.491  1.00  0.00    -0.321 N 
HETATM   23  C   UNL     1      29.341  45.347  55.362  1.00  0.00     0.279 C 
HETATM   24  O   UNL     1      29.215  46.562  55.474  1.00  0.00    -0.265 OA
HETATM   25  H   UNL     1      28.843  43.551  54.565  1.00  0.00     0.169 HD
BRANCH  23  26
HETATM   26  C   UNL     1      30.291  44.596  56.165  1.00  0.00     0.142 A 
HETATM   27  O   UNL     1      30.703  45.101  57.374  1.00  0.00    -0.317 OA
HETATM   28  C   UNL     1      31.561  44.196  57.913  1.00  0.00     0.143 A 
HETATM   29  C   UNL     1      31.716  43.117  57.075  1.00  0.00     0.027 A 
HETATM   30  C   UNL     1      30.899  43.374  55.948  1.00  0.00     0.045 A 
ENDBRANCH  23  26
ENDBRANCH   4  22
TORSDOF 5
ENDMDL
MODEL 4
REMARK VINA RESULT:      -8.8      1.681      2.227
REMARK  5 active torsions:
REMARK  status: ('A' for Active; 'I' for Inactive)
REMARK    1  A    between atoms: C_6  and  N_7 
REMARK       I    between atoms: N_7  and  C_8 
REMARK       I    between atoms: C_8  and  N_9 
REMARK    2  A    between atoms: N_9  and  C_10 
REMARK    3  A    between atoms: C_10  and  C_11 
REMARK    4  A    between atoms: C_14  and  N_15 
REMARK       I    between atoms: N_15  and  C_16 
REMARK    5  A    between atoms: C_16  and  C_17 
ROOT
HETATM    1  C   UNL     1      24.163  46.416  49.665  1.00  0.00    -0.040 A 
HETATM    2  C   UNL     1      24.376  47.768  49.957  1.00  0.00     0.011 A 
HETATM    3  C   UNL     1      23.463  48.742  49.540  1.00  0.00     0.030 A 
HETATM    4  C   UNL     1      22.313  48.382  48.838  1.00  0.00     0.035 A 
HETATM    5  C   UNL     1      22.100  47.031  48.542  1.00  0.00     0.030 A 
HETATM    6  C   UNL     1      23.015  46.055  48.951  1.00  0.00     0.011 A 
ENDROOT
BRANCH   1   7
HETATM    7  C   UNL     1      25.112  45.366  50.177  1.00  0.00     0.162 C 
BRANCH   7   8
HETATM    8  N   UNL     1      24.726  44.936  51.503  1.00  0.00    -0.339 N 
HETATM    9  C   UNL     1      25.510  44.550  52.548  1.00  0.00     0.320 C 
HETATM   10  N   UNL     1      26.836  44.869  52.449  1.00  0.00    -0.309 N 
HETATM   11  O   UNL     1      24.966  43.964  53.478  1.00  0.00    -0.247 OA
HETATM   12  H   UNL     1      27.082  45.526  51.729  1.00  0.00     0.170 HD
HETATM   13  H   UNL     1      23.768  44.630  51.629  1.00  0.00     0.164 HD
BRANCH  10  14
HETATM   14  C   UNL     1      27.865  44.550  53.362  1.00  0.00     0.037 A 
HETATM   15  C   UNL     1      28.113  45.260  54.538  1.00  0.00     0.049 A 
HETATM   16  C   UNL     1      29.161  44.882  55.388  1.00  0.00     0.019 A 
HETATM   17  C   UNL     1      29.981  43.787  55.081  1.00  0.00    -0.044 A 
HETATM   18 BR   UNL     1      29.420  45.911  56.968  1.00  0.00    -0.051 Br
HETATM   19  C   UNL     1      31.119  43.357  55.963  1.00  0.00     0.049 C 
HETATM   20  C   UNL     1      29.716  43.070  53.907  1.00  0.00     0.010 A 
HETATM   21  C   UNL     1      28.668  43.445  53.061  1.00  0.00     0.030 A 
ENDBRANCH  10  14
ENDBRANCH   7   8
ENDBRANCH   1   7
BRANCH   4  22
HETATM   22  N   UNL     1      21.324  49.295  48.429  1.00  0.00    -0.321 N 
HETATM   23  C   UNL     1      20.105  49.569  49.026  1.00  0.00     0.279 C 
HETATM   24  O   UNL     1      19.709  49.097  50.087  1.00  0.00    -0.265 OA
HETATM   25  H   UNL     1      21.495  49.807  47.570  1.00  0.00     0.169 HD
BRANCH  23  26
HETATM   26  C   UNL     1      19.304  50.503  48.253  1.00  0.00     0.142 A 
HETATM   27  O   UNL     1      18.398  50.022  47.340  1.00  0.00    -0.317 OA
HETATM   28  C   UNL     1      17.782  51.097  46.785  1.00  0.00     0.143 A 
HETATM   29  C   UNL     1      18.275  52.266  47.317  1.00  0.00     0.027 A 
HETATM   30  C   UNL     1      19.257  51.884  48.262  1.00  0.00     0.045 A 
ENDBRANCH  23  26
ENDBRANCH   4  22
TORSDOF 5
ENDMDL
MODEL 5
REMARK VINA RESULT:      -8.6      2.704      4.063
REMARK  5 active torsions:
REMARK  status: ('A' for Active; 'I' for Inactive)
REMARK    1  A    between atoms: C_6  and  N_7 
REMARK       I    between atoms: N_7  and  C_8 
REMARK       I    between atoms: C_8  and  N_9 
REMARK    2  A    between atoms: N_9  and  C_10 
REMARK    3  A    between atoms: C_10  and  C_11 
REMARK    4  A    between atoms: C_14  and  N_15 
REMARK       I    between atoms: N_15  and  C_16 
REMARK    5  A    between atoms: C_16  and  C_17 
ROOT
HETATM    1  C   UNL     1      22.710  47.161  48.967  1.00  0.00    -0.040 A 
HETATM    2  C   UNL     1      22.885  48.513  49.286  1.00  0.00     0.011 A 
HETATM    3  C   UNL     1      21.808  49.404  49.238  1.00  0.00     0.030 A 
HETATM    4  C   UNL     1      20.535  48.960  48.885  1.00  0.00     0.035 A 
HETATM    5  C   UNL     1      20.358  47.609  48.561  1.00  0.00     0.030 A 
HETATM    6  C   UNL     1      21.434  46.717  48.601  1.00  0.00     0.011 A 
ENDROOT
BRANCH   1   7
HETATM    7  C   UNL     1      23.857  46.193  49.088  1.00  0.00     0.162 C 
BRANCH   7   8
HETATM    8  N   UNL     1      23.613  45.251  50.158  1.00  0.00    -0.339 N 
HETATM    9  C   UNL     1      24.352  45.003  51.275  1.00  0.00     0.320 C 
HETATM   10  N   UNL     1      25.294  45.942  51.589  1.00  0.00    -0.309 N 
HETATM   11  O   UNL     1      24.109  43.975  51.898  1.00  0.00    -0.247 OA
HETATM   12  H   UNL     1      25.226  46.819  51.100  1.00  0.00     0.170 HD
HETATM   13  H   UNL     1      22.967  44.493  49.968  1.00  0.00     0.164 HD
BRANCH  10  14
HETATM   14  C   UNL     1      26.215  45.909  52.658  1.00  0.00     0.037 A 
HETATM   15  C   UNL     1      27.161  44.899  52.842  1.00  0.00     0.049 A 
HETATM   16  C   UNL     1      28.036  44.937  53.936  1.00  0.00     0.019 A 
HETATM   17  C   UNL     1      27.985  45.984  54.867  1.00  0.00    -0.044 A 
HETATM   18 BR   UNL     1      29.291  43.516  54.102  1.00  0.00    -0.051 Br
HETATM   19  C   UNL     1      28.900  46.055  56.056  1.00  0.00     0.049 C 
HETATM   20  C   UNL     1      27.043  47.002  54.667  1.00  0.00     0.010 A 
HETATM   21  C   UNL     1      26.172  46.966  53.573  1.00  0.00     0.030 A 
ENDBRANCH  10  14
ENDBRANCH   7   8
ENDBRANCH   1   7
BRANCH   4  22
HETATM   22  N   UNL     1      19.394  49.782  48.861  1.00  0.00    -0.321 N 
HETATM   23  C   UNL     1      18.512  50.060  49.892  1.00  0.00     0.279 C 
HETATM   24  O   UNL     1      18.629  49.681  51.052  1.00  0.00    -0.265 OA
HETATM   25  H   UNL     1      19.152  50.212  47.975  1.00  0.00     0.169 HD
BRANCH  23  26
HETATM   26  C   UNL     1      17.390  50.875  49.460  1.00  0.00     0.142 A 
HETATM   27  O   UNL     1      16.993  51.942  50.228  1.00  0.00    -0.317 OA
HETATM   28  C   UNL     1      15.952  52.531  49.585  1.00  0.00     0.143 A 
HETATM   29  C   UNL     1      15.663  51.864  48.418  1.00  0.00     0.027 A 
HETATM   30  C   UNL     1      16.588  50.796  48.337  1.00  0.00     0.045 A 
ENDBRANCH  23  26
ENDBRANCH   4  22
TORSDOF 5
ENDMDL
MODEL 6
REMARK VINA RESULT:      -8.3      6.615     13.528
REMARK  5 active torsions:
REMARK  status: ('A' for Active; 'I' for Inactive)
REMARK    1  A    between atoms: C_6  and  N_7 
REMARK       I    between atoms: N_7  and  C_8 
REMARK       I    between atoms: C_8  and  N_9 
REMARK    2  A    between atoms: N_9  and  C_10 
REMARK    3  A    between atoms: C_10  and  C_11 
REMARK    4  A    between atoms: C_14  and  N_15 
REMARK       I    between atoms: N_15  and  C_16 
REMARK    5  A    between atoms: C_16  and  C_17 
ROOT
HETATM    1  C   UNL     1      18.829  50.265  49.411  1.00  0.00    -0.040 A 
HETATM    2  C   UNL     1      19.319  48.965  49.245  1.00  0.00     0.011 A 
HETATM    3  C   UNL     1      20.695  48.719  49.197  1.00  0.00     0.030 A 
HETATM    4  C   UNL     1      21.607  49.766  49.329  1.00  0.00     0.035 A 
HETATM    5  C   UNL     1      21.120  51.068  49.490  1.00  0.00     0.030 A 
HETATM    6  C   UNL     1      19.744  51.318  49.532  1.00  0.00     0.011 A 
ENDROOT
BRANCH   1   7
HETATM    7  C   UNL     1      17.349  50.514  49.533  1.00  0.00     0.162 C 
BRANCH   7   8
HETATM    8  N   UNL     1      16.880  51.330  48.435  1.00  0.00    -0.339 N 
HETATM    9  C   UNL     1      16.023  52.388  48.451  1.00  0.00     0.320 C 
HETATM   10  N   UNL     1      15.784  52.945  49.676  1.00  0.00    -0.309 N 
HETATM   11  O   UNL     1      15.551  52.751  47.379  1.00  0.00    -0.247 OA
HETATM   12  H   UNL     1      16.403  52.666  50.419  1.00  0.00     0.170 HD
HETATM   13  H   UNL     1      16.975  50.947  47.501  1.00  0.00     0.164 HD
BRANCH  10  14
HETATM   14  C   UNL     1      14.911  54.013  49.977  1.00  0.00     0.037 A 
HETATM   15  C   UNL     1      15.324  55.336  50.142  1.00  0.00     0.049 A 
HETATM   16  C   UNL     1      14.392  56.338  50.448  1.00  0.00     0.019 A 
HETATM   17  C   UNL     1      13.030  56.038  50.595  1.00  0.00    -0.044 A 
HETATM   18 BR   UNL     1      15.050  58.111  50.651  1.00  0.00    -0.051 Br
HETATM   19  C   UNL     1      12.004  57.082  50.931  1.00  0.00     0.049 C 
HETATM   20  C   UNL     1      12.622  54.710  50.414  1.00  0.00     0.010 A 
HETATM   21  C   UNL     1      13.551  53.711  50.105  1.00  0.00     0.030 A 
ENDBRANCH  10  14
ENDBRANCH   7   8
ENDBRANCH   1   7
BRANCH   4  22
HETATM   22  N   UNL     1      23.003  49.596  49.341  1.00  0.00    -0.321 N 
HETATM   23  C   UNL     1      23.901  49.775  48.302  1.00  0.00     0.279 C 
HETATM   24  O   UNL     1      23.623  50.197  47.184  1.00  0.00    -0.265 OA
HETATM   25  H   UNL     1      23.422  49.272  50.206  1.00  0.00     0.169 HD
BRANCH  23  26
HETATM   26  C   UNL     1      25.257  49.403  48.668  1.00  0.00     0.142 A 
HETATM   27  O   UNL     1      26.312  50.147  48.199  1.00  0.00    -0.317 OA
HETATM   28  C   UNL     1      27.445  49.597  48.706  1.00  0.00     0.143 A 
HETATM   29  C   UNL     1      27.145  48.507  49.491  1.00  0.00     0.027 A 
HETATM   30  C   UNL     1      25.736  48.381  49.465  1.00  0.00     0.045 A 
ENDBRANCH  23  26
ENDBRANCH   4  22
TORSDOF 5
ENDMDL
MODEL 7
REMARK VINA RESULT:      -8.2      4.087     10.999
REMARK  5 active torsions:
REMARK  status: ('A' for Active; 'I' for Inactive)
REMARK    1  A    between atoms: C_6  and  N_7 
REMARK       I    between atoms: N_7  and  C_8 
REMARK       I    between atoms: C_8  and  N_9 
REMARK    2  A    between atoms: N_9  and  C_10 
REMARK    3  A    between atoms: C_10  and  C_11 
REMARK    4  A    between atoms: C_14  and  N_15 
REMARK       I    between atoms: N_15  and  C_16 
REMARK    5  A    between atoms: C_16  and  C_17 
ROOT
HETATM    1  C   UNL     1      25.562  45.190  51.582  1.00  0.00    -0.040 A 
HETATM    2  C   UNL     1      26.722  44.506  51.201  1.00  0.00     0.011 A 
HETATM    3  C   UNL     1      27.731  44.235  52.130  1.00  0.00     0.030 A 
HETATM    4  C   UNL     1      27.595  44.629  53.460  1.00  0.00     0.035 A 
HETATM    5  C   UNL     1      26.438  45.318  53.844  1.00  0.00     0.030 A 
HETATM    6  C   UNL     1      25.430  45.596  52.915  1.00  0.00     0.011 A 
ENDROOT
BRANCH   1   7
HETATM    7  C   UNL     1      24.449  45.416  50.595  1.00  0.00     0.162 C 
BRANCH   7   8
HETATM    8  N   UNL     1      24.481  46.773  50.096  1.00  0.00    -0.339 N 
HETATM    9  C   UNL     1      23.589  47.420  49.295  1.00  0.00     0.320 C 
HETATM   10  N   UNL     1      22.365  46.826  49.163  1.00  0.00    -0.309 N 
HETATM   11  O   UNL     1      23.953  48.468  48.773  1.00  0.00    -0.247 OA
HETATM   12  H   UNL     1      22.157  46.088  49.815  1.00  0.00     0.170 HD
HETATM   13  H   UNL     1      25.375  47.250  50.112  1.00  0.00     0.164 HD
BRANCH  10  14
HETATM   14  C   UNL     1      21.283  47.258  48.365  1.00  0.00     0.037 A 
HETATM   15  C   UNL     1      20.979  46.729  47.110  1.00  0.00     0.049 A 
HETATM   16  C   UNL     1      19.890  47.221  46.377  1.00  0.00     0.019 A 
HETATM   17  C   UNL     1      19.082  48.249  46.885  1.00  0.00    -0.044 A 
HETATM   18 BR   UNL     1      19.554  46.436  44.677  1.00  0.00    -0.051 Br
HETATM   19  C   UNL     1      17.912  48.807  46.126  1.00  0.00     0.049 C 
HETATM   20  C   UNL     1      19.386  48.763  48.152  1.00  0.00     0.010 A 
HETATM   21  C   UNL     1      20.470  48.271  48.884  1.00  0.00     0.030 A 
ENDBRANCH  10  14
ENDBRANCH   7   8
ENDBRANCH   1   7
BRANCH   4  22
HETATM   22  N   UNL     1      28.541  44.352  54.464  1.00  0.00    -0.321 N 
HETATM   23  C   UNL     1      29.261  45.246  55.238  1.00  0.00     0.279 C 
HETATM   24  O   UNL     1      29.133  46.465  55.225  1.00  0.00    -0.265 OA
HETATM   25  H   UNL     1      28.758  43.376  54.638  1.00  0.00     0.169 HD
BRANCH  23  26
HETATM   26  C   UNL     1      30.223  44.583  56.103  1.00  0.00     0.142 A 
HETATM   27  O   UNL     1      30.538  45.144  57.317  1.00  0.00    -0.317 OA
HETATM   28  C   UNL     1      31.432  44.316  57.917  1.00  0.00     0.143 A 
HETATM   29  C   UNL     1      31.705  43.233  57.114  1.00  0.00     0.027 A 
HETATM   30  C   UNL     1      30.927  43.406  55.945  1.00  0.00     0.045 A 
ENDBRANCH  23  26
ENDBRANCH   4  22
TORSDOF 5
ENDMDL
MODEL 8
REMARK VINA RESULT:      -8.2      3.348      6.139
REMARK  5 active torsions:
REMARK  status: ('A' for Active; 'I' for Inactive)
REMARK    1  A    between atoms: C_6  and  N_7 
REMARK       I    between atoms: N_7  and  C_8 
REMARK       I    between atoms: C_8  and  N_9 
REMARK    2  A    between atoms: N_9  and  C_10 
REMARK    3  A    between atoms: C_10  and  C_11 
REMARK    4  A    between atoms: C_14  and  N_15 
REMARK       I    between atoms: N_15  and  C_16 
REMARK    5  A    between atoms: C_16  and  C_17 
ROOT
HETATM    1  C   UNL     1      20.688  48.700  48.945  1.00  0.00    -0.040 A 
HETATM    2  C   UNL     1      20.839  50.050  48.609  1.00  0.00     0.011 A 
HETATM    3  C   UNL     1      19.835  50.977  48.906  1.00  0.00     0.030 A 
HETATM    4  C   UNL     1      18.669  50.576  49.557  1.00  0.00     0.035 A 
HETATM    5  C   UNL     1      18.514  49.225  49.889  1.00  0.00     0.030 A 
HETATM    6  C   UNL     1      19.513  48.294  49.587  1.00  0.00     0.011 A 
ENDROOT
BRANCH   1   7
HETATM    7  C   UNL     1      21.801  47.720  48.686  1.00  0.00     0.162 C 
BRANCH   7   8
HETATM    8  N   UNL     1      23.088  48.347  48.895  1.00  0.00    -0.339 N 
HETATM    9  C   UNL     1      24.187  47.868  49.541  1.00  0.00     0.320 C 
HETATM   10  N   UNL     1      24.198  46.523  49.784  1.00  0.00    -0.309 N 
HETATM   11  O   UNL     1      25.065  48.671  49.838  1.00  0.00    -0.247 OA
HETATM   12  H   UNL     1      23.506  45.978  49.296  1.00  0.00     0.170 HD
HETATM   13  H   UNL     1      23.134  49.354  48.788  1.00  0.00     0.164 HD
BRANCH  10  14
HETATM   14  C   UNL     1      25.187  45.783  50.468  1.00  0.00     0.037 A 
HETATM   15  C   UNL     1      25.133  45.482  51.830  1.00  0.00     0.049 A 
HETATM   16  C   UNL     1      26.161  44.747  52.437  1.00  0.00     0.019 A 
HETATM   17  C   UNL     1      27.262  44.297  51.694  1.00  0.00    -0.044 A 
HETATM   18 BR   UNL     1      25.998  44.386  54.297  1.00  0.00    -0.051 Br
HETATM   19  C   UNL     1      28.387  43.515  52.309  1.00  0.00     0.049 C 
HETATM   20  C   UNL     1      27.301  44.591  50.325  1.00  0.00     0.010 A 
HETATM   21  C   UNL     1      26.274  45.321  49.719  1.00  0.00     0.030 A 
ENDBRANCH  10  14
ENDBRANCH   7   8
ENDBRANCH   1   7
BRANCH   4  22
HETATM   22  N   UNL     1      17.637  51.454  49.934  1.00  0.00    -0.321 N 
HETATM   23  C   UNL     1      16.432  51.691  49.294  1.00  0.00     0.279 C 
HETATM   24  O   UNL     1      16.024  51.098  48.300  1.00  0.00    -0.265 OA
HETATM   25  H   UNL     1      17.789  52.017  50.764  1.00  0.00     0.169 HD
BRANCH  23  26
HETATM   26  C   UNL     1      15.662  52.746  49.929  1.00  0.00     0.142 A 
HETATM   27  O   UNL     1      14.388  52.483  50.369  1.00  0.00    -0.317 OA
HETATM   28  C   UNL     1      13.917  53.626  50.934  1.00  0.00     0.143 A 
HETATM   29  C   UNL     1      14.860  54.625  50.863  1.00  0.00     0.027 A 
HETATM   30  C   UNL     1      15.983  54.060  50.215  1.00  0.00     0.045 A 
ENDBRANCH  23  26
ENDBRANCH   4  22
TORSDOF 5
ENDMDL
MODEL 9
REMARK VINA RESULT:      -8.2      3.813     10.523
REMARK  5 active torsions:
REMARK  status: ('A' for Active; 'I' for Inactive)
REMARK    1  A    between atoms: C_6  and  N_7 
REMARK       I    between atoms: N_7  and  C_8 
REMARK       I    between atoms: C_8  and  N_9 
REMARK    2  A    between atoms: N_9  and  C_10 
REMARK    3  A    between atoms: C_10  and  C_11 
REMARK    4  A    between atoms: C_14  and  N_15 
REMARK       I    between atoms: N_15  and  C_16 
REMARK    5  A    between atoms: C_16  and  C_17 
ROOT
HETATM    1  C   UNL     1      24.535  45.658  50.681  1.00  0.00    -0.040 A 
HETATM    2  C   UNL     1      24.633  44.498  51.459  1.00  0.00     0.011 A 
HETATM    3  C   UNL     1      25.512  44.437  52.545  1.00  0.00     0.030 A 
HETATM    4  C   UNL     1      26.298  45.538  52.884  1.00  0.00     0.035 A 
HETATM    5  C   UNL     1      26.205  46.697  52.105  1.00  0.00     0.030 A 
HETATM    6  C   UNL     1      25.332  46.759  51.015  1.00  0.00     0.011 A 
ENDROOT
BRANCH   1   7
HETATM    7  C   UNL     1      23.536  45.742  49.558  1.00  0.00     0.162 C 
BRANCH   7   8
HETATM    8  N   UNL     1      23.583  47.047  48.935  1.00  0.00    -0.339 N 
HETATM    9  C   UNL     1      22.561  47.892  48.624  1.00  0.00     0.320 C 
HETATM   10  N   UNL     1      21.360  47.621  49.219  1.00  0.00    -0.309 N 
HETATM   11  O   UNL     1      22.803  48.814  47.853  1.00  0.00    -0.247 OA
HETATM   12  H   UNL     1      21.380  46.961  49.978  1.00  0.00     0.170 HD
HETATM   13  H   UNL     1      24.426  47.286  48.427  1.00  0.00     0.164 HD
BRANCH  10  14
HETATM   14  C   UNL     1      20.139  48.306  49.036  1.00  0.00     0.037 A 
HETATM   15  C   UNL     1      19.924  49.632  49.414  1.00  0.00     0.049 A 
HETATM   16  C   UNL     1      18.677  50.237  49.204  1.00  0.00     0.019 A 
HETATM   17  C   UNL     1      17.621  49.529  48.612  1.00  0.00    -0.044 A 
HETATM   18 BR   UNL     1      18.480  52.049  49.750  1.00  0.00    -0.051 Br
HETATM   19  C   UNL     1      16.269  50.140  48.378  1.00  0.00     0.049 C 
HETATM   20  C   UNL     1      17.850  48.203  48.223  1.00  0.00     0.010 A 
HETATM   21  C   UNL     1      19.095  47.601  48.429  1.00  0.00     0.030 A 
ENDBRANCH  10  14
ENDBRANCH   7   8
ENDBRANCH   1   7
BRANCH   4  22
HETATM   22  N   UNL     1      27.168  45.572  53.989  1.00  0.00    -0.321 N 
HETATM   23  C   UNL     1      27.298  46.559  54.951  1.00  0.00     0.279 C 
HETATM   24  O   UNL     1      26.601  47.563  55.041  1.00  0.00    -0.265 OA
HETATM   25  H   UNL     1      27.812  44.795  54.094  1.00  0.00     0.169 HD
BRANCH  23  26
HETATM   26  C   UNL     1      28.379  46.288  55.883  1.00  0.00     0.142 A 
HETATM   27  O   UNL     1      28.153  46.404  57.233  1.00  0.00    -0.317 OA
HETATM   28  C   UNL     1      29.313  46.076  57.861  1.00  0.00     0.143 A 
HETATM   29  C   UNL     1      30.286  45.755  56.944  1.00  0.00     0.027 A 
HETATM   30  C   UNL     1      29.686  45.893  55.670  1.00  0.00     0.045 A 
ENDBRANCH  23  26
ENDBRANCH   4  22
TORSDOF 5
ENDMDL
MODEL 10
REMARK VINA RESULT:      -8.1      6.205     13.391
REMARK  5 active torsions:
REMARK  status: ('A' for Active; 'I' for Inactive)
REMARK    1  A    between atoms: C_6  and  N_7 
REMARK       I    between atoms: N_7  and  C_8 
REMARK       I    between atoms: C_8  and  N_9 
REMARK    2  A    between atoms: N_9  and  C_10 
REMARK    3  A    between atoms: C_10  and  C_11 
REMARK    4  A    between atoms: C_14  and  N_15 
REMARK       I    between atoms: N_15  and  C_16 
REMARK    5  A    between atoms: C_16  and  C_17 
ROOT
HETATM    1  C   UNL     1      18.663  51.703  49.212  1.00  0.00    -0.040 A 
HETATM    2  C   UNL     1      18.735  50.588  50.056  1.00  0.00     0.011 A 
HETATM    3  C   UNL     1      19.936  49.892  50.220  1.00  0.00     0.030 A 
HETATM    4  C   UNL     1      21.091  50.304  49.557  1.00  0.00     0.035 A 
HETATM    5  C   UNL     1      21.021  51.416  48.709  1.00  0.00     0.030 A 
HETATM    6  C   UNL     1      19.819  52.110  48.538  1.00  0.00     0.011 A 
ENDROOT
BRANCH   1   7
HETATM    7  C   UNL     1      17.385  52.490  49.095  1.00  0.00     0.162 C 
BRANCH   7   8
HETATM    8  N   UNL     1      16.412  51.763  48.310  1.00  0.00    -0.339 N 
HETATM    9  C   UNL     1      16.193  51.791  46.966  1.00  0.00     0.320 C 
HETATM   10  N   UNL     1      17.185  52.352  46.210  1.00  0.00    -0.309 N 
HETATM   11  O   UNL     1      15.142  51.312  46.553  1.00  0.00    -0.247 OA
HETATM   12  H   UNL     1      18.063  52.507  46.676  1.00  0.00     0.170 HD
HETATM   13  H   UNL     1      15.619  51.372  48.804  1.00  0.00     0.164 HD
BRANCH  10  14
HETATM   14  C   UNL     1      17.192  52.545  44.812  1.00  0.00     0.037 A 
HETATM   15  C   UNL     1      17.746  51.643  43.902  1.00  0.00     0.049 A 
HETATM   16  C   UNL     1      17.719  51.914  42.527  1.00  0.00     0.019 A 
HETATM   17  C   UNL     1      17.137  53.091  42.034  1.00  0.00    -0.044 A 
HETATM   18 BR   UNL     1      18.497  50.625  41.365  1.00  0.00    -0.051 Br
HETATM   19  C   UNL     1      17.096  53.421  40.569  1.00  0.00     0.049 C 
HETATM   20  C   UNL     1      16.570  53.984  42.953  1.00  0.00     0.010 A 
HETATM   21  C   UNL     1      16.594  53.712  44.324  1.00  0.00     0.030 A 
ENDBRANCH  10  14
ENDBRANCH   7   8
ENDBRANCH   1   7
BRANCH   4  22
HETATM   22  N   UNL     1      22.347  49.688  49.707  1.00  0.00    -0.321 N 
HETATM   23  C   UNL     1      22.989  48.820  48.841  1.00  0.00     0.279 C 
HETATM   24  O   UNL     1      22.585  48.493  47.730  1.00  0.00    -0.265 OA
HETATM   25  H   UNL     1      22.851  49.869  50.569  1.00  0.00     0.169 HD
BRANCH  23  26
HETATM   26  C   UNL     1      24.234  48.308  49.387  1.00  0.00     0.142 A 
HETATM   27  O   UNL     1      25.423  48.890  49.020  1.00  0.00    -0.317 OA
HETATM   28  C   UNL     1      26.409  48.236  49.687  1.00  0.00     0.143 A 
HETATM   29  C   UNL     1      25.883  47.239  50.475  1.00  0.00     0.027 A 
HETATM   30  C   UNL     1      24.482  47.284  50.281  1.00  0.00     0.045 A 
ENDBRANCH  23  26
ENDBRANCH   4  22
TORSDOF 5
ENDMDL
