MODEL 1
REMARK VINA RESULT:      -8.6      0.000      0.000
REMARK  5 active torsions:
REMARK  status: ('A' for Active; 'I' for Inactive)
REMARK    1  A    between atoms: C_8  and  C_9 
REMARK       I    between atoms: N_10  and  C_11 
REMARK       I    between atoms: C_11  and  N_12 
REMARK    2  A    between atoms: N_12  and  C_13 
REMARK    3  A    between atoms: C_15  and  O_16 
REMARK    4  A    between atoms: O_16  and  C_17 
REMARK    5  A    between atoms: C_17  and  C_18 
ROOT
HETATM    1  C   UNL     1      27.237  43.759  54.130  1.00  0.00     0.126 C 
HETATM    2  N   UNL     1      26.553  44.275  52.945  1.00  0.00    -0.325 N 
HETATM    3  C   UNL     1      27.263  44.384  51.794  1.00  0.00     0.323 C 
HETATM    4  N   UNL     1      26.869  45.057  50.697  1.00  0.00    -0.309 N 
HETATM    5  O   UNL     1      28.428  43.960  51.731  1.00  0.00    -0.247 OA
HETATM    6  C   UNL     1      25.135  44.431  53.214  1.00  0.00     0.128 C 
HETATM    7  C   UNL     1      24.959  44.232  54.715  1.00  0.00     0.022 C 
HETATM    8  C   UNL     1      26.120  43.324  55.083  1.00  0.00     0.032 C 
HETATM    9  H   UNL     1      27.713  45.238  50.166  1.00  0.00     0.170 HD
ENDROOT
BRANCH   4  10
HETATM   10  C   UNL     1      25.719  45.614  50.125  1.00  0.00     0.039 A 
HETATM   11  C   UNL     1      25.296  46.931  50.261  1.00  0.00     0.066 A 
HETATM   12  C   UNL     1      24.119  47.383  49.644  1.00  0.00     0.071 A 
HETATM   13  C   UNL     1      23.316  46.482  48.945  1.00  0.00     0.037 A 
HETATM   14  C   UNL     1      23.691  45.145  48.859  1.00  0.00     0.005 A 
HETATM   15  C   UNL     1      24.880  44.716  49.449  1.00  0.00     0.030 A 
BRANCH  12  16
HETATM   16  O   UNL     1      23.865  48.720  49.804  1.00  0.00    -0.347 OA
BRANCH  16  17
HETATM   17  C   UNL     1      22.541  49.166  49.507  1.00  0.00     0.208 C 
BRANCH  17  18
HETATM   18  C   UNL     1      22.631  50.366  48.596  1.00  0.00    -0.069 C 
HETATM   19  C   UNL     1      21.413  51.245  48.547  1.00  0.00     0.044 C 
HETATM   20  C   UNL     1      23.740  50.655  47.894  1.00  0.00     0.016 C 
ENDBRANCH  17  18
ENDBRANCH  16  17
ENDBRANCH  12  16
ENDBRANCH   4  10
BRANCH   1  21
HETATM   21  C   UNL     1      28.165  44.791  54.733  1.00  0.00     0.014 A 
HETATM   22  C   UNL     1      28.001  46.148  54.988  1.00  0.00     0.034 A 
HETATM   23  C   UNL     1      26.902  47.115  54.756  1.00  0.00     0.070 C 
HETATM   24  N   UNL     1      29.171  46.567  55.561  1.00  0.00    -0.282 N 
HETATM   25  H   UNL     1      29.411  47.500  55.876  1.00  0.00     0.189 HD
HETATM   26  N   UNL     1      30.087  45.606  55.699  1.00  0.00    -0.179 NA
HETATM   27  C   UNL     1      29.504  44.528  55.168  1.00  0.00     0.061 A 
HETATM   28  C   UNL     1      30.259  43.251  55.083  1.00  0.00     0.073 C 
ENDBRANCH   1  21
TORSDOF 5
ENDMDL
MODEL 2
REMARK VINA RESULT:      -7.9     12.721     13.920
REMARK  5 active torsions:
REMARK  status: ('A' for Active; 'I' for Inactive)
REMARK    1  A    between atoms: C_8  and  C_9 
REMARK       I    between atoms: N_10  and  C_11 
REMARK       I    between atoms: C_11  and  N_12 
REMARK    2  A    between atoms: N_12  and  C_13 
REMARK    3  A    between atoms: C_15  and  O_16 
REMARK    4  A    between atoms: O_16  and  C_17 
REMARK    5  A    between atoms: C_17  and  C_18 
ROOT
HETATM    1  C   UNL     1      33.493  50.600  42.405  1.00  0.00     0.126 C 
HETATM    2  N   UNL     1      32.415  49.899  41.706  1.00  0.00    -0.325 N 
HETATM    3  C   UNL     1      32.716  48.744  41.063  1.00  0.00     0.323 C 
HETATM    4  N   UNL     1      31.917  48.112  40.182  1.00  0.00    -0.309 N 
HETATM    5  O   UNL     1      33.851  48.250  41.155  1.00  0.00    -0.247 OA
HETATM    6  C   UNL     1      31.141  50.535  41.988  1.00  0.00     0.128 C 
HETATM    7  C   UNL     1      31.462  51.842  42.702  1.00  0.00     0.022 C 
HETATM    8  C   UNL     1      32.791  51.551  43.378  1.00  0.00     0.032 C 
HETATM    9  H   UNL     1      32.525  47.506  39.643  1.00  0.00     0.170 HD
ENDROOT
BRANCH   4  10
HETATM   10  C   UNL     1      30.584  48.086  39.757  1.00  0.00     0.039 A 
HETATM   11  C   UNL     1      29.934  49.088  39.046  1.00  0.00     0.066 A 
HETATM   12  C   UNL     1      28.587  48.957  38.673  1.00  0.00     0.071 A 
HETATM   13  C   UNL     1      27.862  47.840  39.087  1.00  0.00     0.037 A 
HETATM   14  C   UNL     1      28.481  46.862  39.858  1.00  0.00     0.005 A 
HETATM   15  C   UNL     1      29.829  46.988  40.193  1.00  0.00     0.030 A 
BRANCH  12  16
HETATM   16  O   UNL     1      28.100  49.989  37.915  1.00  0.00    -0.347 OA
BRANCH  16  17
HETATM   17  C   UNL     1      27.386  51.016  38.603  1.00  0.00     0.208 C 
BRANCH  17  18
HETATM   18  C   UNL     1      28.340  52.146  38.906  1.00  0.00    -0.069 C 
HETATM   19  C   UNL     1      28.448  52.544  40.351  1.00  0.00     0.044 C 
HETATM   20  C   UNL     1      29.075  52.742  37.951  1.00  0.00     0.016 C 
ENDBRANCH  17  18
ENDBRANCH  16  17
ENDBRANCH  12  16
ENDBRANCH   4  10
BRANCH   1  21
HETATM   21  C   UNL     1      34.414  51.311  41.438  1.00  0.00     0.014 A 
HETATM   22  C   UNL     1      34.161  52.021  40.269  1.00  0.00     0.034 A 
HETATM   23  C   UNL     1      32.935  52.336  39.500  1.00  0.00     0.070 C 
HETATM   24  N   UNL     1      35.379  52.457  39.824  1.00  0.00    -0.282 N 
HETATM   25  H   UNL     1      35.579  53.006  38.995  1.00  0.00     0.189 HD
HETATM   26  N   UNL     1      36.407  52.092  40.595  1.00  0.00    -0.179 NA
HETATM   27  C   UNL     1      35.840  51.365  41.562  1.00  0.00     0.061 A 
HETATM   28  C   UNL     1      36.693  50.723  42.594  1.00  0.00     0.073 C 
ENDBRANCH   1  21
TORSDOF 5
ENDMDL
MODEL 3
REMARK VINA RESULT:      -7.8      1.775      2.454
REMARK  5 active torsions:
REMARK  status: ('A' for Active; 'I' for Inactive)
REMARK    1  A    between atoms: C_8  and  C_9 
REMARK       I    between atoms: N_10  and  C_11 
REMARK       I    between atoms: C_11  and  N_12 
REMARK    2  A    between atoms: N_12  and  C_13 
REMARK    3  A    between atoms: C_15  and  O_16 
REMARK    4  A    between atoms: O_16  and  C_17 
REMARK    5  A    between atoms: C_17  and  C_18 
ROOT
HETATM    1  C   UNL     1      26.521  43.740  53.333  1.00  0.00     0.126 C 
HETATM    2  N   UNL     1      26.401  44.775  52.307  1.00  0.00    -0.325 N 
HETATM    3  C   UNL     1      26.926  44.522  51.081  1.00  0.00     0.323 C 
HETATM    4  N   UNL     1      27.119  45.439  50.114  1.00  0.00    -0.309 N 
HETATM    5  O   UNL     1      27.400  43.407  50.818  1.00  0.00    -0.247 OA
HETATM    6  C   UNL     1      25.563  45.859  52.785  1.00  0.00     0.128 C 
HETATM    7  C   UNL     1      25.344  45.608  54.272  1.00  0.00     0.022 C 
HETATM    8  C   UNL     1      25.475  44.099  54.392  1.00  0.00     0.032 C 
HETATM    9  H   UNL     1      27.808  45.037  49.487  1.00  0.00     0.170 HD
ENDROOT
BRANCH   4  10
HETATM   10  C   UNL     1      26.733  46.737  49.761  1.00  0.00     0.039 A 
HETATM   11  C   UNL     1      25.433  47.229  49.757  1.00  0.00     0.066 A 
HETATM   12  C   UNL     1      25.159  48.554  49.380  1.00  0.00     0.071 A 
HETATM   13  C   UNL     1      26.194  49.370  48.927  1.00  0.00     0.037 A 
HETATM   14  C   UNL     1      27.491  48.869  48.860  1.00  0.00     0.005 A 
HETATM   15  C   UNL     1      27.754  47.563  49.270  1.00  0.00     0.030 A 
BRANCH  12  16
HETATM   16  O   UNL     1      23.844  48.921  49.494  1.00  0.00    -0.347 OA
BRANCH  16  17
HETATM   17  C   UNL     1      23.098  49.035  48.281  1.00  0.00     0.208 C 
BRANCH  17  18
HETATM   18  C   UNL     1      22.013  47.987  48.284  1.00  0.00    -0.069 C 
HETATM   19  C   UNL     1      20.674  48.431  48.805  1.00  0.00     0.044 C 
HETATM   20  C   UNL     1      22.213  46.741  47.821  1.00  0.00     0.016 C 
ENDBRANCH  17  18
ENDBRANCH  16  17
ENDBRANCH  12  16
ENDBRANCH   4  10
BRANCH   1  21
HETATM   21  C   UNL     1      27.926  43.665  53.888  1.00  0.00     0.014 A 
HETATM   22  C   UNL     1      28.731  44.617  54.506  1.00  0.00     0.034 A 
HETATM   23  C   UNL     1      28.561  46.051  54.837  1.00  0.00     0.070 C 
HETATM   24  N   UNL     1      29.900  43.977  54.814  1.00  0.00    -0.282 N 
HETATM   25  H   UNL     1      30.720  44.362  55.270  1.00  0.00     0.189 HD
HETATM   26  N   UNL     1      29.935  42.693  54.447  1.00  0.00    -0.179 NA
HETATM   27  C   UNL     1      28.755  42.498  53.852  1.00  0.00     0.061 A 
HETATM   28  C   UNL     1      28.448  41.176  53.246  1.00  0.00     0.073 C 
ENDBRANCH   1  21
TORSDOF 5
ENDMDL
MODEL 4
REMARK VINA RESULT:      -7.5     12.144     14.960
REMARK  5 active torsions:
REMARK  status: ('A' for Active; 'I' for Inactive)
REMARK    1  A    between atoms: C_8  and  C_9 
REMARK       I    between atoms: N_10  and  C_11 
REMARK       I    between atoms: C_11  and  N_12 
REMARK    2  A    between atoms: N_12  and  C_13 
REMARK    3  A    between atoms: C_15  and  O_16 
REMARK    4  A    between atoms: O_16  and  C_17 
REMARK    5  A    between atoms: C_17  and  C_18 
ROOT
HETATM    1  C   UNL     1      29.660  50.201  38.881  1.00  0.00     0.126 C 
HETATM    2  N   UNL     1      30.689  50.442  39.891  1.00  0.00    -0.325 N 
HETATM    3  C   UNL     1      31.299  49.367  40.451  1.00  0.00     0.323 C 
HETATM    4  N   UNL     1      32.076  49.398  41.550  1.00  0.00    -0.309 N 
HETATM    5  O   UNL     1      31.057  48.222  40.040  1.00  0.00    -0.247 OA
HETATM    6  C   UNL     1      30.977  51.862  39.985  1.00  0.00     0.128 C 
HETATM    7  C   UNL     1      29.904  52.570  39.166  1.00  0.00     0.022 C 
HETATM    8  C   UNL     1      29.510  51.528  38.133  1.00  0.00     0.032 C 
HETATM    9  H   UNL     1      32.096  48.447  41.901  1.00  0.00     0.170 HD
ENDROOT
BRANCH   4  10
HETATM   10  C   UNL     1      32.776  50.305  42.355  1.00  0.00     0.039 A 
HETATM   11  C   UNL     1      34.107  50.674  42.202  1.00  0.00     0.066 A 
HETATM   12  C   UNL     1      34.710  51.594  43.074  1.00  0.00     0.071 A 
HETATM   13  C   UNL     1      33.990  52.091  44.159  1.00  0.00     0.037 A 
HETATM   14  C   UNL     1      32.677  51.677  44.365  1.00  0.00     0.005 A 
HETATM   15  C   UNL     1      32.079  50.788  43.472  1.00  0.00     0.030 A 
BRANCH  12  16
HETATM   16  O   UNL     1      36.004  51.918  42.759  1.00  0.00    -0.347 OA
BRANCH  16  17
HETATM   17  C   UNL     1      36.902  52.123  43.850  1.00  0.00     0.208 C 
BRANCH  17  18
HETATM   18  C   UNL     1      37.298  53.579  43.880  1.00  0.00    -0.069 C 
HETATM   19  C   UNL     1      37.444  54.247  42.542  1.00  0.00     0.044 C 
HETATM   20  C   UNL     1      37.480  54.252  45.030  1.00  0.00     0.016 C 
ENDBRANCH  17  18
ENDBRANCH  16  17
ENDBRANCH  12  16
ENDBRANCH   4  10
BRANCH   1  21
HETATM   21  C   UNL     1      28.368  49.722  39.505  1.00  0.00     0.014 A 
HETATM   22  C   UNL     1      27.555  50.270  40.492  1.00  0.00     0.034 A 
HETATM   23  C   UNL     1      27.633  51.490  41.330  1.00  0.00     0.070 C 
HETATM   24  N   UNL     1      26.506  49.405  40.640  1.00  0.00    -0.282 N 
HETATM   25  H   UNL     1      25.719  49.482  41.275  1.00  0.00     0.189 HD
HETATM   26  N   UNL     1      26.562  48.336  39.841  1.00  0.00    -0.179 NA
HETATM   27  C   UNL     1      27.706  48.497  39.170  1.00  0.00     0.061 A 
HETATM   28  C   UNL     1      28.148  47.450  38.212  1.00  0.00     0.073 C 
ENDBRANCH   1  21
TORSDOF 5
ENDMDL
MODEL 5
REMARK VINA RESULT:      -7.4     11.618     13.808
REMARK  5 active torsions:
REMARK  status: ('A' for Active; 'I' for Inactive)
REMARK    1  A    between atoms: C_8  and  C_9 
REMARK       I    between atoms: N_10  and  C_11 
REMARK       I    between atoms: C_11  and  N_12 
REMARK    2  A    between atoms: N_12  and  C_13 
REMARK    3  A    between atoms: C_15  and  O_16 
REMARK    4  A    between atoms: O_16  and  C_17 
REMARK    5  A    between atoms: C_17  and  C_18 
ROOT
HETATM    1  C   UNL     1      34.441  50.857  41.009  1.00  0.00     0.126 C 
HETATM    2  N   UNL     1      33.040  51.020  40.623  1.00  0.00    -0.325 N 
HETATM    3  C   UNL     1      32.643  52.230  40.155  1.00  0.00     0.323 C 
HETATM    4  N   UNL     1      31.365  52.620  39.990  1.00  0.00    -0.309 N 
HETATM    5  O   UNL     1      33.471  53.134  39.967  1.00  0.00    -0.247 OA
HETATM    6  C   UNL     1      32.354  49.742  40.675  1.00  0.00     0.128 C 
HETATM    7  C   UNL     1      33.309  48.771  41.360  1.00  0.00     0.022 C 
HETATM    8  C   UNL     1      34.678  49.345  41.037  1.00  0.00     0.032 C 
HETATM    9  H   UNL     1      31.387  53.633  39.961  1.00  0.00     0.170 HD
ENDROOT
BRANCH   4  10
HETATM   10  C   UNL     1      30.072  52.087  39.918  1.00  0.00     0.039 A 
HETATM   11  C   UNL     1      29.478  51.258  40.862  1.00  0.00     0.066 A 
HETATM   12  C   UNL     1      28.170  50.777  40.685  1.00  0.00     0.071 A 
HETATM   13  C   UNL     1      27.481  51.068  39.508  1.00  0.00     0.037 A 
HETATM   14  C   UNL     1      28.090  51.840  38.524  1.00  0.00     0.005 A 
HETATM   15  C   UNL     1      29.376  52.340  38.727  1.00  0.00     0.030 A 
BRANCH  12  16
HETATM   16  O   UNL     1      27.688  50.031  41.728  1.00  0.00    -0.347 OA
BRANCH  16  17
HETATM   17  C   UNL     1      28.442  48.876  42.099  1.00  0.00     0.208 C 
BRANCH  17  18
HETATM   18  C   UNL     1      28.223  47.805  41.059  1.00  0.00    -0.069 C 
HETATM   19  C   UNL     1      29.451  47.340  40.327  1.00  0.00     0.044 C 
HETATM   20  C   UNL     1      27.014  47.270  40.820  1.00  0.00     0.016 C 
ENDBRANCH  17  18
ENDBRANCH  16  17
ENDBRANCH  12  16
ENDBRANCH   4  10
BRANCH   1  21
HETATM   21  C   UNL     1      34.737  51.529  42.331  1.00  0.00     0.014 A 
HETATM   22  C   UNL     1      33.967  51.701  43.477  1.00  0.00     0.034 A 
HETATM   23  C   UNL     1      32.580  51.337  43.850  1.00  0.00     0.070 C 
HETATM   24  N   UNL     1      34.761  52.371  44.367  1.00  0.00    -0.282 N 
HETATM   25  H   UNL     1      34.529  52.669  45.308  1.00  0.00     0.189 HD
HETATM   26  N   UNL     1      35.981  52.658  43.904  1.00  0.00    -0.179 NA
HETATM   27  C   UNL     1      35.970  52.183  42.655  1.00  0.00     0.061 A 
HETATM   28  C   UNL     1      37.158  52.377  41.785  1.00  0.00     0.073 C 
ENDBRANCH   1  21
TORSDOF 5
ENDMDL
MODEL 6
REMARK VINA RESULT:      -7.3     12.421     15.389
REMARK  5 active torsions:
REMARK  status: ('A' for Active; 'I' for Inactive)
REMARK    1  A    between atoms: C_8  and  C_9 
REMARK       I    between atoms: N_10  and  C_11 
REMARK       I    between atoms: C_11  and  N_12 
REMARK    2  A    between atoms: N_12  and  C_13 
REMARK    3  A    between atoms: C_15  and  O_16 
REMARK    4  A    between atoms: O_16  and  C_17 
REMARK    5  A    between atoms: C_17  and  C_18 
ROOT
HETATM    1  C   UNL     1      30.887  50.259  39.963  1.00  0.00     0.126 C 
HETATM    2  N   UNL     1      32.219  50.457  40.535  1.00  0.00    -0.325 N 
HETATM    3  C   UNL     1      32.510  49.836  41.706  1.00  0.00     0.323 C 
HETATM    4  N   UNL     1      33.577  50.100  42.483  1.00  0.00    -0.309 N 
HETATM    5  O   UNL     1      31.702  49.045  42.216  1.00  0.00    -0.247 OA
HETATM    6  C   UNL     1      33.057  51.193  39.607  1.00  0.00     0.128 C 
HETATM    7  C   UNL     1      32.136  51.692  38.501  1.00  0.00     0.022 C 
HETATM    8  C   UNL     1      31.015  50.667  38.494  1.00  0.00     0.032 C 
HETATM    9  H   UNL     1      33.345  49.744  43.403  1.00  0.00     0.170 HD
ENDROOT
BRANCH   4  10
HETATM   10  C   UNL     1      34.820  50.744  42.431  1.00  0.00     0.039 A 
HETATM   11  C   UNL     1      35.194  51.856  43.176  1.00  0.00     0.066 A 
HETATM   12  C   UNL     1      36.471  52.424  43.040  1.00  0.00     0.071 A 
HETATM   13  C   UNL     1      37.355  51.916  42.090  1.00  0.00     0.037 A 
HETATM   14  C   UNL     1      36.968  50.846  41.288  1.00  0.00     0.005 A 
HETATM   15  C   UNL     1      35.710  50.270  41.457  1.00  0.00     0.030 A 
BRANCH  12  16
HETATM   16  O   UNL     1      36.725  53.470  43.888  1.00  0.00    -0.347 OA
BRANCH  16  17
HETATM   17  C   UNL     1      37.479  53.177  45.066  1.00  0.00     0.208 C 
BRANCH  17  18
HETATM   18  C   UNL     1      37.941  54.478  45.676  1.00  0.00    -0.069 C 
HETATM   19  C   UNL     1      38.263  54.436  47.144  1.00  0.00     0.044 C 
HETATM   20  C   UNL     1      38.090  55.601  44.952  1.00  0.00     0.016 C 
ENDBRANCH  17  18
ENDBRANCH  16  17
ENDBRANCH  12  16
ENDBRANCH   4  10
BRANCH   1  21
HETATM   21  C   UNL     1      29.836  51.049  40.710  1.00  0.00     0.014 A 
HETATM   22  C   UNL     1      29.811  52.365  41.161  1.00  0.00     0.034 A 
HETATM   23  C   UNL     1      30.780  53.485  41.123  1.00  0.00     0.070 C 
HETATM   24  N   UNL     1      28.592  52.535  41.757  1.00  0.00    -0.282 N 
HETATM   25  H   UNL     1      28.226  53.371  42.201  1.00  0.00     0.189 HD
HETATM   26  N   UNL     1      27.818  51.447  41.742  1.00  0.00    -0.179 NA
HETATM   27  C   UNL     1      28.574  50.525  41.140  1.00  0.00     0.061 A 
HETATM   28  C   UNL     1      28.063  49.137  40.994  1.00  0.00     0.073 C 
ENDBRANCH   1  21
TORSDOF 5
ENDMDL
MODEL 7
REMARK VINA RESULT:      -7.2     16.844     19.095
REMARK  5 active torsions:
REMARK  status: ('A' for Active; 'I' for Inactive)
REMARK    1  A    between atoms: C_8  and  C_9 
REMARK       I    between atoms: N_10  and  C_11 
REMARK       I    between atoms: C_11  and  N_12 
REMARK    2  A    between atoms: N_12  and  C_13 
REMARK    3  A    between atoms: C_15  and  O_16 
REMARK    4  A    between atoms: O_16  and  C_17 
REMARK    5  A    between atoms: C_17  and  C_18 
ROOT
HETATM    1  C   UNL     1      38.819  48.732  65.858  1.00  0.00     0.126 C 
HETATM    2  N   UNL     1      38.304  47.428  65.441  1.00  0.00    -0.325 N 
HETATM    3  C   UNL     1      37.150  47.395  64.729  1.00  0.00     0.323 C 
HETATM    4  N   UNL     1      36.419  46.291  64.482  1.00  0.00    -0.309 N 
HETATM    5  O   UNL     1      36.608  48.448  64.360  1.00  0.00    -0.247 OA
HETATM    6  C   UNL     1      39.265  46.387  65.756  1.00  0.00     0.128 C 
HETATM    7  C   UNL     1      40.329  47.037  66.632  1.00  0.00     0.022 C 
HETATM    8  C   UNL     1      40.291  48.493  66.201  1.00  0.00     0.032 C 
HETATM    9  H   UNL     1      35.491  46.622  64.243  1.00  0.00     0.170 HD
ENDROOT
BRANCH   4  10
HETATM   10  C   UNL     1      36.523  44.895  64.518  1.00  0.00     0.039 A 
HETATM   11  C   UNL     1      37.274  44.110  63.652  1.00  0.00     0.066 A 
HETATM   12  C   UNL     1      37.301  42.712  63.777  1.00  0.00     0.071 A 
HETATM   13  C   UNL     1      36.504  42.090  64.737  1.00  0.00     0.037 A 
HETATM   14  C   UNL     1      35.693  42.859  65.566  1.00  0.00     0.005 A 
HETATM   15  C   UNL     1      35.701  44.249  65.453  1.00  0.00     0.030 A 
BRANCH  12  16
HETATM   16  O   UNL     1      38.140  42.075  62.902  1.00  0.00    -0.347 OA
BRANCH  16  17
HETATM   17  C   UNL     1      39.383  41.604  63.425  1.00  0.00     0.208 C 
BRANCH  17  18
HETATM   18  C   UNL     1      39.358  40.095  63.441  1.00  0.00    -0.069 C 
HETATM   19  C   UNL     1      39.038  39.458  64.765  1.00  0.00     0.044 C 
HETATM   20  C   UNL     1      39.574  39.359  62.337  1.00  0.00     0.016 C 
ENDBRANCH  17  18
ENDBRANCH  16  17
ENDBRANCH  12  16
ENDBRANCH   4  10
BRANCH   1  21
HETATM   21  C   UNL     1      38.024  49.302  67.012  1.00  0.00     0.014 A 
HETATM   22  C   UNL     1      37.484  48.708  68.148  1.00  0.00     0.034 A 
HETATM   23  C   UNL     1      37.439  47.319  68.662  1.00  0.00     0.070 C 
HETATM   24  N   UNL     1      36.883  49.717  68.850  1.00  0.00    -0.282 N 
HETATM   25  H   UNL     1      36.384  49.653  69.731  1.00  0.00     0.189 HD
HETATM   26  N   UNL     1      36.978  50.917  68.272  1.00  0.00    -0.179 NA
HETATM   27  C   UNL     1      37.639  50.675  67.137  1.00  0.00     0.061 A 
HETATM   28  C   UNL     1      37.882  51.784  66.178  1.00  0.00     0.073 C 
ENDBRANCH   1  21
TORSDOF 5
ENDMDL
MODEL 8
REMARK VINA RESULT:      -7.1     12.049     13.531
REMARK  5 active torsions:
REMARK  status: ('A' for Active; 'I' for Inactive)
REMARK    1  A    between atoms: C_8  and  C_9 
REMARK       I    between atoms: N_10  and  C_11 
REMARK       I    between atoms: C_11  and  N_12 
REMARK    2  A    between atoms: N_12  and  C_13 
REMARK    3  A    between atoms: C_15  and  O_16 
REMARK    4  A    between atoms: O_16  and  C_17 
REMARK    5  A    between atoms: C_17  and  C_18 
ROOT
HETATM    1  C   UNL     1      29.866  51.059  40.566  1.00  0.00     0.126 C 
HETATM    2  N   UNL     1      28.601  50.571  40.018  1.00  0.00    -0.325 N 
HETATM    3  C   UNL     1      27.767  49.890  40.844  1.00  0.00     0.323 C 
HETATM    4  N   UNL     1      26.698  49.172  40.451  1.00  0.00    -0.309 N 
HETATM    5  O   UNL     1      28.032  49.778  42.051  1.00  0.00    -0.247 OA
HETATM    6  C   UNL     1      28.412  51.075  38.670  1.00  0.00     0.128 C 
HETATM    7  C   UNL     1      29.734  51.712  38.261  1.00  0.00     0.022 C 
HETATM    8  C   UNL     1      30.339  52.138  39.588  1.00  0.00     0.032 C 
HETATM    9  H   UNL     1      26.499  48.535  41.214  1.00  0.00     0.170 HD
ENDROOT
BRANCH   4  10
HETATM   10  C   UNL     1      25.862  48.996  39.343  1.00  0.00     0.039 A 
HETATM   11  C   UNL     1      24.643  49.628  39.132  1.00  0.00     0.066 A 
HETATM   12  C   UNL     1      23.881  49.372  37.981  1.00  0.00     0.071 A 
HETATM   13  C   UNL     1      24.313  48.411  37.067  1.00  0.00     0.037 A 
HETATM   14  C   UNL     1      25.498  47.719  37.300  1.00  0.00     0.005 A 
HETATM   15  C   UNL     1      26.261  48.008  38.431  1.00  0.00     0.030 A 
BRANCH  12  16
HETATM   16  O   UNL     1      22.739  50.120  37.871  1.00  0.00    -0.347 OA
BRANCH  16  17
HETATM   17  C   UNL     1      21.588  49.648  38.573  1.00  0.00     0.208 C 
BRANCH  17  18
HETATM   18  C   UNL     1      20.877  50.832  39.182  1.00  0.00    -0.069 C 
HETATM   19  C   UNL     1      21.591  51.514  40.315  1.00  0.00     0.044 C 
HETATM   20  C   UNL     1      19.693  51.275  38.724  1.00  0.00     0.016 C 
ENDBRANCH  17  18
ENDBRANCH  16  17
ENDBRANCH  12  16
ENDBRANCH   4  10
BRANCH   1  21
HETATM   21  C   UNL     1      30.866  49.938  40.743  1.00  0.00     0.014 A 
HETATM   22  C   UNL     1      31.119  48.794  39.994  1.00  0.00     0.034 A 
HETATM   23  C   UNL     1      30.516  48.208  38.774  1.00  0.00     0.070 C 
HETATM   24  N   UNL     1      32.152  48.154  40.622  1.00  0.00    -0.282 N 
HETATM   25  H   UNL     1      32.599  47.284  40.356  1.00  0.00     0.189 HD
HETATM   26  N   UNL     1      32.594  48.774  41.719  1.00  0.00    -0.179 NA
HETATM   27  C   UNL     1      31.799  49.843  41.826  1.00  0.00     0.061 A 
HETATM   28  C   UNL     1      31.951  50.758  42.986  1.00  0.00     0.073 C 
ENDBRANCH   1  21
TORSDOF 5
ENDMDL
MODEL 9
REMARK VINA RESULT:      -7.0     11.925     13.294
REMARK  5 active torsions:
REMARK  status: ('A' for Active; 'I' for Inactive)
REMARK    1  A    between atoms: C_8  and  C_9 
REMARK       I    between atoms: N_10  and  C_11 
REMARK       I    between atoms: C_11  and  N_12 
REMARK    2  A    between atoms: N_12  and  C_13 
REMARK    3  A    between atoms: C_15  and  O_16 
REMARK    4  A    between atoms: O_16  and  C_17 
REMARK    5  A    between atoms: C_17  and  C_18 
ROOT
HETATM    1  C   UNL     1      30.332  51.425  42.121  1.00  0.00     0.126 C 
HETATM    2  N   UNL     1      29.778  50.273  41.411  1.00  0.00    -0.325 N 
HETATM    3  C   UNL     1      30.099  49.033  41.858  1.00  0.00     0.323 C 
HETATM    4  N   UNL     1      29.882  47.884  41.189  1.00  0.00    -0.309 N 
HETATM    5  O   UNL     1      30.759  48.890  42.898  1.00  0.00    -0.247 OA
HETATM    6  C   UNL     1      28.820  50.713  40.413  1.00  0.00     0.128 C 
HETATM    7  C   UNL     1      28.959  52.228  40.326  1.00  0.00     0.022 C 
HETATM    8  C   UNL     1      29.457  52.612  41.709  1.00  0.00     0.032 C 
HETATM    9  H   UNL     1      30.510  47.203  41.600  1.00  0.00     0.170 HD
ENDROOT
BRANCH   4  10
HETATM   10  C   UNL     1      29.144  47.384  40.110  1.00  0.00     0.039 A 
HETATM   11  C   UNL     1      27.768  47.194  40.081  1.00  0.00     0.066 A 
HETATM   12  C   UNL     1      27.128  46.680  38.942  1.00  0.00     0.071 A 
HETATM   13  C   UNL     1      27.891  46.279  37.845  1.00  0.00     0.037 A 
HETATM   14  C   UNL     1      29.277  46.399  37.886  1.00  0.00     0.005 A 
HETATM   15  C   UNL     1      29.895  46.943  39.012  1.00  0.00     0.030 A 
BRANCH  12  16
HETATM   16  O   UNL     1      25.763  46.615  39.031  1.00  0.00    -0.347 OA
BRANCH  16  17
HETATM   17  C   UNL     1      25.079  47.824  39.362  1.00  0.00     0.208 C 
BRANCH  17  18
HETATM   18  C   UNL     1      25.043  48.707  38.139  1.00  0.00    -0.069 C 
HETATM   19  C   UNL     1      25.852  49.971  38.218  1.00  0.00     0.044 C 
HETATM   20  C   UNL     1      24.357  48.375  37.031  1.00  0.00     0.016 C 
ENDBRANCH  17  18
ENDBRANCH  16  17
ENDBRANCH  12  16
ENDBRANCH   4  10
BRANCH   1  21
HETATM   21  C   UNL     1      31.796  51.627  41.800  1.00  0.00     0.014 A 
HETATM   22  C   UNL     1      32.477  51.712  40.590  1.00  0.00     0.034 A 
HETATM   23  C   UNL     1      32.068  51.614  39.169  1.00  0.00     0.070 C 
HETATM   24  N   UNL     1      33.791  51.915  40.911  1.00  0.00    -0.282 N 
HETATM   25  H   UNL     1      34.577  52.023  40.280  1.00  0.00     0.189 HD
HETATM   26  N   UNL     1      34.032  51.966  42.224  1.00  0.00    -0.179 NA
HETATM   27  C   UNL     1      32.835  51.757  42.778  1.00  0.00     0.061 A 
HETATM   28  C   UNL     1      32.713  51.679  44.257  1.00  0.00     0.073 C 
ENDBRANCH   1  21
TORSDOF 5
ENDMDL
MODEL 10
REMARK VINA RESULT:      -7.0     17.672     18.994
REMARK  5 active torsions:
REMARK  status: ('A' for Active; 'I' for Inactive)
REMARK    1  A    between atoms: C_8  and  C_9 
REMARK       I    between atoms: N_10  and  C_11 
REMARK       I    between atoms: C_11  and  N_12 
REMARK    2  A    between atoms: N_12  and  C_13 
REMARK    3  A    between atoms: C_15  and  O_16 
REMARK    4  A    between atoms: O_16  and  C_17 
REMARK    5  A    between atoms: C_17  and  C_18 
ROOT
HETATM    1  C   UNL     1      39.229  42.047  65.789  1.00  0.00     0.126 C 
HETATM    2  N   UNL     1      38.578  43.352  65.899  1.00  0.00    -0.325 N 
HETATM    3  C   UNL     1      37.226  43.403  65.791  1.00  0.00     0.323 C 
HETATM    4  N   UNL     1      36.500  44.525  65.625  1.00  0.00    -0.309 N 
HETATM    5  O   UNL     1      36.562  42.359  65.705  1.00  0.00    -0.247 OA
HETATM    6  C   UNL     1      39.547  44.365  66.276  1.00  0.00     0.128 C 
HETATM    7  C   UNL     1      40.918  43.709  66.160  1.00  0.00     0.022 C 
HETATM    8  C   UNL     1      40.620  42.239  66.397  1.00  0.00     0.032 C 
HETATM    9  H   UNL     1      35.608  44.224  65.249  1.00  0.00     0.170 HD
ENDROOT
BRANCH   4  10
HETATM   10  C   UNL     1      36.616  45.915  65.740  1.00  0.00     0.039 A 
HETATM   11  C   UNL     1      37.485  46.725  65.019  1.00  0.00     0.066 A 
HETATM   12  C   UNL     1      37.520  48.114  65.220  1.00  0.00     0.071 A 
HETATM   13  C   UNL     1      36.726  48.687  66.213  1.00  0.00     0.037 A 
HETATM   14  C   UNL     1      35.902  47.880  66.991  1.00  0.00     0.005 A 
HETATM   15  C   UNL     1      35.852  46.506  66.757  1.00  0.00     0.030 A 
BRANCH  12  16
HETATM   16  O   UNL     1      38.371  48.792  64.389  1.00  0.00    -0.347 OA
BRANCH  16  17
HETATM   17  C   UNL     1      39.447  49.501  65.005  1.00  0.00     0.208 C 
BRANCH  17  18
HETATM   18  C   UNL     1      40.413  48.497  65.587  1.00  0.00    -0.069 C 
HETATM   19  C   UNL     1      40.601  48.557  67.077  1.00  0.00     0.044 C 
HETATM   20  C   UNL     1      41.044  47.583  64.831  1.00  0.00     0.016 C 
ENDBRANCH  17  18
ENDBRANCH  16  17
ENDBRANCH  12  16
ENDBRANCH   4  10
BRANCH   1  21
HETATM   21  C   UNL     1      39.267  41.562  64.357  1.00  0.00     0.014 A 
HETATM   22  C   UNL     1      39.292  42.247  63.146  1.00  0.00     0.034 A 
HETATM   23  C   UNL     1      39.262  43.681  62.773  1.00  0.00     0.070 C 
HETATM   24  N   UNL     1      39.341  41.287  62.172  1.00  0.00    -0.282 N 
HETATM   25  H   UNL     1      39.368  41.420  61.167  1.00  0.00     0.189 HD
HETATM   26  N   UNL     1      39.345  40.035  62.637  1.00  0.00    -0.179 NA
HETATM   27  C   UNL     1      39.265  40.185  63.962  1.00  0.00     0.061 A 
HETATM   28  C   UNL     1      39.180  38.985  64.833  1.00  0.00     0.073 C 
ENDBRANCH   1  21
TORSDOF 5
ENDMDL
