MODEL 1
REMARK VINA RESULT:      -9.2      0.000      0.000
REMARK  4 active torsions:
REMARK  status: ('A' for Active; 'I' for Inactive)
REMARK    1  A    between atoms: C_2  and  C_3 
REMARK    2  A    between atoms: C_11  and  C_12 
REMARK       I    between atoms: C_12  and  N_13 
REMARK    3  A    between atoms: N_13  and  C_14 
REMARK    4  A    between atoms: C_21  and  C_22 
REMARK       I    between atoms: C_22  and  N_23 
ROOT
HETATM    1  C   UNL     1      22.229  49.101  49.170  1.00  0.00     0.035 A 
HETATM    2  C   UNL     1      23.383  48.389  49.517  1.00  0.00     0.046 A 
HETATM    3  C   UNL     1      24.644  48.835  49.064  1.00  0.00     0.030 A 
HETATM    4  C   UNL     1      24.716  49.986  48.292  1.00  0.00     0.063 A 
HETATM    5  N   UNL     1      26.044  50.159  48.019  1.00  0.00    -0.277 N 
HETATM    6  H   UNL     1      26.468  50.903  47.477  1.00  0.00     0.189 HD
HETATM    7  N   UNL     1      26.847  49.219  48.546  1.00  0.00    -0.168 NA
HETATM    8  C   UNL     1      25.996  48.394  49.197  1.00  0.00     0.156 A 
HETATM    9  C   UNL     1      23.593  50.732  47.939  1.00  0.00     0.034 A 
HETATM   10  C   UNL     1      22.353  50.265  48.397  1.00  0.00     0.032 A 
ENDROOT
BRANCH   1  11
HETATM   11  N   UNL     1      20.923  48.763  49.571  1.00  0.00    -0.324 N 
HETATM   12  C   UNL     1      19.741  48.585  48.914  1.00  0.00     0.246 C 
HETATM   13  O   UNL     1      18.768  48.163  49.536  1.00  0.00    -0.268 OA
HETATM   14  H   UNL     1      20.795  48.568  50.558  1.00  0.00     0.169 HD
BRANCH  12  15
HETATM   15  C   UNL     1      19.613  48.972  47.495  1.00  0.00     0.082 C 
HETATM   16  C   UNL     1      18.884  50.025  47.079  1.00  0.00    -0.043 C 
HETATM   17  C   UNL     1      18.808  50.428  45.634  1.00  0.00     0.049 C 
BRANCH  16  18
HETATM   18  C   UNL     1      18.093  50.850  48.008  1.00  0.00     0.009 A 
HETATM   19  C   UNL     1      18.678  51.915  48.706  1.00  0.00     0.130 A 
HETATM   20  F   UNL     1      19.970  52.225  48.513  1.00  0.00    -0.205 F 
HETATM   21  C   UNL     1      17.940  52.676  49.607  1.00  0.00     0.085 A 
HETATM   22  C   UNL     1      16.601  52.372  49.804  1.00  0.00     0.119 A 
HETATM   23  F   UNL     1      15.879  53.099  50.667  1.00  0.00    -0.206 F 
HETATM   24  C   UNL     1      15.990  51.325  49.117  1.00  0.00     0.043 A 
HETATM   25  C   UNL     1      16.737  50.560  48.219  1.00  0.00     0.018 A 
ENDBRANCH  16  18
ENDBRANCH  12  15
ENDBRANCH   1  11
BRANCH   8  26
HETATM   26  C   UNL     1      26.475  47.210  49.923  1.00  0.00     0.270 C 
HETATM   27  N   UNL     1      26.172  47.212  51.257  1.00  0.00    -0.365 N 
HETATM   28  H   UNL     1      25.663  48.001  51.638  1.00  0.00     0.159 HD
HETATM   29  H   UNL     1      26.467  46.445  51.841  1.00  0.00     0.159 HD
HETATM   30  O   UNL     1      27.096  46.286  49.409  1.00  0.00    -0.266 OA
ENDBRANCH   8  26
TORSDOF 4
ENDMDL
MODEL 2
REMARK VINA RESULT:      -9.0      0.942      1.354
REMARK  4 active torsions:
REMARK  status: ('A' for Active; 'I' for Inactive)
REMARK    1  A    between atoms: C_2  and  C_3 
REMARK    2  A    between atoms: C_11  and  C_12 
REMARK       I    between atoms: C_12  and  N_13 
REMARK    3  A    between atoms: N_13  and  C_14 
REMARK    4  A    between atoms: C_21  and  C_22 
REMARK       I    between atoms: C_22  and  N_23 
ROOT
HETATM    1  C   UNL     1      22.166  49.010  49.172  1.00  0.00     0.035 A 
HETATM    2  C   UNL     1      23.362  48.360  49.498  1.00  0.00     0.046 A 
HETATM    3  C   UNL     1      24.589  48.862  49.011  1.00  0.00     0.030 A 
HETATM    4  C   UNL     1      24.585  50.006  48.226  1.00  0.00     0.063 A 
HETATM    5  N   UNL     1      25.897  50.241  47.919  1.00  0.00    -0.277 N 
HETATM    6  H   UNL     1      26.271  50.999  47.360  1.00  0.00     0.189 HD
HETATM    7  N   UNL     1      26.757  49.347  48.437  1.00  0.00    -0.168 NA
HETATM    8  C   UNL     1      25.963  48.490  49.116  1.00  0.00     0.156 A 
HETATM    9  C   UNL     1      23.419  50.692  47.891  1.00  0.00     0.034 A 
HETATM   10  C   UNL     1      22.215  50.170  48.384  1.00  0.00     0.032 A 
ENDROOT
BRANCH   1  11
HETATM   11  N   UNL     1      20.888  48.614  49.607  1.00  0.00    -0.324 N 
HETATM   12  C   UNL     1      19.713  48.329  48.976  1.00  0.00     0.246 C 
HETATM   13  O   UNL     1      18.775  47.880  49.632  1.00  0.00    -0.268 OA
HETATM   14  H   UNL     1      20.784  48.462  50.605  1.00  0.00     0.169 HD
BRANCH  12  15
HETATM   15  C   UNL     1      19.546  48.633  47.541  1.00  0.00     0.082 C 
HETATM   16  C   UNL     1      18.876  49.709  47.086  1.00  0.00    -0.043 C 
HETATM   17  C   UNL     1      18.762  50.024  45.623  1.00  0.00     0.049 C 
BRANCH  16  18
HETATM   18  C   UNL     1      18.192  50.649  47.991  1.00  0.00     0.009 A 
HETATM   19  C   UNL     1      16.840  50.485  48.318  1.00  0.00     0.130 A 
HETATM   20  F   UNL     1      16.148  49.440  47.836  1.00  0.00    -0.205 F 
HETATM   21  C   UNL     1      16.185  51.391  49.146  1.00  0.00     0.085 A 
HETATM   22  C   UNL     1      16.895  52.467  49.659  1.00  0.00     0.119 A 
HETATM   23  F   UNL     1      16.277  53.343  50.461  1.00  0.00    -0.206 F 
HETATM   24  C   UNL     1      18.243  52.650  49.359  1.00  0.00     0.043 A 
HETATM   25  C   UNL     1      18.894  51.742  48.521  1.00  0.00     0.018 A 
ENDBRANCH  16  18
ENDBRANCH  12  15
ENDBRANCH   1  11
BRANCH   8  26
HETATM   26  C   UNL     1      26.517  47.339  49.843  1.00  0.00     0.270 C 
HETATM   27  N   UNL     1      26.245  47.341  51.183  1.00  0.00    -0.365 N 
HETATM   28  H   UNL     1      25.707  48.109  51.569  1.00  0.00     0.159 HD
HETATM   29  H   UNL     1      26.591  46.597  51.769  1.00  0.00     0.159 HD
HETATM   30  O   UNL     1      27.171  46.441  49.324  1.00  0.00    -0.266 OA
ENDBRANCH   8  26
TORSDOF 4
ENDMDL
MODEL 3
REMARK VINA RESULT:      -8.9     11.161     13.427
REMARK  4 active torsions:
REMARK  status: ('A' for Active; 'I' for Inactive)
REMARK    1  A    between atoms: C_2  and  C_3 
REMARK    2  A    between atoms: C_11  and  C_12 
REMARK       I    between atoms: C_12  and  N_13 
REMARK    3  A    between atoms: N_13  and  C_14 
REMARK    4  A    between atoms: C_21  and  C_22 
REMARK       I    between atoms: C_22  and  N_23 
ROOT
HETATM    1  C   UNL     1      32.394  49.833  42.299  1.00  0.00     0.035 A 
HETATM    2  C   UNL     1      33.703  49.986  41.827  1.00  0.00     0.046 A 
HETATM    3  C   UNL     1      34.556  50.940  42.425  1.00  0.00     0.030 A 
HETATM    4  C   UNL     1      34.081  51.700  43.485  1.00  0.00     0.063 A 
HETATM    5  N   UNL     1      35.121  52.512  43.845  1.00  0.00    -0.277 N 
HETATM    6  H   UNL     1      35.133  53.202  44.587  1.00  0.00     0.189 HD
HETATM    7  N   UNL     1      36.235  52.347  43.111  1.00  0.00    -0.168 NA
HETATM    8  C   UNL     1      35.901  51.377  42.230  1.00  0.00     0.156 A 
HETATM    9  C   UNL     1      32.791  51.567  43.994  1.00  0.00     0.034 A 
HETATM   10  C   UNL     1      31.963  50.618  43.379  1.00  0.00     0.032 A 
ENDROOT
BRANCH   1  11
HETATM   11  N   UNL     1      31.458  48.911  41.795  1.00  0.00    -0.324 N 
HETATM   12  C   UNL     1      31.092  48.514  40.543  1.00  0.00     0.246 C 
HETATM   13  O   UNL     1      30.307  47.575  40.418  1.00  0.00    -0.268 OA
HETATM   14  H   UNL     1      30.943  48.376  42.485  1.00  0.00     0.169 HD
BRANCH  12  15
HETATM   15  C   UNL     1      31.567  49.256  39.358  1.00  0.00     0.082 C 
HETATM   16  C   UNL     1      31.065  50.446  38.980  1.00  0.00    -0.043 C 
HETATM   17  C   UNL     1      31.598  51.204  37.799  1.00  0.00     0.049 C 
BRANCH  16  18
HETATM   18  C   UNL     1      29.944  51.088  39.689  1.00  0.00     0.009 A 
HETATM   19  C   UNL     1      30.166  52.129  40.601  1.00  0.00     0.130 A 
HETATM   20  F   UNL     1      31.409  52.586  40.818  1.00  0.00    -0.205 F 
HETATM   21  C   UNL     1      29.111  52.714  41.294  1.00  0.00     0.085 A 
HETATM   22  C   UNL     1      27.821  52.256  41.066  1.00  0.00     0.119 A 
HETATM   23  F   UNL     1      26.797  52.814  41.726  1.00  0.00    -0.206 F 
HETATM   24  C   UNL     1      27.570  51.230  40.160  1.00  0.00     0.043 A 
HETATM   25  C   UNL     1      28.633  50.641  39.471  1.00  0.00     0.018 A 
ENDBRANCH  16  18
ENDBRANCH  12  15
ENDBRANCH   1  11
BRANCH   8  26
HETATM   26  C   UNL     1      36.855  50.890  41.224  1.00  0.00     0.270 C 
HETATM   27  N   UNL     1      38.095  50.599  41.725  1.00  0.00    -0.365 N 
HETATM   28  H   UNL     1      38.265  50.739  42.714  1.00  0.00     0.159 HD
HETATM   29  H   UNL     1      38.820  50.265  41.110  1.00  0.00     0.159 HD
HETATM   30  O   UNL     1      36.595  50.747  40.034  1.00  0.00    -0.266 OA
ENDBRANCH   8  26
TORSDOF 4
ENDMDL
MODEL 4
REMARK VINA RESULT:      -8.9     11.565     14.450
REMARK  4 active torsions:
REMARK  status: ('A' for Active; 'I' for Inactive)
REMARK    1  A    between atoms: C_2  and  C_3 
REMARK    2  A    between atoms: C_11  and  C_12 
REMARK       I    between atoms: C_12  and  N_13 
REMARK    3  A    between atoms: N_13  and  C_14 
REMARK    4  A    between atoms: C_21  and  C_22 
REMARK       I    between atoms: C_22  and  N_23 
ROOT
HETATM    1  C   UNL     1      30.164  52.093  41.799  1.00  0.00     0.035 A 
HETATM    2  C   UNL     1      29.358  51.004  41.450  1.00  0.00     0.046 A 
HETATM    3  C   UNL     1      28.561  51.065  40.285  1.00  0.00     0.030 A 
HETATM    4  C   UNL     1      28.605  52.207  39.498  1.00  0.00     0.063 A 
HETATM    5  N   UNL     1      27.746  51.967  38.461  1.00  0.00    -0.277 N 
HETATM    6  H   UNL     1      27.528  52.585  37.688  1.00  0.00     0.189 HD
HETATM    7  N   UNL     1      27.145  50.766  38.504  1.00  0.00    -0.168 NA
HETATM    8  C   UNL     1      27.640  50.196  39.626  1.00  0.00     0.156 A 
HETATM    9  C   UNL     1      29.406  53.307  39.801  1.00  0.00     0.034 A 
HETATM   10  C   UNL     1      30.182  53.221  40.965  1.00  0.00     0.032 A 
ENDROOT
BRANCH   1  11
HETATM   11  N   UNL     1      31.008  52.144  42.924  1.00  0.00    -0.324 N 
HETATM   12  C   UNL     1      31.936  51.299  43.457  1.00  0.00     0.246 C 
HETATM   13  O   UNL     1      32.619  51.682  44.405  1.00  0.00    -0.268 OA
HETATM   14  H   UNL     1      30.974  52.999  43.468  1.00  0.00     0.169 HD
BRANCH  12  15
HETATM   15  C   UNL     1      32.058  49.916  42.955  1.00  0.00     0.082 C 
HETATM   16  C   UNL     1      32.846  49.572  41.919  1.00  0.00    -0.043 C 
HETATM   17  C   UNL     1      32.991  48.150  41.459  1.00  0.00     0.049 C 
BRANCH  16  18
HETATM   18  C   UNL     1      33.613  50.567  41.150  1.00  0.00     0.009 A 
HETATM   19  C   UNL     1      33.132  51.068  39.933  1.00  0.00     0.130 A 
HETATM   20  F   UNL     1      31.940  50.673  39.462  1.00  0.00    -0.205 F 
HETATM   21  C   UNL     1      33.870  51.984  39.191  1.00  0.00     0.085 A 
HETATM   22  C   UNL     1      35.099  52.408  39.677  1.00  0.00     0.119 A 
HETATM   23  F   UNL     1      35.817  53.292  38.973  1.00  0.00    -0.206 F 
HETATM   24  C   UNL     1      35.598  51.934  40.888  1.00  0.00     0.043 A 
HETATM   25  C   UNL     1      34.856  51.010  41.626  1.00  0.00     0.018 A 
ENDBRANCH  16  18
ENDBRANCH  12  15
ENDBRANCH   1  11
BRANCH   8  26
HETATM   26  C   UNL     1      27.230  48.850  40.052  1.00  0.00     0.270 C 
HETATM   27  N   UNL     1      26.484  48.830  41.198  1.00  0.00    -0.365 N 
HETATM   28  H   UNL     1      26.279  49.709  41.660  1.00  0.00     0.159 HD
HETATM   29  H   UNL     1      26.163  47.952  41.574  1.00  0.00     0.159 HD
HETATM   30  O   UNL     1      27.517  47.818  39.455  1.00  0.00    -0.266 OA
ENDBRANCH   8  26
TORSDOF 4
ENDMDL
MODEL 5
REMARK VINA RESULT:      -8.7      5.968      9.825
REMARK  4 active torsions:
REMARK  status: ('A' for Active; 'I' for Inactive)
REMARK    1  A    between atoms: C_2  and  C_3 
REMARK    2  A    between atoms: C_11  and  C_12 
REMARK       I    between atoms: C_12  and  N_13 
REMARK    3  A    between atoms: N_13  and  C_14 
REMARK    4  A    between atoms: C_21  and  C_22 
REMARK       I    between atoms: C_22  and  N_23 
ROOT
HETATM    1  C   UNL     1      26.806  44.200  50.571  1.00  0.00     0.035 A 
HETATM    2  C   UNL     1      26.079  45.386  50.421  1.00  0.00     0.046 A 
HETATM    3  C   UNL     1      24.847  45.371  49.728  1.00  0.00     0.030 A 
HETATM    4  C   UNL     1      24.374  44.170  49.220  1.00  0.00     0.063 A 
HETATM    5  N   UNL     1      23.183  44.473  48.620  1.00  0.00    -0.277 N 
HETATM    6  H   UNL     1      22.556  43.836  48.144  1.00  0.00     0.189 HD
HETATM    7  N   UNL     1      22.838  45.770  48.694  1.00  0.00    -0.168 NA
HETATM    8  C   UNL     1      23.857  46.338  49.377  1.00  0.00     0.156 A 
HETATM    9  C   UNL     1      25.060  42.965  49.362  1.00  0.00     0.034 A 
HETATM   10  C   UNL     1      26.280  43.008  50.049  1.00  0.00     0.032 A 
ENDROOT
BRANCH   1  11
HETATM   11  N   UNL     1      28.033  44.087  51.250  1.00  0.00    -0.324 N 
HETATM   12  C   UNL     1      28.434  43.467  52.397  1.00  0.00     0.246 C 
HETATM   13  O   UNL     1      29.631  43.444  52.678  1.00  0.00    -0.268 OA
HETATM   14  H   UNL     1      28.833  44.522  50.801  1.00  0.00     0.169 HD
BRANCH  12  15
HETATM   15  C   UNL     1      27.434  42.906  53.327  1.00  0.00     0.082 C 
HETATM   16  C   UNL     1      26.785  43.643  54.248  1.00  0.00    -0.043 C 
HETATM   17  C   UNL     1      25.737  43.058  55.150  1.00  0.00     0.049 C 
BRANCH  16  18
HETATM   18  C   UNL     1      27.064  45.075  54.448  1.00  0.00     0.009 A 
HETATM   19  C   UNL     1      28.211  45.500  55.131  1.00  0.00     0.130 A 
HETATM   20  F   UNL     1      29.099  44.603  55.588  1.00  0.00    -0.205 F 
HETATM   21  C   UNL     1      28.459  46.851  55.349  1.00  0.00     0.085 A 
HETATM   22  C   UNL     1      27.553  47.786  54.869  1.00  0.00     0.119 A 
HETATM   23  F   UNL     1      27.783  49.091  55.069  1.00  0.00    -0.206 F 
HETATM   24  C   UNL     1      26.409  47.394  54.178  1.00  0.00     0.043 A 
HETATM   25  C   UNL     1      26.161  46.036  53.969  1.00  0.00     0.018 A 
ENDBRANCH  16  18
ENDBRANCH  12  15
ENDBRANCH   1  11
BRANCH   8  26
HETATM   26  C   UNL     1      23.874  47.776  49.679  1.00  0.00     0.270 C 
HETATM   27  N   UNL     1      22.641  48.367  49.652  1.00  0.00    -0.365 N 
HETATM   28  H   UNL     1      21.834  47.797  49.428  1.00  0.00     0.159 HD
HETATM   29  H   UNL     1      22.552  49.354  49.837  1.00  0.00     0.159 HD
HETATM   30  O   UNL     1      24.888  48.418  49.934  1.00  0.00    -0.266 OA
ENDBRANCH   8  26
TORSDOF 4
ENDMDL
MODEL 6
REMARK VINA RESULT:      -8.7     12.802     15.146
REMARK  4 active torsions:
REMARK  status: ('A' for Active; 'I' for Inactive)
REMARK    1  A    between atoms: C_2  and  C_3 
REMARK    2  A    between atoms: C_11  and  C_12 
REMARK       I    between atoms: C_12  and  N_13 
REMARK    3  A    between atoms: N_13  and  C_14 
REMARK    4  A    between atoms: C_21  and  C_22 
REMARK       I    between atoms: C_22  and  N_23 
ROOT
HETATM    1  C   UNL     1      30.415  48.088  39.490  1.00  0.00     0.035 A 
HETATM    2  C   UNL     1      30.120  49.432  39.237  1.00  0.00     0.046 A 
HETATM    3  C   UNL     1      28.844  49.790  38.746  1.00  0.00     0.030 A 
HETATM    4  C   UNL     1      27.899  48.795  38.536  1.00  0.00     0.063 A 
HETATM    5  N   UNL     1      26.787  49.442  38.072  1.00  0.00    -0.277 N 
HETATM    6  H   UNL     1      25.899  49.029  37.815  1.00  0.00     0.189 HD
HETATM    7  N   UNL     1      26.926  50.775  37.961  1.00  0.00    -0.168 NA
HETATM    8  C   UNL     1      28.192  51.004  38.375  1.00  0.00     0.156 A 
HETATM    9  C   UNL     1      28.148  47.448  38.791  1.00  0.00     0.034 A 
HETATM   10  C   UNL     1      29.422  47.120  39.273  1.00  0.00     0.032 A 
ENDROOT
BRANCH   1  11
HETATM   11  N   UNL     1      31.641  47.612  39.992  1.00  0.00    -0.324 N 
HETATM   12  C   UNL     1      32.312  47.767  41.168  1.00  0.00     0.246 C 
HETATM   13  O   UNL     1      33.334  47.111  41.364  1.00  0.00    -0.268 OA
HETATM   14  H   UNL     1      32.156  46.982  39.386  1.00  0.00     0.169 HD
BRANCH  12  15
HETATM   15  C   UNL     1      31.864  48.770  42.155  1.00  0.00     0.082 C 
HETATM   16  C   UNL     1      32.373  50.014  42.229  1.00  0.00    -0.043 C 
HETATM   17  C   UNL     1      31.866  51.031  43.210  1.00  0.00     0.049 C 
BRANCH  16  18
HETATM   18  C   UNL     1      33.475  50.465  41.362  1.00  0.00     0.009 A 
HETATM   19  C   UNL     1      33.232  51.275  40.245  1.00  0.00     0.130 A 
HETATM   20  F   UNL     1      31.986  51.684  39.963  1.00  0.00    -0.205 F 
HETATM   21  C   UNL     1      34.269  51.676  39.408  1.00  0.00     0.085 A 
HETATM   22  C   UNL     1      35.563  51.268  39.699  1.00  0.00     0.119 A 
HETATM   23  F   UNL     1      36.570  51.650  38.903  1.00  0.00    -0.206 F 
HETATM   24  C   UNL     1      35.836  50.471  40.808  1.00  0.00     0.043 A 
HETATM   25  C   UNL     1      34.791  50.066  41.641  1.00  0.00     0.018 A 
ENDBRANCH  16  18
ENDBRANCH  12  15
ENDBRANCH   1  11
BRANCH   8  26
HETATM   26  C   UNL     1      28.757  52.361  38.407  1.00  0.00     0.270 C 
HETATM   27  N   UNL     1      28.863  52.891  39.663  1.00  0.00    -0.365 N 
HETATM   28  H   UNL     1      28.552  52.338  40.453  1.00  0.00     0.159 HD
HETATM   29  H   UNL     1      29.232  53.822  39.787  1.00  0.00     0.159 HD
HETATM   30  O   UNL     1      29.110  52.988  37.414  1.00  0.00    -0.266 OA
ENDBRANCH   8  26
TORSDOF 4
ENDMDL
MODEL 7
REMARK VINA RESULT:      -8.7      6.073      9.302
REMARK  4 active torsions:
REMARK  status: ('A' for Active; 'I' for Inactive)
REMARK    1  A    between atoms: C_2  and  C_3 
REMARK    2  A    between atoms: C_11  and  C_12 
REMARK       I    between atoms: C_12  and  N_13 
REMARK    3  A    between atoms: N_13  and  C_14 
REMARK    4  A    between atoms: C_21  and  C_22 
REMARK       I    between atoms: C_22  and  N_23 
ROOT
HETATM    1  C   UNL     1      27.774  45.804  54.120  1.00  0.00     0.035 A 
HETATM    2  C   UNL     1      28.537  45.875  55.292  1.00  0.00     0.046 A 
HETATM    3  C   UNL     1      29.487  44.868  55.573  1.00  0.00     0.030 A 
HETATM    4  C   UNL     1      29.655  43.829  54.668  1.00  0.00     0.063 A 
HETATM    5  N   UNL     1      30.628  43.032  55.206  1.00  0.00    -0.277 N 
HETATM    6  H   UNL     1      31.010  42.179  54.815  1.00  0.00     0.189 HD
HETATM    7  N   UNL     1      31.109  43.463  56.386  1.00  0.00    -0.168 NA
HETATM    8  C   UNL     1      30.414  44.597  56.624  1.00  0.00     0.156 A 
HETATM    9  C   UNL     1      28.928  43.730  53.483  1.00  0.00     0.034 A 
HETATM   10  C   UNL     1      27.989  44.740  53.231  1.00  0.00     0.032 A 
ENDROOT
BRANCH   1  11
HETATM   11  N   UNL     1      26.811  46.751  53.727  1.00  0.00    -0.324 N 
HETATM   12  C   UNL     1      25.762  46.737  52.856  1.00  0.00     0.246 C 
HETATM   13  O   UNL     1      25.005  47.706  52.814  1.00  0.00    -0.268 OA
HETATM   14  H   UNL     1      26.850  47.649  54.197  1.00  0.00     0.169 HD
BRANCH  12  15
HETATM   15  C   UNL     1      25.587  45.609  51.920  1.00  0.00     0.082 C 
HETATM   16  C   UNL     1      25.735  45.724  50.587  1.00  0.00    -0.043 C 
HETATM   17  C   UNL     1      25.600  44.551  49.659  1.00  0.00     0.049 C 
BRANCH  16  18
HETATM   18  C   UNL     1      26.026  47.014  49.937  1.00  0.00     0.009 A 
HETATM   19  C   UNL     1      24.996  47.898  49.589  1.00  0.00     0.130 A 
HETATM   20  F   UNL     1      23.720  47.597  49.875  1.00  0.00    -0.205 F 
HETATM   21  C   UNL     1      25.268  49.101  48.946  1.00  0.00     0.085 A 
HETATM   22  C   UNL     1      26.586  49.426  48.658  1.00  0.00     0.119 A 
HETATM   23  F   UNL     1      26.860  50.584  48.042  1.00  0.00    -0.206 F 
HETATM   24  C   UNL     1      27.631  48.572  49.001  1.00  0.00     0.043 A 
HETATM   25  C   UNL     1      27.352  47.362  49.639  1.00  0.00     0.018 A 
ENDBRANCH  16  18
ENDBRANCH  12  15
ENDBRANCH   1  11
BRANCH   8  26
HETATM   26  C   UNL     1      30.637  45.396  57.837  1.00  0.00     0.270 C 
HETATM   27  N   UNL     1      31.661  44.944  58.623  1.00  0.00    -0.365 N 
HETATM   28  H   UNL     1      32.172  44.119  58.329  1.00  0.00     0.159 HD
HETATM   29  H   UNL     1      31.885  45.421  59.482  1.00  0.00     0.159 HD
HETATM   30  O   UNL     1      29.979  46.383  58.147  1.00  0.00    -0.266 OA
ENDBRANCH   8  26
TORSDOF 4
ENDMDL
MODEL 8
REMARK VINA RESULT:      -8.7     11.151     14.796
REMARK  4 active torsions:
REMARK  status: ('A' for Active; 'I' for Inactive)
REMARK    1  A    between atoms: C_2  and  C_3 
REMARK    2  A    between atoms: C_11  and  C_12 
REMARK       I    between atoms: C_12  and  N_13 
REMARK    3  A    between atoms: N_13  and  C_14 
REMARK    4  A    between atoms: C_21  and  C_22 
REMARK       I    between atoms: C_22  and  N_23 
ROOT
HETATM    1  C   UNL     1      30.481  48.799  39.548  1.00  0.00     0.035 A 
HETATM    2  C   UNL     1      29.156  48.399  39.757  1.00  0.00     0.046 A 
HETATM    3  C   UNL     1      28.097  49.204  39.280  1.00  0.00     0.030 A 
HETATM    4  C   UNL     1      28.395  50.374  38.596  1.00  0.00     0.063 A 
HETATM    5  N   UNL     1      27.185  50.919  38.264  1.00  0.00    -0.277 N 
HETATM    6  H   UNL     1      27.017  51.779  37.756  1.00  0.00     0.189 HD
HETATM    7  N   UNL     1      26.123  50.203  38.672  1.00  0.00    -0.168 NA
HETATM    8  C   UNL     1      26.671  49.139  39.300  1.00  0.00     0.156 A 
HETATM    9  C   UNL     1      29.700  50.800  38.354  1.00  0.00     0.034 A 
HETATM   10  C   UNL     1      30.731  49.986  38.842  1.00  0.00     0.032 A 
ENDROOT
BRANCH   1  11
HETATM   11  N   UNL     1      31.616  48.078  39.963  1.00  0.00    -0.324 N 
HETATM   12  C   UNL     1      32.290  47.960  41.142  1.00  0.00     0.246 C 
HETATM   13  O   UNL     1      33.200  47.137  41.231  1.00  0.00    -0.268 OA
HETATM   14  H   UNL     1      32.037  47.471  39.268  1.00  0.00     0.169 HD
BRANCH  12  15
HETATM   15  C   UNL     1      31.987  48.866  42.267  1.00  0.00     0.082 C 
HETATM   16  C   UNL     1      32.570  50.069  42.426  1.00  0.00    -0.043 C 
HETATM   17  C   UNL     1      32.208  50.994  43.552  1.00  0.00     0.049 C 
BRANCH  16  18
HETATM   18  C   UNL     1      33.617  50.562  41.515  1.00  0.00     0.009 A 
HETATM   19  C   UNL     1      33.351  51.582  40.591  1.00  0.00     0.130 A 
HETATM   20  F   UNL     1      32.138  52.154  40.544  1.00  0.00    -0.205 F 
HETATM   21  C   UNL     1      34.330  52.026  39.709  1.00  0.00     0.085 A 
HETATM   22  C   UNL     1      35.591  51.448  39.758  1.00  0.00     0.119 A 
HETATM   23  F   UNL     1      36.543  51.870  38.916  1.00  0.00    -0.206 F 
HETATM   24  C   UNL     1      35.887  50.440  40.672  1.00  0.00     0.043 A 
HETATM   25  C   UNL     1      34.898  49.992  41.551  1.00  0.00     0.018 A 
ENDBRANCH  16  18
ENDBRANCH  12  15
ENDBRANCH   1  11
BRANCH   8  26
HETATM   26  C   UNL     1      25.839  48.091  39.908  1.00  0.00     0.270 C 
HETATM   27  N   UNL     1      25.904  48.049  41.273  1.00  0.00    -0.365 N 
HETATM   28  H   UNL     1      26.502  48.712  41.753  1.00  0.00     0.159 HD
HETATM   29  H   UNL     1      25.375  47.357  41.781  1.00  0.00     0.159 HD
HETATM   30  O   UNL     1      25.140  47.308  39.275  1.00  0.00    -0.266 OA
ENDBRANCH   8  26
TORSDOF 4
ENDMDL
MODEL 9
REMARK VINA RESULT:      -8.5      6.444      9.141
REMARK  4 active torsions:
REMARK  status: ('A' for Active; 'I' for Inactive)
REMARK    1  A    between atoms: C_2  and  C_3 
REMARK    2  A    between atoms: C_11  and  C_12 
REMARK       I    between atoms: C_12  and  N_13 
REMARK    3  A    between atoms: N_13  and  C_14 
REMARK    4  A    between atoms: C_21  and  C_22 
REMARK       I    between atoms: C_22  and  N_23 
ROOT
HETATM    1  C   UNL     1      27.444  43.639  52.607  1.00  0.00     0.035 A 
HETATM    2  C   UNL     1      27.332  42.956  51.391  1.00  0.00     0.046 A 
HETATM    3  C   UNL     1      27.915  41.677  51.248  1.00  0.00     0.030 A 
HETATM    4  C   UNL     1      28.579  41.115  52.329  1.00  0.00     0.063 A 
HETATM    5  N   UNL     1      29.020  39.897  51.891  1.00  0.00    -0.277 N 
HETATM    6  H   UNL     1      29.544  39.207  52.417  1.00  0.00     0.189 HD
HETATM    7  N   UNL     1      28.701  39.616  50.616  1.00  0.00    -0.168 NA
HETATM    8  C   UNL     1      28.016  40.707  50.206  1.00  0.00     0.156 A 
HETATM    9  C   UNL     1      28.699  41.754  53.562  1.00  0.00     0.034 A 
HETATM   10  C   UNL     1      28.116  43.024  53.675  1.00  0.00     0.032 A 
ENDROOT
BRANCH   1  11
HETATM   11  N   UNL     1      26.896  44.908  52.873  1.00  0.00    -0.324 N 
HETATM   12  C   UNL     1      25.736  45.535  52.528  1.00  0.00     0.246 C 
HETATM   13  O   UNL     1      25.476  46.630  53.026  1.00  0.00    -0.268 OA
HETATM   14  H   UNL     1      27.439  45.509  53.483  1.00  0.00     0.169 HD
BRANCH  12  15
HETATM   15  C   UNL     1      24.846  44.946  51.508  1.00  0.00     0.082 C 
HETATM   16  C   UNL     1      24.745  45.420  50.252  1.00  0.00    -0.043 C 
HETATM   17  C   UNL     1      23.869  44.773  49.218  1.00  0.00     0.049 C 
BRANCH  16  18
HETATM   18  C   UNL     1      25.474  46.618  49.802  1.00  0.00     0.009 A 
HETATM   19  C   UNL     1      26.851  46.572  49.542  1.00  0.00     0.130 A 
HETATM   20  F   UNL     1      27.525  45.419  49.666  1.00  0.00    -0.205 F 
HETATM   21  C   UNL     1      27.546  47.711  49.149  1.00  0.00     0.085 A 
HETATM   22  C   UNL     1      26.855  48.905  49.005  1.00  0.00     0.119 A 
HETATM   23  F   UNL     1      27.513  50.007  48.623  1.00  0.00    -0.206 F 
HETATM   24  C   UNL     1      25.485  48.978  49.248  1.00  0.00     0.043 A 
HETATM   25  C   UNL     1      24.793  47.834  49.650  1.00  0.00     0.018 A 
ENDBRANCH  16  18
ENDBRANCH  12  15
ENDBRANCH   1  11
BRANCH   8  26
HETATM   26  C   UNL     1      27.478  40.811  48.842  1.00  0.00     0.270 C 
HETATM   27  N   UNL     1      26.456  39.943  48.578  1.00  0.00    -0.365 N 
HETATM   28  H   UNL     1      26.155  39.308  49.309  1.00  0.00     0.159 HD
HETATM   29  H   UNL     1      26.027  39.933  47.665  1.00  0.00     0.159 HD
HETATM   30  O   UNL     1      27.890  41.595  47.993  1.00  0.00    -0.266 OA
ENDBRANCH   8  26
TORSDOF 4
ENDMDL
MODEL 10
REMARK VINA RESULT:      -8.5      8.536     11.161
REMARK  4 active torsions:
REMARK  status: ('A' for Active; 'I' for Inactive)
REMARK    1  A    between atoms: C_2  and  C_3 
REMARK    2  A    between atoms: C_11  and  C_12 
REMARK       I    between atoms: C_12  and  N_13 
REMARK    3  A    between atoms: N_13  and  C_14 
REMARK    4  A    between atoms: C_21  and  C_22 
REMARK       I    between atoms: C_22  and  N_23 
ROOT
HETATM    1  C   UNL     1      26.096  43.861  50.482  1.00  0.00     0.035 A 
HETATM    2  C   UNL     1      26.973  42.772  50.435  1.00  0.00     0.046 A 
HETATM    3  C   UNL     1      26.558  41.563  49.834  1.00  0.00     0.030 A 
HETATM    4  C   UNL     1      25.286  41.483  49.286  1.00  0.00     0.063 A 
HETATM    5  N   UNL     1      25.183  40.215  48.786  1.00  0.00    -0.277 N 
HETATM    6  H   UNL     1      24.388  39.804  48.311  1.00  0.00     0.189 HD
HETATM    7  N   UNL     1      26.281  39.458  48.961  1.00  0.00    -0.168 NA
HETATM    8  C   UNL     1      27.140  40.279  49.606  1.00  0.00     0.156 A 
HETATM    9  C   UNL     1      24.388  42.549  49.298  1.00  0.00     0.034 A 
HETATM   10  C   UNL     1      24.823  43.736  49.904  1.00  0.00     0.032 A 
ENDROOT
BRANCH   1  11
HETATM   11  N   UNL     1      26.399  45.117  51.039  1.00  0.00    -0.324 N 
HETATM   12  C   UNL     1      26.211  45.685  52.264  1.00  0.00     0.246 C 
HETATM   13  O   UNL     1      26.706  46.788  52.494  1.00  0.00    -0.268 OA
HETATM   14  H   UNL     1      26.900  45.763  50.438  1.00  0.00     0.169 HD
BRANCH  12  15
HETATM   15  C   UNL     1      25.357  45.022  53.270  1.00  0.00     0.082 C 
HETATM   16  C   UNL     1      25.847  44.357  54.332  1.00  0.00    -0.043 C 
HETATM   17  C   UNL     1      24.957  43.733  55.368  1.00  0.00     0.049 C 
BRANCH  16  18
HETATM   18  C   UNL     1      27.292  44.178  54.551  1.00  0.00     0.009 A 
HETATM   19  C   UNL     1      27.945  43.004  54.152  1.00  0.00     0.130 A 
HETATM   20  F   UNL     1      27.265  42.030  53.528  1.00  0.00    -0.205 F 
HETATM   21  C   UNL     1      29.304  42.822  54.387  1.00  0.00     0.085 A 
HETATM   22  C   UNL     1      30.018  43.829  55.019  1.00  0.00     0.119 A 
HETATM   23  F   UNL     1      31.327  43.667  55.248  1.00  0.00    -0.206 F 
HETATM   24  C   UNL     1      29.398  45.011  55.419  1.00  0.00     0.043 A 
HETATM   25  C   UNL     1      28.032  45.186  55.187  1.00  0.00     0.018 A 
ENDBRANCH  16  18
ENDBRANCH  12  15
ENDBRANCH   1  11
BRANCH   8  26
HETATM   26  C   UNL     1      28.485  39.832  49.996  1.00  0.00     0.270 C 
HETATM   27  N   UNL     1      28.764  39.996  51.325  1.00  0.00    -0.365 N 
HETATM   28  H   UNL     1      28.055  40.403  51.924  1.00  0.00     0.159 HD
HETATM   29  H   UNL     1      29.666  39.727  51.686  1.00  0.00     0.159 HD
HETATM   30  O   UNL     1      29.307  39.354  49.222  1.00  0.00    -0.266 OA
ENDBRANCH   8  26
TORSDOF 4
ENDMDL
