MODEL 1
REMARK VINA RESULT:     -10.6      0.000      0.000
REMARK  7 active torsions:
REMARK  status: ('A' for Active; 'I' for Inactive)
REMARK    1  A    between atoms: C_4  and  C_5 
REMARK    2  A    between atoms: C_5  and  C_6 
REMARK    3  A    between atoms: C_8  and  C_9 
REMARK    4  A    between atoms: C_9  and  C_10 
REMARK       I    between atoms: C_10  and  N_11 
REMARK    5  A    between atoms: N_11  and  N_12 
REMARK       I    between atoms: N_12  and  C_13 
REMARK       I    between atoms: C_13  and  N_14 
REMARK    6  A    between atoms: N_14  and  C_15 
REMARK    7  A    between atoms: C_17  and  C_18 
ROOT
HETATM    1  C   UNL     1      26.674  45.875  50.321  1.00  0.00     0.238 C 
HETATM    2  N   UNL     1      26.003  47.004  50.747  1.00  0.00    -0.266 N 
HETATM    3  O   UNL     1      27.156  45.792  49.191  1.00  0.00    -0.272 OA
HETATM    4  H   UNL     1      25.868  47.160  51.739  1.00  0.00     0.190 HD
ENDROOT
BRANCH   1   5
HETATM    5  C   UNL     1      26.671  44.678  51.261  1.00  0.00     0.139 C 
BRANCH   5   6
HETATM    6  C   UNL     1      26.785  44.930  52.764  1.00  0.00     0.185 C 
HETATM    7  N   UNL     1      28.161  44.722  53.204  1.00  0.00    -0.363 N 
HETATM    8  C   UNL     1      28.533  43.634  53.946  1.00  0.00     0.125 C 
HETATM    9  H   UNL     1      28.838  45.451  52.999  1.00  0.00     0.161 HD
HETATM   10  N   UNL     1      27.690  42.739  54.382  1.00  0.00    -0.159 NA
HETATM   11  N   UNL     1      26.352  42.980  54.205  1.00  0.00    -0.244 N 
HETATM   12  C   UNL     1      25.805  44.075  53.563  1.00  0.00     0.261 C 
HETATM   13  H   UNL     1      25.706  42.388  54.724  1.00  0.00     0.192 HD
HETATM   14  O   UNL     1      24.594  44.276  53.560  1.00  0.00    -0.269 OA
BRANCH   8  15
HETATM   15  C   UNL     1      30.014  43.435  54.247  1.00  0.00     0.118 C 
BRANCH  15  16
HETATM   16  C   UNL     1      30.402  43.930  55.618  1.00  0.00    -0.051 A 
HETATM   17  C   UNL     1      31.339  43.229  56.390  1.00  0.00     0.007 A 
HETATM   18  C   UNL     1      31.722  43.703  57.646  1.00  0.00     0.001 A 
HETATM   19  C   UNL     1      31.178  44.886  58.139  1.00  0.00     0.000 A 
HETATM   20  C   UNL     1      30.251  45.596  57.378  1.00  0.00     0.001 A 
HETATM   21  C   UNL     1      29.865  45.123  56.123  1.00  0.00     0.007 A 
ENDBRANCH  15  16
ENDBRANCH   8  15
ENDBRANCH   5   6
ENDBRANCH   1   5
BRANCH   2  22
HETATM   22  N   UNL     1      26.119  48.152  49.942  1.00  0.00    -0.249 N 
HETATM   23  C   UNL     1      25.071  48.659  49.200  1.00  0.00     0.339 C 
HETATM   24  N   UNL     1      23.820  48.358  49.691  1.00  0.00    -0.308 N 
HETATM   25  O   UNL     1      25.318  49.332  48.205  1.00  0.00    -0.245 OA
HETATM   26  H   UNL     1      23.785  48.062  50.655  1.00  0.00     0.170 HD
HETATM   27  H   UNL     1      27.046  48.304  49.539  1.00  0.00     0.192 HD
BRANCH  24  28
HETATM   28  C   UNL     1      22.576  48.641  49.088  1.00  0.00     0.037 A 
HETATM   29  C   UNL     1      21.855  49.819  49.303  1.00  0.00     0.045 A 
HETATM   30  C   UNL     1      20.625  50.044  48.657  1.00  0.00     0.050 A 
HETATM   31  C   UNL     1      20.122  49.067  47.787  1.00  0.00     0.016 A 
HETATM   32  C   UNL     1      20.837  47.893  47.561  1.00  0.00     0.003 A 
HETATM   33  C   UNL     1      22.055  47.682  48.211  1.00  0.00     0.029 A 
BRANCH  30  34
HETATM   34  C   UNL     1      19.831  51.299  48.927  1.00  0.00     0.417 C 
HETATM   35  F   UNL     1      19.688  51.585  50.250  1.00  0.00    -0.166 F 
HETATM   36  F   UNL     1      20.398  52.408  48.370  1.00  0.00    -0.166 F 
HETATM   37  F   UNL     1      18.570  51.234  48.416  1.00  0.00    -0.166 F 
ENDBRANCH  30  34
ENDBRANCH  24  28
ENDBRANCH   2  22
TORSDOF 7
ENDMDL
MODEL 2
REMARK VINA RESULT:     -10.3      1.710      2.518
REMARK  7 active torsions:
REMARK  status: ('A' for Active; 'I' for Inactive)
REMARK    1  A    between atoms: C_4  and  C_5 
REMARK    2  A    between atoms: C_5  and  C_6 
REMARK    3  A    between atoms: C_8  and  C_9 
REMARK    4  A    between atoms: C_9  and  C_10 
REMARK       I    between atoms: C_10  and  N_11 
REMARK    5  A    between atoms: N_11  and  N_12 
REMARK       I    between atoms: N_12  and  C_13 
REMARK       I    between atoms: C_13  and  N_14 
REMARK    6  A    between atoms: N_14  and  C_15 
REMARK    7  A    between atoms: C_17  and  C_18 
ROOT
HETATM    1  C   UNL     1      25.067  46.813  51.200  1.00  0.00     0.238 C 
HETATM    2  N   UNL     1      24.166  46.930  50.162  1.00  0.00    -0.266 N 
HETATM    3  O   UNL     1      26.055  47.544  51.289  1.00  0.00    -0.272 OA
HETATM    4  H   UNL     1      23.240  46.527  50.256  1.00  0.00     0.190 HD
ENDROOT
BRANCH   1   5
HETATM    5  C   UNL     1      24.867  45.647  52.157  1.00  0.00     0.139 C 
BRANCH   5   6
HETATM    6  C   UNL     1      25.224  44.240  51.679  1.00  0.00     0.185 C 
HETATM    7  N   UNL     1      25.920  43.514  52.736  1.00  0.00    -0.363 N 
HETATM    8  C   UNL     1      27.261  43.247  52.677  1.00  0.00     0.125 C 
HETATM    9  H   UNL     1      25.363  43.146  53.502  1.00  0.00     0.161 HD
HETATM   10  N   UNL     1      28.010  43.548  51.653  1.00  0.00    -0.159 NA
HETATM   11  N   UNL     1      27.391  44.028  50.527  1.00  0.00    -0.244 N 
HETATM   12  C   UNL     1      26.037  44.266  50.387  1.00  0.00     0.261 C 
HETATM   13  H   UNL     1      27.949  44.063  49.676  1.00  0.00     0.192 HD
HETATM   14  O   UNL     1      25.550  44.575  49.303  1.00  0.00    -0.269 OA
BRANCH   8  15
HETATM   15  C   UNL     1      27.924  42.598  53.887  1.00  0.00     0.118 C 
BRANCH  15  16
HETATM   16  C   UNL     1      28.831  43.545  54.632  1.00  0.00    -0.051 A 
HETATM   17  C   UNL     1      28.419  44.856  54.913  1.00  0.00     0.007 A 
HETATM   18  C   UNL     1      29.246  45.723  55.629  1.00  0.00     0.001 A 
HETATM   19  C   UNL     1      30.488  45.287  56.079  1.00  0.00     0.000 A 
HETATM   20  C   UNL     1      30.907  43.984  55.814  1.00  0.00     0.001 A 
HETATM   21  C   UNL     1      30.083  43.116  55.096  1.00  0.00     0.007 A 
ENDBRANCH  15  16
ENDBRANCH   8  15
ENDBRANCH   5   6
ENDBRANCH   1   5
BRANCH   2  22
HETATM   22  N   UNL     1      24.268  48.081  49.358  1.00  0.00    -0.249 N 
HETATM   23  C   UNL     1      23.171  48.715  48.812  1.00  0.00     0.339 C 
HETATM   24  N   UNL     1      21.996  48.536  49.507  1.00  0.00    -0.308 N 
HETATM   25  O   UNL     1      23.317  49.385  47.794  1.00  0.00    -0.245 OA
HETATM   26  H   UNL     1      22.094  48.219  50.461  1.00  0.00     0.170 HD
HETATM   27  H   UNL     1      25.124  48.144  48.804  1.00  0.00     0.192 HD
BRANCH  24  28
HETATM   28  C   UNL     1      20.707  48.965  49.129  1.00  0.00     0.037 A 
HETATM   29  C   UNL     1      20.256  50.283  49.250  1.00  0.00     0.045 A 
HETATM   30  C   UNL     1      18.960  50.647  48.840  1.00  0.00     0.050 A 
HETATM   31  C   UNL     1      18.114  49.666  48.302  1.00  0.00     0.016 A 
HETATM   32  C   UNL     1      18.557  48.352  48.171  1.00  0.00     0.003 A 
HETATM   33  C   UNL     1      19.844  48.005  48.585  1.00  0.00     0.029 A 
BRANCH  30  34
HETATM   34  C   UNL     1      18.465  52.062  49.013  1.00  0.00     0.417 C 
HETATM   35  F   UNL     1      17.142  52.220  48.733  1.00  0.00    -0.166 F 
HETATM   36  F   UNL     1      18.629  52.521  50.287  1.00  0.00    -0.166 F 
HETATM   37  F   UNL     1      19.128  52.944  48.214  1.00  0.00    -0.166 F 
ENDBRANCH  30  34
ENDBRANCH  24  28
ENDBRANCH   2  22
TORSDOF 7
ENDMDL
MODEL 3
REMARK VINA RESULT:     -10.3      4.926     10.904
REMARK  7 active torsions:
REMARK  status: ('A' for Active; 'I' for Inactive)
REMARK    1  A    between atoms: C_4  and  C_5 
REMARK    2  A    between atoms: C_5  and  C_6 
REMARK    3  A    between atoms: C_8  and  C_9 
REMARK    4  A    between atoms: C_9  and  C_10 
REMARK       I    between atoms: C_10  and  N_11 
REMARK    5  A    between atoms: N_11  and  N_12 
REMARK       I    between atoms: N_12  and  C_13 
REMARK       I    between atoms: C_13  and  N_14 
REMARK    6  A    between atoms: N_14  and  C_15 
REMARK    7  A    between atoms: C_17  and  C_18 
ROOT
HETATM    1  C   UNL     1      25.243  46.111  50.684  1.00  0.00     0.238 C 
HETATM    2  N   UNL     1      26.151  45.840  51.688  1.00  0.00    -0.266 N 
HETATM    3  O   UNL     1      24.124  45.596  50.664  1.00  0.00    -0.272 OA
HETATM    4  H   UNL     1      26.931  46.471  51.838  1.00  0.00     0.190 HD
ENDROOT
BRANCH   1   5
HETATM    5  C   UNL     1      25.733  46.966  49.524  1.00  0.00     0.139 C 
BRANCH   5   6
HETATM    6  C   UNL     1      25.764  48.484  49.699  1.00  0.00     0.185 C 
HETATM    7  N   UNL     1      24.481  49.058  49.311  1.00  0.00    -0.363 N 
HETATM    8  C   UNL     1      24.322  49.777  48.156  1.00  0.00     0.125 C 
HETATM    9  H   UNL     1      23.706  48.968  49.962  1.00  0.00     0.161 HD
HETATM   10  N   UNL     1      25.305  50.069  47.350  1.00  0.00    -0.159 NA
HETATM   11  N   UNL     1      26.579  49.761  47.756  1.00  0.00    -0.244 N 
HETATM   12  C   UNL     1      26.920  49.123  48.934  1.00  0.00     0.261 C 
HETATM   13  H   UNL     1      27.342  50.173  47.224  1.00  0.00     0.192 HD
HETATM   14  O   UNL     1      28.092  48.999  49.278  1.00  0.00    -0.269 OA
BRANCH   8  15
HETATM   15  C   UNL     1      22.917  50.226  47.771  1.00  0.00     0.118 C 
BRANCH  15  16
HETATM   16  C   UNL     1      21.853  49.251  48.209  1.00  0.00    -0.051 A 
HETATM   17  C   UNL     1      20.890  49.625  49.158  1.00  0.00     0.007 A 
HETATM   18  C   UNL     1      19.887  48.733  49.541  1.00  0.00     0.001 A 
HETATM   19  C   UNL     1      19.830  47.463  48.974  1.00  0.00     0.000 A 
HETATM   20  C   UNL     1      20.776  47.082  48.024  1.00  0.00     0.001 A 
HETATM   21  C   UNL     1      21.782  47.970  47.641  1.00  0.00     0.007 A 
ENDBRANCH  15  16
ENDBRANCH   8  15
ENDBRANCH   5   6
ENDBRANCH   1   5
BRANCH   2  22
HETATM   22  N   UNL     1      25.662  45.167  52.823  1.00  0.00    -0.249 N 
HETATM   23  C   UNL     1      26.486  44.602  53.774  1.00  0.00     0.339 C 
HETATM   24  N   UNL     1      27.731  45.181  53.875  1.00  0.00    -0.308 N 
HETATM   25  O   UNL     1      26.062  43.672  54.452  1.00  0.00    -0.245 OA
HETATM   26  H   UNL     1      27.821  46.103  53.473  1.00  0.00     0.170 HD
HETATM   27  H   UNL     1      24.768  44.691  52.688  1.00  0.00     0.192 HD
BRANCH  24  28
HETATM   28  C   UNL     1      28.813  44.748  54.670  1.00  0.00     0.037 A 
HETATM   29  C   UNL     1      29.110  45.268  55.933  1.00  0.00     0.045 A 
HETATM   30  C   UNL     1      30.197  44.780  56.681  1.00  0.00     0.050 A 
HETATM   31  C   UNL     1      30.989  43.755  56.144  1.00  0.00     0.016 A 
HETATM   32  C   UNL     1      30.696  43.225  54.889  1.00  0.00     0.003 A 
HETATM   33  C   UNL     1      29.616  43.722  54.157  1.00  0.00     0.029 A 
BRANCH  30  34
HETATM   34  C   UNL     1      30.539  45.376  58.025  1.00  0.00     0.417 C 
HETATM   35  F   UNL     1      29.529  45.295  58.934  1.00  0.00    -0.166 F 
HETATM   36  F   UNL     1      31.610  44.768  58.611  1.00  0.00    -0.166 F 
HETATM   37  F   UNL     1      30.865  46.695  57.938  1.00  0.00    -0.166 F 
ENDBRANCH  30  34
ENDBRANCH  24  28
ENDBRANCH   2  22
TORSDOF 7
ENDMDL
MODEL 4
REMARK VINA RESULT:     -10.3      1.418      2.031
REMARK  7 active torsions:
REMARK  status: ('A' for Active; 'I' for Inactive)
REMARK    1  A    between atoms: C_4  and  C_5 
REMARK    2  A    between atoms: C_5  and  C_6 
REMARK    3  A    between atoms: C_8  and  C_9 
REMARK    4  A    between atoms: C_9  and  C_10 
REMARK       I    between atoms: C_10  and  N_11 
REMARK    5  A    between atoms: N_11  and  N_12 
REMARK       I    between atoms: N_12  and  C_13 
REMARK       I    between atoms: C_13  and  N_14 
REMARK    6  A    between atoms: N_14  and  C_15 
REMARK    7  A    between atoms: C_17  and  C_18 
ROOT
HETATM    1  C   UNL     1      26.356  47.203  49.757  1.00  0.00     0.238 C 
HETATM    2  N   UNL     1      25.156  47.878  49.662  1.00  0.00    -0.266 N 
HETATM    3  O   UNL     1      27.307  47.458  49.017  1.00  0.00    -0.272 OA
HETATM    4  H   UNL     1      24.506  47.853  50.440  1.00  0.00     0.190 HD
ENDROOT
BRANCH   1   5
HETATM    5  C   UNL     1      26.411  46.029  50.725  1.00  0.00     0.139 C 
BRANCH   5   6
HETATM    6  C   UNL     1      25.622  46.123  52.031  1.00  0.00     0.185 C 
HETATM    7  N   UNL     1      26.500  46.546  53.116  1.00  0.00    -0.363 N 
HETATM    8  C   UNL     1      26.908  45.687  54.101  1.00  0.00     0.125 C 
HETATM    9  H   UNL     1      26.755  47.528  53.164  1.00  0.00     0.161 HD
HETATM   10  N   UNL     1      26.494  44.453  54.196  1.00  0.00    -0.159 NA
HETATM   11  N   UNL     1      25.496  44.046  53.349  1.00  0.00    -0.244 N 
HETATM   12  C   UNL     1      24.908  44.815  52.363  1.00  0.00     0.261 C 
HETATM   13  H   UNL     1      25.043  43.161  53.565  1.00  0.00     0.192 HD
HETATM   14  O   UNL     1      23.933  44.414  51.733  1.00  0.00    -0.269 OA
BRANCH   8  15
HETATM   15  C   UNL     1      27.928  46.184  55.119  1.00  0.00     0.118 C 
BRANCH  15  16
HETATM   16  C   UNL     1      29.027  45.184  55.379  1.00  0.00    -0.051 A 
HETATM   17  C   UNL     1      29.251  44.123  54.490  1.00  0.00     0.007 A 
HETATM   18  C   UNL     1      30.287  43.215  54.714  1.00  0.00     0.001 A 
HETATM   19  C   UNL     1      31.115  43.363  55.823  1.00  0.00     0.000 A 
HETATM   20  C   UNL     1      30.908  44.417  56.711  1.00  0.00     0.001 A 
HETATM   21  C   UNL     1      29.871  45.325  56.490  1.00  0.00     0.007 A 
ENDBRANCH  15  16
ENDBRANCH   8  15
ENDBRANCH   5   6
ENDBRANCH   1   5
BRANCH   2  22
HETATM   22  N   UNL     1      25.144  49.043  48.872  1.00  0.00    -0.249 N 
HETATM   23  C   UNL     1      24.000  49.538  48.282  1.00  0.00     0.339 C 
HETATM   24  N   UNL     1      22.829  49.201  48.924  1.00  0.00    -0.308 N 
HETATM   25  O   UNL     1      24.102  50.234  47.277  1.00  0.00    -0.245 OA
HETATM   26  H   UNL     1      22.925  48.888  49.879  1.00  0.00     0.170 HD
HETATM   27  H   UNL     1      26.008  49.222  48.356  1.00  0.00     0.192 HD
BRANCH  24  28
HETATM   28  C   UNL     1      21.512  49.467  48.493  1.00  0.00     0.037 A 
HETATM   29  C   UNL     1      20.834  50.663  48.747  1.00  0.00     0.045 A 
HETATM   30  C   UNL     1      19.524  50.868  48.274  1.00  0.00     0.050 A 
HETATM   31  C   UNL     1      18.897  49.852  47.539  1.00  0.00     0.016 A 
HETATM   32  C   UNL     1      19.568  48.660  47.274  1.00  0.00     0.003 A 
HETATM   33  C   UNL     1      20.866  48.469  47.752  1.00  0.00     0.029 A 
BRANCH  30  34
HETATM   34  C   UNL     1      18.782  52.144  48.589  1.00  0.00     0.417 C 
HETATM   35  F   UNL     1      19.313  53.249  47.998  1.00  0.00    -0.166 F 
HETATM   36  F   UNL     1      17.479  52.104  48.189  1.00  0.00    -0.166 F 
HETATM   37  F   UNL     1      18.750  52.408  49.925  1.00  0.00    -0.166 F 
ENDBRANCH  30  34
ENDBRANCH  24  28
ENDBRANCH   2  22
TORSDOF 7
ENDMDL
MODEL 5
REMARK VINA RESULT:     -10.2      2.607      3.794
REMARK  7 active torsions:
REMARK  status: ('A' for Active; 'I' for Inactive)
REMARK    1  A    between atoms: C_4  and  C_5 
REMARK    2  A    between atoms: C_5  and  C_6 
REMARK    3  A    between atoms: C_8  and  C_9 
REMARK    4  A    between atoms: C_9  and  C_10 
REMARK       I    between atoms: C_10  and  N_11 
REMARK    5  A    between atoms: N_11  and  N_12 
REMARK       I    between atoms: N_12  and  C_13 
REMARK       I    between atoms: C_13  and  N_14 
REMARK    6  A    between atoms: N_14  and  C_15 
REMARK    7  A    between atoms: C_17  and  C_18 
ROOT
HETATM    1  C   UNL     1      25.237  43.340  50.905  1.00  0.00     0.238 C 
HETATM    2  N   UNL     1      26.004  44.470  51.107  1.00  0.00    -0.266 N 
HETATM    3  O   UNL     1      24.277  43.069  51.627  1.00  0.00    -0.272 OA
HETATM    4  H   UNL     1      26.592  44.815  50.356  1.00  0.00     0.190 HD
ENDROOT
BRANCH   1   5
HETATM    5  C   UNL     1      25.714  42.366  49.837  1.00  0.00     0.139 C 
BRANCH   5   6
HETATM    6  C   UNL     1      26.181  40.978  50.271  1.00  0.00     0.185 C 
HETATM    7  N   UNL     1      26.457  40.968  51.704  1.00  0.00    -0.363 N 
HETATM    8  C   UNL     1      27.731  40.917  52.202  1.00  0.00     0.125 C 
HETATM    9  H   UNL     1      25.663  40.933  52.338  1.00  0.00     0.161 HD
HETATM   10  N   UNL     1      28.792  40.800  51.452  1.00  0.00    -0.159 NA
HETATM   11  N   UNL     1      28.606  40.575  50.112  1.00  0.00    -0.244 N 
HETATM   12  C   UNL     1      27.388  40.503  49.465  1.00  0.00     0.261 C 
HETATM   13  H   UNL     1      29.422  40.282  49.578  1.00  0.00     0.192 HD
HETATM   14  O   UNL     1      27.308  40.173  48.285  1.00  0.00    -0.269 OA
BRANCH   8  15
HETATM   15  C   UNL     1      27.925  41.043  53.709  1.00  0.00     0.118 C 
BRANCH  15  16
HETATM   16  C   UNL     1      28.288  42.444  54.134  1.00  0.00    -0.051 A 
HETATM   17  C   UNL     1      27.292  43.416  54.311  1.00  0.00     0.007 A 
HETATM   18  C   UNL     1      27.624  44.704  54.735  1.00  0.00     0.001 A 
HETATM   19  C   UNL     1      28.952  45.031  54.995  1.00  0.00     0.000 A 
HETATM   20  C   UNL     1      29.950  44.072  54.831  1.00  0.00     0.001 A 
HETATM   21  C   UNL     1      29.621  42.784  54.404  1.00  0.00     0.007 A 
ENDBRANCH  15  16
ENDBRANCH   8  15
ENDBRANCH   5   6
ENDBRANCH   1   5
BRANCH   2  22
HETATM   22  N   UNL     1      25.493  45.434  51.995  1.00  0.00    -0.249 N 
HETATM   23  C   UNL     1      25.155  46.713  51.602  1.00  0.00     0.339 C 
HETATM   24  N   UNL     1      24.810  46.836  50.275  1.00  0.00    -0.308 N 
HETATM   25  O   UNL     1      25.165  47.613  52.435  1.00  0.00    -0.245 OA
HETATM   26  H   UNL     1      24.564  45.977  49.803  1.00  0.00     0.170 HD
HETATM   27  H   UNL     1      25.826  45.352  52.958  1.00  0.00     0.192 HD
BRANCH  24  28
HETATM   28  C   UNL     1      24.532  48.027  49.571  1.00  0.00     0.037 A 
HETATM   29  C   UNL     1      23.248  48.552  49.404  1.00  0.00     0.045 A 
HETATM   30  C   UNL     1      23.042  49.754  48.702  1.00  0.00     0.050 A 
HETATM   31  C   UNL     1      24.148  50.429  48.165  1.00  0.00     0.016 A 
HETATM   32  C   UNL     1      25.432  49.916  48.333  1.00  0.00     0.003 A 
HETATM   33  C   UNL     1      25.621  48.721  49.030  1.00  0.00     0.029 A 
BRANCH  30  34
HETATM   34  C   UNL     1      21.649  50.293  48.488  1.00  0.00     0.417 C 
HETATM   35  F   UNL     1      20.762  49.925  49.453  1.00  0.00    -0.166 F 
HETATM   36  F   UNL     1      21.614  51.657  48.457  1.00  0.00    -0.166 F 
HETATM   37  F   UNL     1      21.111  49.884  47.305  1.00  0.00    -0.166 F 
ENDBRANCH  30  34
ENDBRANCH  24  28
ENDBRANCH   2  22
TORSDOF 7
ENDMDL
MODEL 6
REMARK VINA RESULT:     -10.2     12.622     15.219
REMARK  7 active torsions:
REMARK  status: ('A' for Active; 'I' for Inactive)
REMARK    1  A    between atoms: C_4  and  C_5 
REMARK    2  A    between atoms: C_5  and  C_6 
REMARK    3  A    between atoms: C_8  and  C_9 
REMARK    4  A    between atoms: C_9  and  C_10 
REMARK       I    between atoms: C_10  and  N_11 
REMARK    5  A    between atoms: N_11  and  N_12 
REMARK       I    between atoms: N_12  and  C_13 
REMARK       I    between atoms: C_13  and  N_14 
REMARK    6  A    between atoms: N_14  and  C_15 
REMARK    7  A    between atoms: C_17  and  C_18 
ROOT
HETATM    1  C   UNL     1      28.551  47.565  39.022  1.00  0.00     0.238 C 
HETATM    2  N   UNL     1      29.806  48.095  39.241  1.00  0.00    -0.266 N 
HETATM    3  O   UNL     1      28.303  46.375  39.224  1.00  0.00    -0.272 OA
HETATM    4  H   UNL     1      29.914  49.098  39.341  1.00  0.00     0.190 HD
ENDROOT
BRANCH   1   5
HETATM    5  C   UNL     1      27.518  48.483  38.384  1.00  0.00     0.139 C 
BRANCH   5   6
HETATM    6  C   UNL     1      26.697  49.399  39.291  1.00  0.00     0.185 C 
HETATM    7  N   UNL     1      27.302  50.725  39.344  1.00  0.00    -0.363 N 
HETATM    8  C   UNL     1      27.962  51.183  40.452  1.00  0.00     0.125 C 
HETATM    9  H   UNL     1      27.164  51.340  38.546  1.00  0.00     0.161 HD
HETATM   10  N   UNL     1      28.043  50.514  41.569  1.00  0.00    -0.159 NA
HETATM   11  N   UNL     1      27.311  49.359  41.677  1.00  0.00    -0.244 N 
HETATM   12  C   UNL     1      26.518  48.808  40.688  1.00  0.00     0.261 C 
HETATM   13  H   UNL     1      27.218  48.961  42.609  1.00  0.00     0.192 HD
HETATM   14  O   UNL     1      25.796  47.840  40.911  1.00  0.00    -0.269 OA
BRANCH   8  15
HETATM   15  C   UNL     1      28.673  52.529  40.366  1.00  0.00     0.118 C 
BRANCH  15  16
HETATM   16  C   UNL     1      30.108  52.402  39.918  1.00  0.00    -0.051 A 
HETATM   17  C   UNL     1      30.448  51.566  38.845  1.00  0.00     0.007 A 
HETATM   18  C   UNL     1      31.771  51.472  38.409  1.00  0.00     0.001 A 
HETATM   19  C   UNL     1      32.765  52.219  39.036  1.00  0.00     0.000 A 
HETATM   20  C   UNL     1      32.439  53.060  40.098  1.00  0.00     0.001 A 
HETATM   21  C   UNL     1      31.117  53.153  40.537  1.00  0.00     0.007 A 
ENDBRANCH  15  16
ENDBRANCH   8  15
ENDBRANCH   5   6
ENDBRANCH   1   5
BRANCH   2  22
HETATM   22  N   UNL     1      30.718  47.293  39.953  1.00  0.00    -0.249 N 
HETATM   23  C   UNL     1      31.723  47.817  40.740  1.00  0.00     0.339 C 
HETATM   24  N   UNL     1      31.467  49.074  41.241  1.00  0.00    -0.308 N 
HETATM   25  O   UNL     1      32.728  47.144  40.948  1.00  0.00    -0.245 OA
HETATM   26  H   UNL     1      30.499  49.362  41.231  1.00  0.00     0.170 HD
HETATM   27  H   UNL     1      30.937  46.396  39.514  1.00  0.00     0.192 HD
BRANCH  24  28
HETATM   28  C   UNL     1      32.348  49.896  41.975  1.00  0.00     0.037 A 
HETATM   29  C   UNL     1      33.697  50.075  41.656  1.00  0.00     0.045 A 
HETATM   30  C   UNL     1      34.517  50.923  42.424  1.00  0.00     0.050 A 
HETATM   31  C   UNL     1      33.964  51.595  43.523  1.00  0.00     0.016 A 
HETATM   32  C   UNL     1      32.619  51.428  43.844  1.00  0.00     0.003 A 
HETATM   33  C   UNL     1      31.818  50.581  43.075  1.00  0.00     0.029 A 
BRANCH  30  34
HETATM   34  C   UNL     1      35.983  51.077  42.100  1.00  0.00     0.417 C 
HETATM   35  F   UNL     1      36.471  52.325  42.343  1.00  0.00    -0.166 F 
HETATM   36  F   UNL     1      36.771  50.228  42.819  1.00  0.00    -0.166 F 
HETATM   37  F   UNL     1      36.254  50.814  40.791  1.00  0.00    -0.166 F 
ENDBRANCH  30  34
ENDBRANCH  24  28
ENDBRANCH   2  22
TORSDOF 7
ENDMDL
MODEL 7
REMARK VINA RESULT:     -10.2      4.232      8.650
REMARK  7 active torsions:
REMARK  status: ('A' for Active; 'I' for Inactive)
REMARK    1  A    between atoms: C_4  and  C_5 
REMARK    2  A    between atoms: C_5  and  C_6 
REMARK    3  A    between atoms: C_8  and  C_9 
REMARK    4  A    between atoms: C_9  and  C_10 
REMARK       I    between atoms: C_10  and  N_11 
REMARK    5  A    between atoms: N_11  and  N_12 
REMARK       I    between atoms: N_12  and  C_13 
REMARK       I    between atoms: C_13  and  N_14 
REMARK    6  A    between atoms: N_14  and  C_15 
REMARK    7  A    between atoms: C_17  and  C_18 
ROOT
HETATM    1  C   UNL     1      21.700  46.894  48.304  1.00  0.00     0.238 C 
HETATM    2  N   UNL     1      22.164  46.013  49.260  1.00  0.00    -0.266 N 
HETATM    3  O   UNL     1      22.333  47.127  47.274  1.00  0.00    -0.272 OA
HETATM    4  H   UNL     1      21.517  45.629  49.941  1.00  0.00     0.190 HD
ENDROOT
BRANCH   1   5
HETATM    5  C   UNL     1      20.437  47.673  48.642  1.00  0.00     0.139 C 
BRANCH   5   6
HETATM    6  C   UNL     1      20.454  49.194  48.486  1.00  0.00     0.185 C 
HETATM    7  N   UNL     1      21.696  49.617  47.849  1.00  0.00    -0.363 N 
HETATM    8  C   UNL     1      22.689  50.258  48.539  1.00  0.00     0.125 C 
HETATM    9  H   UNL     1      21.782  49.483  46.845  1.00  0.00     0.161 HD
HETATM   10  N   UNL     1      22.585  50.606  49.792  1.00  0.00    -0.159 NA
HETATM   11  N   UNL     1      21.366  50.448  50.401  1.00  0.00    -0.244 N 
HETATM   12  C   UNL     1      20.236  49.907  49.819  1.00  0.00     0.261 C 
HETATM   13  H   UNL     1      21.239  50.907  51.300  1.00  0.00     0.192 HD
HETATM   14  O   UNL     1      19.151  49.918  50.394  1.00  0.00    -0.269 OA
BRANCH   8  15
HETATM   15  C   UNL     1      24.002  50.544  47.819  1.00  0.00     0.118 C 
BRANCH  15  16
HETATM   16  C   UNL     1      25.171  49.804  48.422  1.00  0.00    -0.051 A 
HETATM   17  C   UNL     1      26.480  50.276  48.247  1.00  0.00     0.007 A 
HETATM   18  C   UNL     1      27.559  49.608  48.830  1.00  0.00     0.001 A 
HETATM   19  C   UNL     1      27.340  48.469  49.599  1.00  0.00     0.000 A 
HETATM   20  C   UNL     1      26.042  47.995  49.788  1.00  0.00     0.001 A 
HETATM   21  C   UNL     1      24.962  48.659  49.204  1.00  0.00     0.007 A 
ENDBRANCH  15  16
ENDBRANCH   8  15
ENDBRANCH   5   6
ENDBRANCH   1   5
BRANCH   2  22
HETATM   22  N   UNL     1      23.249  45.195  48.896  1.00  0.00    -0.249 N 
HETATM   23  C   UNL     1      24.349  45.002  49.707  1.00  0.00     0.339 C 
HETATM   24  N   UNL     1      24.109  45.166  51.053  1.00  0.00    -0.308 N 
HETATM   25  O   UNL     1      25.419  44.690  49.194  1.00  0.00    -0.245 OA
HETATM   26  H   UNL     1      23.140  45.125  51.335  1.00  0.00     0.170 HD
HETATM   27  H   UNL     1      23.440  45.153  47.893  1.00  0.00     0.192 HD
BRANCH  24  28
HETATM   28  C   UNL     1      25.056  45.144  52.098  1.00  0.00     0.037 A 
HETATM   29  C   UNL     1      25.429  46.270  52.837  1.00  0.00     0.045 A 
HETATM   30  C   UNL     1      26.372  46.175  53.878  1.00  0.00     0.050 A 
HETATM   31  C   UNL     1      26.940  44.928  54.172  1.00  0.00     0.016 A 
HETATM   32  C   UNL     1      26.568  43.798  53.446  1.00  0.00     0.003 A 
HETATM   33  C   UNL     1      25.635  43.908  52.414  1.00  0.00     0.029 A 
BRANCH  30  34
HETATM   34  C   UNL     1      26.802  47.403  54.642  1.00  0.00     0.417 C 
HETATM   35  F   UNL     1      27.052  47.170  55.960  1.00  0.00    -0.166 F 
HETATM   36  F   UNL     1      27.945  47.956  54.144  1.00  0.00    -0.166 F 
HETATM   37  F   UNL     1      25.866  48.392  54.604  1.00  0.00    -0.166 F 
ENDBRANCH  30  34
ENDBRANCH  24  28
ENDBRANCH   2  22
TORSDOF 7
ENDMDL
MODEL 8
REMARK VINA RESULT:     -10.1      4.413      8.837
REMARK  7 active torsions:
REMARK  status: ('A' for Active; 'I' for Inactive)
REMARK    1  A    between atoms: C_4  and  C_5 
REMARK    2  A    between atoms: C_5  and  C_6 
REMARK    3  A    between atoms: C_8  and  C_9 
REMARK    4  A    between atoms: C_9  and  C_10 
REMARK       I    between atoms: C_10  and  N_11 
REMARK    5  A    between atoms: N_11  and  N_12 
REMARK       I    between atoms: N_12  and  C_13 
REMARK       I    between atoms: C_13  and  N_14 
REMARK    6  A    between atoms: N_14  and  C_15 
REMARK    7  A    between atoms: C_17  and  C_18 
ROOT
HETATM    1  C   UNL     1      25.758  41.541  49.810  1.00  0.00     0.238 C 
HETATM    2  N   UNL     1      25.822  41.059  51.102  1.00  0.00    -0.266 N 
HETATM    3  O   UNL     1      26.772  41.728  49.135  1.00  0.00    -0.272 OA
HETATM    4  H   UNL     1      24.994  40.654  51.525  1.00  0.00     0.190 HD
ENDROOT
BRANCH   1   5
HETATM    5  C   UNL     1      24.388  41.965  49.300  1.00  0.00     0.139 C 
BRANCH   5   6
HETATM    6  C   UNL     1      24.260  43.309  48.583  1.00  0.00     0.185 C 
HETATM    7  N   UNL     1      25.319  44.212  49.020  1.00  0.00    -0.363 N 
HETATM    8  C   UNL     1      25.074  45.283  49.837  1.00  0.00     0.125 C 
HETATM    9  H   UNL     1      26.251  44.065  48.644  1.00  0.00     0.161 HD
HETATM   10  N   UNL     1      23.879  45.628  50.232  1.00  0.00    -0.159 NA
HETATM   11  N   UNL     1      22.809  44.967  49.684  1.00  0.00    -0.244 N 
HETATM   12  C   UNL     1      22.879  43.929  48.775  1.00  0.00     0.261 C 
HETATM   13  H   UNL     1      21.890  45.376  49.838  1.00  0.00     0.192 HD
HETATM   14  O   UNL     1      21.870  43.479  48.239  1.00  0.00    -0.269 OA
BRANCH   8  15
HETATM   15  C   UNL     1      26.262  46.092  50.346  1.00  0.00     0.118 C 
BRANCH  15  16
HETATM   16  C   UNL     1      26.368  47.446  49.690  1.00  0.00    -0.051 A 
HETATM   17  C   UNL     1      25.214  48.172  49.362  1.00  0.00     0.007 A 
HETATM   18  C   UNL     1      25.312  49.438  48.783  1.00  0.00     0.001 A 
HETATM   19  C   UNL     1      26.563  49.995  48.533  1.00  0.00     0.000 A 
HETATM   20  C   UNL     1      27.718  49.287  48.862  1.00  0.00     0.001 A 
HETATM   21  C   UNL     1      27.623  48.020  49.439  1.00  0.00     0.007 A 
ENDBRANCH  15  16
ENDBRANCH   8  15
ENDBRANCH   5   6
ENDBRANCH   1   5
BRANCH   2  22
HETATM   22  N   UNL     1      27.060  40.541  51.526  1.00  0.00    -0.249 N 
HETATM   23  C   UNL     1      27.953  41.262  52.291  1.00  0.00     0.339 C 
HETATM   24  N   UNL     1      27.383  42.246  53.069  1.00  0.00    -0.308 N 
HETATM   25  O   UNL     1      29.145  40.976  52.243  1.00  0.00    -0.245 OA
HETATM   26  H   UNL     1      26.389  42.162  53.225  1.00  0.00     0.170 HD
HETATM   27  H   UNL     1      27.485  39.866  50.888  1.00  0.00     0.192 HD
BRANCH  24  28
HETATM   28  C   UNL     1      28.052  43.205  53.858  1.00  0.00     0.037 A 
HETATM   29  C   UNL     1      27.543  44.475  54.141  1.00  0.00     0.045 A 
HETATM   30  C   UNL     1      28.257  45.380  54.949  1.00  0.00     0.050 A 
HETATM   31  C   UNL     1      29.498  44.992  55.474  1.00  0.00     0.016 A 
HETATM   32  C   UNL     1      30.010  43.725  55.203  1.00  0.00     0.003 A 
HETATM   33  C   UNL     1      29.292  42.840  54.398  1.00  0.00     0.029 A 
BRANCH  30  34
HETATM   34  C   UNL     1      27.721  46.765  55.215  1.00  0.00     0.417 C 
HETATM   35  F   UNL     1      26.433  46.943  54.812  1.00  0.00    -0.166 F 
HETATM   36  F   UNL     1      27.740  47.088  56.540  1.00  0.00    -0.166 F 
HETATM   37  F   UNL     1      28.450  47.731  54.589  1.00  0.00    -0.166 F 
ENDBRANCH  30  34
ENDBRANCH  24  28
ENDBRANCH   2  22
TORSDOF 7
ENDMDL
MODEL 9
REMARK VINA RESULT:     -10.1      4.567     11.049
REMARK  7 active torsions:
REMARK  status: ('A' for Active; 'I' for Inactive)
REMARK    1  A    between atoms: C_4  and  C_5 
REMARK    2  A    between atoms: C_5  and  C_6 
REMARK    3  A    between atoms: C_8  and  C_9 
REMARK    4  A    between atoms: C_9  and  C_10 
REMARK       I    between atoms: C_10  and  N_11 
REMARK    5  A    between atoms: N_11  and  N_12 
REMARK       I    between atoms: N_12  and  C_13 
REMARK       I    between atoms: C_13  and  N_14 
REMARK    6  A    between atoms: N_14  and  C_15 
REMARK    7  A    between atoms: C_17  and  C_18 
ROOT
HETATM    1  C   UNL     1      25.641  45.357  50.449  1.00  0.00     0.238 C 
HETATM    2  N   UNL     1      26.707  44.730  51.062  1.00  0.00    -0.266 N 
HETATM    3  O   UNL     1      24.497  44.904  50.509  1.00  0.00    -0.272 OA
HETATM    4  H   UNL     1      27.559  45.251  51.238  1.00  0.00     0.190 HD
ENDROOT
BRANCH   1   5
HETATM    5  C   UNL     1      25.961  46.562  49.576  1.00  0.00     0.139 C 
BRANCH   5   6
HETATM    6  C   UNL     1      25.379  47.921  49.966  1.00  0.00     0.185 C 
HETATM    7  N   UNL     1      23.921  47.867  49.938  1.00  0.00    -0.363 N 
HETATM    8  C   UNL     1      23.187  48.484  48.961  1.00  0.00     0.125 C 
HETATM    9  H   UNL     1      23.450  47.409  50.712  1.00  0.00     0.161 HD
HETATM   10  N   UNL     1      23.714  49.223  48.024  1.00  0.00    -0.159 NA
HETATM   11  N   UNL     1      25.052  49.509  48.111  1.00  0.00    -0.244 N 
HETATM   12  C   UNL     1      25.916  49.046  49.086  1.00  0.00     0.261 C 
HETATM   13  H   UNL     1      25.405  50.244  47.503  1.00  0.00     0.192 HD
HETATM   14  O   UNL     1      27.073  49.453  49.161  1.00  0.00    -0.269 OA
BRANCH   8  15
HETATM   15  C   UNL     1      21.679  48.263  48.941  1.00  0.00     0.118 C 
BRANCH  15  16
HETATM   16  C   UNL     1      20.905  49.544  48.748  1.00  0.00    -0.051 A 
HETATM   17  C   UNL     1      20.292  49.828  47.519  1.00  0.00     0.007 A 
HETATM   18  C   UNL     1      19.551  50.998  47.349  1.00  0.00     0.001 A 
HETATM   19  C   UNL     1      19.406  51.891  48.407  1.00  0.00     0.000 A 
HETATM   20  C   UNL     1      20.003  51.616  49.636  1.00  0.00     0.001 A 
HETATM   21  C   UNL     1      20.748  50.448  49.808  1.00  0.00     0.007 A 
ENDBRANCH  15  16
ENDBRANCH   8  15
ENDBRANCH   5   6
ENDBRANCH   1   5
BRANCH   2  22
HETATM   22  N   UNL     1      26.400  43.703  51.975  1.00  0.00    -0.249 N 
HETATM   23  C   UNL     1      27.202  43.395  53.054  1.00  0.00     0.339 C 
HETATM   24  N   UNL     1      27.973  44.437  53.516  1.00  0.00    -0.308 N 
HETATM   25  O   UNL     1      27.159  42.261  53.522  1.00  0.00    -0.245 OA
HETATM   26  H   UNL     1      27.682  45.360  53.229  1.00  0.00     0.170 HD
HETATM   27  H   UNL     1      25.887  42.914  51.578  1.00  0.00     0.192 HD
BRANCH  24  28
HETATM   28  C   UNL     1      28.961  44.388  54.522  1.00  0.00     0.037 A 
HETATM   29  C   UNL     1      28.902  45.121  55.711  1.00  0.00     0.045 A 
HETATM   30  C   UNL     1      29.917  45.014  56.680  1.00  0.00     0.050 A 
HETATM   31  C   UNL     1      31.000  44.157  56.442  1.00  0.00     0.016 A 
HETATM   32  C   UNL     1      31.064  43.416  55.264  1.00  0.00     0.003 A 
HETATM   33  C   UNL     1      30.051  43.535  54.309  1.00  0.00     0.029 A 
BRANCH  30  34
HETATM   34  C   UNL     1      29.869  45.842  57.941  1.00  0.00     0.417 C 
HETATM   35  F   UNL     1      30.904  46.718  58.064  1.00  0.00    -0.166 F 
HETATM   36  F   UNL     1      28.736  46.596  58.030  1.00  0.00    -0.166 F 
HETATM   37  F   UNL     1      29.889  45.073  59.066  1.00  0.00    -0.166 F 
ENDBRANCH  30  34
ENDBRANCH  24  28
ENDBRANCH   2  22
TORSDOF 7
ENDMDL
MODEL 10
REMARK VINA RESULT:     -10.0      5.150     10.742
REMARK  7 active torsions:
REMARK  status: ('A' for Active; 'I' for Inactive)
REMARK    1  A    between atoms: C_4  and  C_5 
REMARK    2  A    between atoms: C_5  and  C_6 
REMARK    3  A    between atoms: C_8  and  C_9 
REMARK    4  A    between atoms: C_9  and  C_10 
REMARK       I    between atoms: C_10  and  N_11 
REMARK    5  A    between atoms: N_11  and  N_12 
REMARK       I    between atoms: N_12  and  C_13 
REMARK       I    between atoms: C_13  and  N_14 
REMARK    6  A    between atoms: N_14  and  C_15 
REMARK    7  A    between atoms: C_17  and  C_18 
ROOT
HETATM    1  C   UNL     1      25.739  44.407  49.830  1.00  0.00     0.238 C 
HETATM    2  N   UNL     1      25.237  43.832  50.980  1.00  0.00    -0.266 N 
HETATM    3  O   UNL     1      26.902  44.226  49.466  1.00  0.00    -0.272 OA
HETATM    4  H   UNL     1      24.233  43.761  51.106  1.00  0.00     0.190 HD
ENDROOT
BRANCH   1   5
HETATM    5  C   UNL     1      24.835  45.390  49.100  1.00  0.00     0.139 C 
BRANCH   5   6
HETATM    6  C   UNL     1      24.213  46.538  49.895  1.00  0.00     0.185 C 
HETATM    7  N   UNL     1      22.924  46.904  49.320  1.00  0.00    -0.363 N 
HETATM    8  C   UNL     1      22.742  48.063  48.615  1.00  0.00     0.125 C 
HETATM    9  H   UNL     1      22.131  46.300  49.514  1.00  0.00     0.161 HD
HETATM   10  N   UNL     1      23.672  48.964  48.461  1.00  0.00    -0.159 NA
HETATM   11  N   UNL     1      24.842  48.803  49.159  1.00  0.00    -0.244 N 
HETATM   12  C   UNL     1      25.149  47.741  49.987  1.00  0.00     0.261 C 
HETATM   13  H   UNL     1      25.469  49.603  49.194  1.00  0.00     0.192 HD
HETATM   14  O   UNL     1      26.167  47.738  50.673  1.00  0.00    -0.269 OA
BRANCH   8  15
HETATM   15  C   UNL     1      21.394  48.297  47.942  1.00  0.00     0.118 C 
BRANCH  15  16
HETATM   16  C   UNL     1      20.644  49.466  48.530  1.00  0.00    -0.051 A 
HETATM   17  C   UNL     1      19.926  49.324  49.726  1.00  0.00     0.007 A 
HETATM   18  C   UNL     1      19.257  50.413  50.287  1.00  0.00     0.001 A 
HETATM   19  C   UNL     1      19.306  51.656  49.663  1.00  0.00     0.000 A 
HETATM   20  C   UNL     1      20.022  51.813  48.478  1.00  0.00     0.001 A 
HETATM   21  C   UNL     1      20.690  50.725  47.914  1.00  0.00     0.007 A 
ENDBRANCH  15  16
ENDBRANCH   8  15
ENDBRANCH   5   6
ENDBRANCH   1   5
BRANCH   2  22
HETATM   22  N   UNL     1      26.016  42.824  51.579  1.00  0.00    -0.249 N 
HETATM   23  C   UNL     1      26.992  43.088  52.517  1.00  0.00     0.339 C 
HETATM   24  N   UNL     1      26.802  44.246  53.237  1.00  0.00    -0.308 N 
HETATM   25  O   UNL     1      27.916  42.292  52.654  1.00  0.00    -0.245 OA
HETATM   26  H   UNL     1      25.866  44.625  53.221  1.00  0.00     0.170 HD
HETATM   27  H   UNL     1      26.194  42.010  50.988  1.00  0.00     0.192 HD
BRANCH  24  28
HETATM   28  C   UNL     1      27.685  44.824  54.174  1.00  0.00     0.037 A 
HETATM   29  C   UNL     1      28.783  44.158  54.725  1.00  0.00     0.045 A 
HETATM   30  C   UNL     1      29.633  44.800  55.646  1.00  0.00     0.050 A 
HETATM   31  C   UNL     1      29.366  46.127  56.011  1.00  0.00     0.016 A 
HETATM   32  C   UNL     1      28.277  46.800  55.462  1.00  0.00     0.003 A 
HETATM   33  C   UNL     1      27.441  46.150  54.552  1.00  0.00     0.029 A 
BRANCH  30  34
HETATM   34  C   UNL     1      30.792  44.061  56.269  1.00  0.00     0.417 C 
HETATM   35  F   UNL     1      30.674  42.706  56.213  1.00  0.00    -0.166 F 
HETATM   36  F   UNL     1      31.982  44.352  55.668  1.00  0.00    -0.166 F 
HETATM   37  F   UNL     1      30.957  44.373  57.585  1.00  0.00    -0.166 F 
ENDBRANCH  30  34
ENDBRANCH  24  28
ENDBRANCH   2  22
TORSDOF 7
ENDMDL
