MODEL 1
REMARK VINA RESULT:      -9.0      0.000      0.000
REMARK  4 active torsions:
REMARK  status: ('A' for Active; 'I' for Inactive)
REMARK    1  A    between atoms: C_6  and  C_7 
REMARK    2  A    between atoms: C_7  and  C_8 
REMARK    3  A    between atoms: N_10  and  C_11 
REMARK    4  A    between atoms: C_19  and  C_20 
ROOT
HETATM    1  C   UNL     1      26.831  45.232  52.554  1.00  0.00     0.149 A 
HETATM    2  N   UNL     1      27.215  45.591  53.776  1.00  0.00    -0.150 NA
HETATM    3  N   UNL     1      28.220  44.721  54.061  1.00  0.00    -0.218 N 
HETATM    4  C   UNL     1      28.285  43.776  53.034  1.00  0.00     0.136 A 
HETATM    5  N   UNL     1      27.462  44.128  52.057  1.00  0.00    -0.216 NA
ENDROOT
BRANCH   1   6
HETATM    6  C   UNL     1      25.741  45.947  51.834  1.00  0.00     0.087 C 
BRANCH   6   7
HETATM    7  C   UNL     1      25.795  45.804  50.296  1.00  0.00    -0.004 C 
HETATM    8  C   UNL     1      26.747  46.792  49.597  1.00  0.00     0.032 C 
HETATM    9  C   UNL     1      26.245  48.230  49.629  1.00  0.00     0.234 C 
HETATM   10  N   UNL     1      24.873  48.288  48.999  1.00  0.00    -0.075 N 
HETATM   11  C   UNL     1      24.368  49.706  48.904  1.00  0.00     0.269 C 
HETATM   12  H   UNL     1      24.969  47.962  48.026  1.00  0.00     0.279 HD
HETATM   13  C   UNL     1      23.873  47.389  49.678  1.00  0.00     0.234 C 
HETATM   14  C   UNL     1      24.390  45.951  49.680  1.00  0.00     0.032 C 
ENDBRANCH   6   7
ENDBRANCH   1   6
BRANCH   3  15
HETATM   15  C   UNL     1      28.986  44.891  55.247  1.00  0.00     0.062 A 
HETATM   16  C   UNL     1      30.123  44.119  55.516  1.00  0.00     0.058 A 
HETATM   17  C   UNL     1      30.847  44.325  56.698  1.00  0.00     0.074 A 
HETATM   18 CL   UNL     1      32.237  43.356  56.998  1.00  0.00    -0.081 Cl
HETATM   19  C   UNL     1      30.449  45.302  57.604  1.00  0.00     0.138 A 
HETATM   20  F   UNL     1      31.132  45.506  58.739  1.00  0.00    -0.204 F 
HETATM   21  C   UNL     1      29.337  46.092  57.339  1.00  0.00     0.046 A 
HETATM   22  C   UNL     1      28.612  45.895  56.160  1.00  0.00     0.035 A 
ENDBRANCH   3  15
BRANCH   4  23
HETATM   23  C   UNL     1      29.045  42.478  53.053  1.00  0.00     0.084 C 
HETATM   24  C   UNL     1      28.322  41.430  53.901  1.00  0.00     0.244 C 
HETATM   25  N   UNL     1      27.238  40.932  52.993  1.00  0.00    -0.074 N 
HETATM   26  H   UNL     1      26.912  39.985  53.233  1.00  0.00     0.277 HD
HETATM   27  H   UNL     1      26.433  41.573  53.101  1.00  0.00     0.277 HD
HETATM   28  C   UNL     1      27.731  41.048  51.583  1.00  0.00     0.233 C 
HETATM   29  C   UNL     1      29.052  41.806  51.682  1.00  0.00     0.041 C 
ENDBRANCH   4  23
TORSDOF 4
ENDMDL
MODEL 2
REMARK VINA RESULT:      -8.8      7.219      9.790
REMARK  4 active torsions:
REMARK  status: ('A' for Active; 'I' for Inactive)
REMARK    1  A    between atoms: C_6  and  C_7 
REMARK    2  A    between atoms: C_7  and  C_8 
REMARK    3  A    between atoms: N_10  and  C_11 
REMARK    4  A    between atoms: C_19  and  C_20 
ROOT
HETATM    1  C   UNL     1      19.859  49.656  49.353  1.00  0.00     0.149 A 
HETATM    2  N   UNL     1      21.129  49.918  49.650  1.00  0.00    -0.150 NA
HETATM    3  N   UNL     1      21.820  49.016  48.904  1.00  0.00    -0.218 N 
HETATM    4  C   UNL     1      20.903  48.150  48.303  1.00  0.00     0.136 A 
HETATM    5  N   UNL     1      19.672  48.585  48.528  1.00  0.00    -0.216 NA
ENDROOT
BRANCH   1   6
HETATM    6  C   UNL     1      18.739  50.438  49.949  1.00  0.00     0.087 C 
BRANCH   6   7
HETATM    7  C   UNL     1      18.752  51.941  49.591  1.00  0.00    -0.004 C 
HETATM    8  C   UNL     1      17.437  52.681  49.896  1.00  0.00     0.032 C 
HETATM    9  C   UNL     1      16.297  52.281  48.966  1.00  0.00     0.234 C 
HETATM   10  N   UNL     1      16.718  52.527  47.537  1.00  0.00    -0.075 N 
HETATM   11  C   UNL     1      15.590  52.252  46.573  1.00  0.00     0.269 C 
HETATM   12  H   UNL     1      16.921  53.533  47.445  1.00  0.00     0.279 HD
HETATM   13  C   UNL     1      17.969  51.779  47.153  1.00  0.00     0.234 C 
HETATM   14  C   UNL     1      19.105  52.149  48.105  1.00  0.00     0.032 C 
ENDBRANCH   6   7
ENDBRANCH   1   6
BRANCH   3  15
HETATM   15  C   UNL     1      23.240  49.087  48.848  1.00  0.00     0.062 A 
HETATM   16  C   UNL     1      24.058  48.229  49.593  1.00  0.00     0.058 A 
HETATM   17  C   UNL     1      25.453  48.336  49.503  1.00  0.00     0.074 A 
HETATM   18 CL   UNL     1      26.428  47.268  50.436  1.00  0.00    -0.081 Cl
HETATM   19  C   UNL     1      26.031  49.285  48.667  1.00  0.00     0.138 A 
HETATM   20  F   UNL     1      27.363  49.398  48.575  1.00  0.00    -0.204 F 
HETATM   21  C   UNL     1      25.232  50.126  47.904  1.00  0.00     0.046 A 
HETATM   22  C   UNL     1      23.840  50.023  47.985  1.00  0.00     0.035 A 
ENDBRANCH   3  15
BRANCH   4  23
HETATM   23  C   UNL     1      21.212  46.845  47.622  1.00  0.00     0.084 C 
HETATM   24  C   UNL     1      21.523  45.751  48.646  1.00  0.00     0.244 C 
HETATM   25  N   UNL     1      20.168  45.329  49.129  1.00  0.00    -0.074 N 
HETATM   26  H   UNL     1      20.155  44.372  49.509  1.00  0.00     0.277 HD
HETATM   27  H   UNL     1      19.906  45.970  49.897  1.00  0.00     0.277 HD
HETATM   28  C   UNL     1      19.197  45.533  48.008  1.00  0.00     0.233 C 
HETATM   29  C   UNL     1      19.983  46.266  46.925  1.00  0.00     0.041 C 
ENDBRANCH   4  23
TORSDOF 4
ENDMDL
MODEL 3
REMARK VINA RESULT:      -8.6      4.414      7.919
REMARK  4 active torsions:
REMARK  status: ('A' for Active; 'I' for Inactive)
REMARK    1  A    between atoms: C_6  and  C_7 
REMARK    2  A    between atoms: C_7  and  C_8 
REMARK    3  A    between atoms: N_10  and  C_11 
REMARK    4  A    between atoms: C_19  and  C_20 
ROOT
HETATM    1  C   UNL     1      26.744  43.856  50.625  1.00  0.00     0.149 A 
HETATM    2  N   UNL     1      26.342  44.761  49.735  1.00  0.00    -0.150 NA
HETATM    3  N   UNL     1      26.012  45.833  50.503  1.00  0.00    -0.218 N 
HETATM    4  C   UNL     1      26.097  45.455  51.845  1.00  0.00     0.136 A 
HETATM    5  N   UNL     1      26.617  44.239  51.928  1.00  0.00    -0.216 NA
ENDROOT
BRANCH   1   6
HETATM    6  C   UNL     1      27.221  42.507  50.208  1.00  0.00     0.087 C 
BRANCH   6   7
HETATM    7  C   UNL     1      26.763  41.358  51.135  1.00  0.00    -0.004 C 
HETATM    8  C   UNL     1      27.819  40.908  52.161  1.00  0.00     0.032 C 
HETATM    9  C   UNL     1      28.994  40.174  51.527  1.00  0.00     0.234 C 
HETATM   10  N   UNL     1      28.474  38.986  50.754  1.00  0.00    -0.075 N 
HETATM   11  C   UNL     1      29.601  38.156  50.192  1.00  0.00     0.269 C 
HETATM   12  H   UNL     1      27.987  38.373  51.424  1.00  0.00     0.279 HD
HETATM   13  C   UNL     1      27.480  39.365  49.686  1.00  0.00     0.234 C 
HETATM   14  C   UNL     1      26.317  40.133  50.314  1.00  0.00     0.032 C 
ENDBRANCH   6   7
ENDBRANCH   1   6
BRANCH   3  15
HETATM   15  C   UNL     1      25.670  47.067  49.882  1.00  0.00     0.062 A 
HETATM   16  C   UNL     1      24.339  47.453  49.680  1.00  0.00     0.058 A 
HETATM   17  C   UNL     1      24.050  48.679  49.065  1.00  0.00     0.074 A 
HETATM   18 CL   UNL     1      22.404  49.121  48.829  1.00  0.00    -0.081 Cl
HETATM   19  C   UNL     1      25.081  49.522  48.662  1.00  0.00     0.138 A 
HETATM   20  F   UNL     1      24.817  50.695  48.071  1.00  0.00    -0.204 F 
HETATM   21  C   UNL     1      26.405  49.162  48.878  1.00  0.00     0.046 A 
HETATM   22  C   UNL     1      26.701  47.942  49.495  1.00  0.00     0.035 A 
ENDBRANCH   3  15
BRANCH   4  23
HETATM   23  C   UNL     1      25.564  46.214  53.029  1.00  0.00     0.084 C 
HETATM   24  C   UNL     1      25.470  45.314  54.263  1.00  0.00     0.244 C 
HETATM   25  N   UNL     1      26.881  45.262  54.766  1.00  0.00    -0.074 N 
HETATM   26  H   UNL     1      26.944  45.040  55.770  1.00  0.00     0.277 HD
HETATM   27  H   UNL     1      27.360  44.504  54.251  1.00  0.00     0.277 HD
HETATM   28  C   UNL     1      27.545  46.554  54.403  1.00  0.00     0.233 C 
HETATM   29  C   UNL     1      26.546  47.280  53.507  1.00  0.00     0.041 C 
ENDBRANCH   4  23
TORSDOF 4
ENDMDL
MODEL 4
REMARK VINA RESULT:      -8.5      2.923      5.899
REMARK  4 active torsions:
REMARK  status: ('A' for Active; 'I' for Inactive)
REMARK    1  A    between atoms: C_6  and  C_7 
REMARK    2  A    between atoms: C_7  and  C_8 
REMARK    3  A    between atoms: N_10  and  C_11 
REMARK    4  A    between atoms: C_19  and  C_20 
ROOT
HETATM    1  C   UNL     1      27.084  41.450  51.038  1.00  0.00     0.149 A 
HETATM    2  N   UNL     1      27.988  41.603  52.003  1.00  0.00    -0.150 NA
HETATM    3  N   UNL     1      27.913  42.928  52.298  1.00  0.00    -0.218 N 
HETATM    4  C   UNL     1      27.058  43.535  51.376  1.00  0.00     0.136 A 
HETATM    5  N   UNL     1      26.486  42.605  50.625  1.00  0.00    -0.216 NA
ENDROOT
BRANCH   1   6
HETATM    6  C   UNL     1      26.819  40.122  50.417  1.00  0.00     0.087 C 
BRANCH   6   7
HETATM    7  C   UNL     1      28.077  39.422  49.852  1.00  0.00    -0.004 C 
HETATM    8  C   UNL     1      28.733  40.153  48.666  1.00  0.00     0.032 C 
HETATM    9  C   UNL     1      27.901  40.090  47.391  1.00  0.00     0.234 C 
HETATM   10  N   UNL     1      27.644  38.644  47.040  1.00  0.00    -0.075 N 
HETATM   11  C   UNL     1      26.915  38.515  45.726  1.00  0.00     0.269 C 
HETATM   12  H   UNL     1      28.560  38.196  46.893  1.00  0.00     0.279 HD
HETATM   13  C   UNL     1      26.943  37.885  48.138  1.00  0.00     0.234 C 
HETATM   14  C   UNL     1      27.757  37.976  49.428  1.00  0.00     0.032 C 
ENDBRANCH   6   7
ENDBRANCH   1   6
BRANCH   3  15
HETATM   15  C   UNL     1      28.643  43.446  53.404  1.00  0.00     0.062 A 
HETATM   16  C   UNL     1      28.186  44.539  54.151  1.00  0.00     0.058 A 
HETATM   17  C   UNL     1      28.939  45.013  55.233  1.00  0.00     0.074 A 
HETATM   18 CL   UNL     1      28.349  46.360  56.128  1.00  0.00    -0.081 Cl
HETATM   19  C   UNL     1      30.137  44.396  55.579  1.00  0.00     0.138 A 
HETATM   20  F   UNL     1      30.867  44.842  56.610  1.00  0.00    -0.204 F 
HETATM   21  C   UNL     1      30.590  43.296  54.862  1.00  0.00     0.046 A 
HETATM   22  C   UNL     1      29.842  42.814  53.783  1.00  0.00     0.035 A 
ENDBRANCH   3  15
BRANCH   4  23
HETATM   23  C   UNL     1      26.891  45.011  51.141  1.00  0.00     0.084 C 
HETATM   24  C   UNL     1      26.670  45.311  49.657  1.00  0.00     0.244 C 
HETATM   25  N   UNL     1      25.223  44.981  49.445  1.00  0.00    -0.074 N 
HETATM   26  H   UNL     1      24.809  45.475  48.642  1.00  0.00     0.277 HD
HETATM   27  H   UNL     1      25.168  43.967  49.248  1.00  0.00     0.277 HD
HETATM   28  C   UNL     1      24.501  45.238  50.732  1.00  0.00     0.233 C 
HETATM   29  C   UNL     1      25.595  45.539  51.752  1.00  0.00     0.041 C 
ENDBRANCH   4  23
TORSDOF 4
ENDMDL
MODEL 5
REMARK VINA RESULT:      -8.2     13.171     14.623
REMARK  4 active torsions:
REMARK  status: ('A' for Active; 'I' for Inactive)
REMARK    1  A    between atoms: C_6  and  C_7 
REMARK    2  A    between atoms: C_7  and  C_8 
REMARK    3  A    between atoms: N_10  and  C_11 
REMARK    4  A    between atoms: C_19  and  C_20 
ROOT
HETATM    1  C   UNL     1      30.472  48.564  39.228  1.00  0.00     0.149 A 
HETATM    2  N   UNL     1      31.567  48.749  39.961  1.00  0.00    -0.150 NA
HETATM    3  N   UNL     1      31.458  50.040  40.372  1.00  0.00    -0.218 N 
HETATM    4  C   UNL     1      30.357  50.612  39.731  1.00  0.00     0.136 A 
HETATM    5  N   UNL     1      29.699  49.676  39.063  1.00  0.00    -0.216 NA
ENDROOT
BRANCH   1   6
HETATM    6  C   UNL     1      30.175  47.255  38.583  1.00  0.00     0.087 C 
BRANCH   6   7
HETATM    7  C   UNL     1      29.646  46.174  39.553  1.00  0.00    -0.004 C 
HETATM    8  C   UNL     1      29.234  44.855  38.875  1.00  0.00     0.032 C 
HETATM    9  C   UNL     1      27.967  44.984  38.038  1.00  0.00     0.234 C 
HETATM   10  N   UNL     1      26.848  45.496  38.913  1.00  0.00    -0.075 N 
HETATM   11  C   UNL     1      25.538  45.542  38.165  1.00  0.00     0.269 C 
HETATM   12  H   UNL     1      26.710  44.810  39.669  1.00  0.00     0.279 HD
HETATM   13  C   UNL     1      27.163  46.820  39.559  1.00  0.00     0.234 C 
HETATM   14  C   UNL     1      28.452  46.705  40.370  1.00  0.00     0.032 C 
ENDBRANCH   6   7
ENDBRANCH   1   6
BRANCH   3  15
HETATM   15  C   UNL     1      32.389  50.562  41.313  1.00  0.00     0.062 A 
HETATM   16  C   UNL     1      32.000  50.984  42.590  1.00  0.00     0.058 A 
HETATM   17  C   UNL     1      32.954  51.490  43.482  1.00  0.00     0.074 A 
HETATM   18 CL   UNL     1      32.441  52.002  45.043  1.00  0.00    -0.081 Cl
HETATM   19  C   UNL     1      34.293  51.566  43.111  1.00  0.00     0.138 A 
HETATM   20  F   UNL     1      35.214  52.051  43.954  1.00  0.00    -0.204 F 
HETATM   21  C   UNL     1      34.696  51.129  41.856  1.00  0.00     0.046 A 
HETATM   22  C   UNL     1      33.751  50.619  40.961  1.00  0.00     0.035 A 
ENDBRANCH   3  15
BRANCH   4  23
HETATM   23  C   UNL     1      30.017  52.076  39.662  1.00  0.00     0.084 C 
HETATM   24  C   UNL     1      28.853  52.326  38.701  1.00  0.00     0.244 C 
HETATM   25  N   UNL     1      27.647  51.950  39.508  1.00  0.00    -0.074 N 
HETATM   26  H   UNL     1      26.784  52.408  39.183  1.00  0.00     0.277 HD
HETATM   27  H   UNL     1      27.515  50.930  39.401  1.00  0.00     0.277 HD
HETATM   28  C   UNL     1      27.955  52.224  40.949  1.00  0.00     0.233 C 
HETATM   29  C   UNL     1      29.437  52.585  40.979  1.00  0.00     0.041 C 
ENDBRANCH   4  23
TORSDOF 4
ENDMDL
MODEL 6
REMARK VINA RESULT:      -8.1      3.815      7.642
REMARK  4 active torsions:
REMARK  status: ('A' for Active; 'I' for Inactive)
REMARK    1  A    between atoms: C_6  and  C_7 
REMARK    2  A    between atoms: C_7  and  C_8 
REMARK    3  A    between atoms: N_10  and  C_11 
REMARK    4  A    between atoms: C_19  and  C_20 
ROOT
HETATM    1  C   UNL     1      27.679  42.917  53.388  1.00  0.00     0.149 A 
HETATM    2  N   UNL     1      27.946  41.706  52.906  1.00  0.00    -0.150 NA
HETATM    3  N   UNL     1      27.244  41.667  51.743  1.00  0.00    -0.218 N 
HETATM    4  C   UNL     1      26.462  42.822  51.663  1.00  0.00     0.136 A 
HETATM    5  N   UNL     1      26.779  43.638  52.658  1.00  0.00    -0.216 NA
ENDROOT
BRANCH   1   6
HETATM    6  C   UNL     1      28.268  43.397  54.669  1.00  0.00     0.087 C 
BRANCH   6   7
HETATM    7  C   UNL     1      29.444  44.386  54.496  1.00  0.00    -0.004 C 
HETATM    8  C   UNL     1      30.773  43.911  55.112  1.00  0.00     0.032 C 
HETATM    9  C   UNL     1      30.758  43.910  56.636  1.00  0.00     0.234 C 
HETATM   10  N   UNL     1      30.418  45.297  57.126  1.00  0.00    -0.075 N 
HETATM   11  C   UNL     1      30.494  45.385  58.630  1.00  0.00     0.269 C 
HETATM   12  H   UNL     1      31.147  45.934  56.775  1.00  0.00     0.279 HD
HETATM   13  C   UNL     1      29.094  45.798  56.609  1.00  0.00     0.234 C 
HETATM   14  C   UNL     1      29.092  45.767  55.081  1.00  0.00     0.032 C 
ENDBRANCH   6   7
ENDBRANCH   1   6
BRANCH   3  15
HETATM   15  C   UNL     1      27.401  40.562  50.860  1.00  0.00     0.062 A 
HETATM   16  C   UNL     1      28.650  39.980  50.612  1.00  0.00     0.058 A 
HETATM   17  C   UNL     1      28.756  38.891  49.736  1.00  0.00     0.074 A 
HETATM   18 CL   UNL     1      30.307  38.202  49.452  1.00  0.00    -0.081 Cl
HETATM   19  C   UNL     1      27.621  38.376  49.117  1.00  0.00     0.138 A 
HETATM   20  F   UNL     1      27.710  37.337  48.276  1.00  0.00    -0.204 F 
HETATM   21  C   UNL     1      26.373  38.928  49.373  1.00  0.00     0.046 A 
HETATM   22  C   UNL     1      26.259  40.012  50.249  1.00  0.00     0.035 A 
ENDBRANCH   3  15
BRANCH   4  23
HETATM   23  C   UNL     1      25.331  43.078  50.705  1.00  0.00     0.084 C 
HETATM   24  C   UNL     1      24.462  44.245  51.181  1.00  0.00     0.244 C 
HETATM   25  N   UNL     1      25.250  45.455  50.779  1.00  0.00    -0.074 N 
HETATM   26  H   UNL     1      24.668  46.296  50.662  1.00  0.00     0.277 HD
HETATM   27  H   UNL     1      25.922  45.647  51.541  1.00  0.00     0.277 HD
HETATM   28  C   UNL     1      26.035  45.105  49.552  1.00  0.00     0.233 C 
HETATM   29  C   UNL     1      25.835  43.604  49.363  1.00  0.00     0.041 C 
ENDBRANCH   4  23
TORSDOF 4
ENDMDL
MODEL 7
REMARK VINA RESULT:      -8.0      5.643      9.855
REMARK  4 active torsions:
REMARK  status: ('A' for Active; 'I' for Inactive)
REMARK    1  A    between atoms: C_6  and  C_7 
REMARK    2  A    between atoms: C_7  and  C_8 
REMARK    3  A    between atoms: N_10  and  C_11 
REMARK    4  A    between atoms: C_19  and  C_20 
ROOT
HETATM    1  C   UNL     1      23.788  46.033  49.331  1.00  0.00     0.149 A 
HETATM    2  N   UNL     1      23.477  47.307  49.554  1.00  0.00    -0.150 NA
HETATM    3  N   UNL     1      22.456  47.539  48.687  1.00  0.00    -0.218 N 
HETATM    4  C   UNL     1      22.307  46.413  47.874  1.00  0.00     0.136 A 
HETATM    5  N   UNL     1      23.094  45.443  48.315  1.00  0.00    -0.216 NA
ENDROOT
BRANCH   1   6
HETATM    6  C   UNL     1      24.869  45.347  50.093  1.00  0.00     0.087 C 
BRANCH   6   7
HETATM    7  C   UNL     1      24.363  44.459  51.253  1.00  0.00    -0.004 C 
HETATM    8  C   UNL     1      25.241  44.500  52.517  1.00  0.00     0.032 C 
HETATM    9  C   UNL     1      26.587  43.810  52.333  1.00  0.00     0.234 C 
HETATM   10  N   UNL     1      26.354  42.382  51.902  1.00  0.00    -0.075 N 
HETATM   11  C   UNL     1      27.650  41.615  51.809  1.00  0.00     0.269 C 
HETATM   12  H   UNL     1      25.813  41.920  52.648  1.00  0.00     0.279 HD
HETATM   13  C   UNL     1      25.552  42.271  50.631  1.00  0.00     0.234 C 
HETATM   14  C   UNL     1      24.216  42.993  50.800  1.00  0.00     0.032 C 
ENDBRANCH   6   7
ENDBRANCH   1   6
BRANCH   3  15
HETATM   15  C   UNL     1      21.754  48.776  48.738  1.00  0.00     0.062 A 
HETATM   16  C   UNL     1      20.504  48.896  49.358  1.00  0.00     0.058 A 
HETATM   17  C   UNL     1      19.851  50.136  49.384  1.00  0.00     0.074 A 
HETATM   18 CL   UNL     1      18.314  50.248  50.151  1.00  0.00    -0.081 Cl
HETATM   19  C   UNL     1      20.444  51.254  48.808  1.00  0.00     0.138 A 
HETATM   20  F   UNL     1      19.829  52.444  48.825  1.00  0.00    -0.204 F 
HETATM   21  C   UNL     1      21.695  51.154  48.212  1.00  0.00     0.046 A 
HETATM   22  C   UNL     1      22.354  49.921  48.184  1.00  0.00     0.035 A 
ENDBRANCH   3  15
BRANCH   4  23
HETATM   23  C   UNL     1      21.501  46.318  46.608  1.00  0.00     0.084 C 
HETATM   24  C   UNL     1      21.815  45.026  45.851  1.00  0.00     0.244 C 
HETATM   25  N   UNL     1      21.022  43.988  46.588  1.00  0.00    -0.074 N 
HETATM   26  H   UNL     1      20.800  43.164  46.011  1.00  0.00     0.277 HD
HETATM   27  H   UNL     1      21.604  43.665  47.379  1.00  0.00     0.277 HD
HETATM   28  C   UNL     1      19.807  44.656  47.155  1.00  0.00     0.233 C 
HETATM   29  C   UNL     1      20.011  46.146  46.895  1.00  0.00     0.041 C 
ENDBRANCH   4  23
TORSDOF 4
ENDMDL
MODEL 8
REMARK VINA RESULT:      -7.9     12.963     14.437
REMARK  4 active torsions:
REMARK  status: ('A' for Active; 'I' for Inactive)
REMARK    1  A    between atoms: C_6  and  C_7 
REMARK    2  A    between atoms: C_7  and  C_8 
REMARK    3  A    between atoms: N_10  and  C_11 
REMARK    4  A    between atoms: C_19  and  C_20 
ROOT
HETATM    1  C   UNL     1      30.280  48.169  40.294  1.00  0.00     0.149 A 
HETATM    2  N   UNL     1      31.400  48.469  40.947  1.00  0.00    -0.150 NA
HETATM    3  N   UNL     1      31.285  49.805  41.172  1.00  0.00    -0.218 N 
HETATM    4  C   UNL     1      30.151  50.267  40.500  1.00  0.00     0.136 A 
HETATM    5  N   UNL     1      29.483  49.237  40.002  1.00  0.00    -0.216 NA
ENDROOT
BRANCH   1   6
HETATM    6  C   UNL     1      29.979  46.777  39.857  1.00  0.00     0.087 C 
BRANCH   6   7
HETATM    7  C   UNL     1      28.616  46.615  39.145  1.00  0.00    -0.004 C 
HETATM    8  C   UNL     1      27.654  45.627  39.827  1.00  0.00     0.032 C 
HETATM    9  C   UNL     1      28.099  44.175  39.700  1.00  0.00     0.234 C 
HETATM   10  N   UNL     1      28.253  43.833  38.238  1.00  0.00    -0.075 N 
HETATM   11  C   UNL     1      28.588  42.375  38.044  1.00  0.00     0.269 C 
HETATM   12  H   UNL     1      27.333  43.967  37.792  1.00  0.00     0.279 HD
HETATM   13  C   UNL     1      29.234  44.726  37.522  1.00  0.00     0.234 C 
HETATM   14  C   UNL     1      28.810  46.186  37.678  1.00  0.00     0.032 C 
ENDBRANCH   6   7
ENDBRANCH   1   6
BRANCH   3  15
HETATM   15  C   UNL     1      32.244  50.468  41.988  1.00  0.00     0.062 A 
HETATM   16  C   UNL     1      33.562  50.680  41.564  1.00  0.00     0.058 A 
HETATM   17  C   UNL     1      34.470  51.340  42.403  1.00  0.00     0.074 A 
HETATM   18 CL   UNL     1      36.083  51.580  41.852  1.00  0.00    -0.081 Cl
HETATM   19  C   UNL     1      34.067  51.797  43.653  1.00  0.00     0.138 A 
HETATM   20  F   UNL     1      34.928  52.427  44.464  1.00  0.00    -0.204 F 
HETATM   21  C   UNL     1      32.757  51.615  44.076  1.00  0.00     0.046 A 
HETATM   22  C   UNL     1      31.843  50.961  43.243  1.00  0.00     0.035 A 
ENDBRANCH   3  15
BRANCH   4  23
HETATM   23  C   UNL     1      29.785  51.702  40.235  1.00  0.00     0.084 C 
HETATM   24  C   UNL     1      28.732  51.806  39.129  1.00  0.00     0.244 C 
HETATM   25  N   UNL     1      27.451  51.473  39.834  1.00  0.00    -0.074 N 
HETATM   26  H   UNL     1      26.620  51.862  39.367  1.00  0.00     0.277 HD
HETATM   27  H   UNL     1      27.358  50.443  39.825  1.00  0.00     0.277 HD
HETATM   28  C   UNL     1      27.586  51.908  41.261  1.00  0.00     0.233 C 
HETATM   29  C   UNL     1      29.046  52.325  41.416  1.00  0.00     0.041 C 
ENDBRANCH   4  23
TORSDOF 4
ENDMDL
MODEL 9
REMARK VINA RESULT:      -7.9      5.165      9.546
REMARK  4 active torsions:
REMARK  status: ('A' for Active; 'I' for Inactive)
REMARK    1  A    between atoms: C_6  and  C_7 
REMARK    2  A    between atoms: C_7  and  C_8 
REMARK    3  A    between atoms: N_10  and  C_11 
REMARK    4  A    between atoms: C_19  and  C_20 
ROOT
HETATM    1  C   UNL     1      25.004  47.163  50.577  1.00  0.00     0.149 A 
HETATM    2  N   UNL     1      24.391  46.038  50.219  1.00  0.00    -0.150 NA
HETATM    3  N   UNL     1      23.585  46.429  49.197  1.00  0.00    -0.218 N 
HETATM    4  C   UNL     1      23.652  47.821  49.094  1.00  0.00     0.136 A 
HETATM    5  N   UNL     1      24.587  48.279  49.912  1.00  0.00    -0.216 NA
ENDROOT
BRANCH   1   6
HETATM    6  C   UNL     1      26.010  47.190  51.676  1.00  0.00     0.087 C 
BRANCH   6   7
HETATM    7  C   UNL     1      25.445  46.815  53.064  1.00  0.00    -0.004 C 
HETATM    8  C   UNL     1      25.966  47.686  54.222  1.00  0.00     0.032 C 
HETATM    9  C   UNL     1      27.433  47.433  54.547  1.00  0.00     0.234 C 
HETATM   10  N   UNL     1      27.621  45.969  54.867  1.00  0.00    -0.075 N 
HETATM   11  C   UNL     1      29.034  45.676  55.304  1.00  0.00     0.269 C 
HETATM   12  H   UNL     1      27.029  45.754  55.683  1.00  0.00     0.279 HD
HETATM   13  C   UNL     1      27.188  45.059  53.746  1.00  0.00     0.234 C 
HETATM   14  C   UNL     1      25.728  45.336  53.392  1.00  0.00     0.032 C 
ENDBRANCH   6   7
ENDBRANCH   1   6
BRANCH   3  15
HETATM   15  C   UNL     1      22.867  45.453  48.451  1.00  0.00     0.062 A 
HETATM   16  C   UNL     1      21.483  45.538  48.253  1.00  0.00     0.058 A 
HETATM   17  C   UNL     1      20.820  44.553  47.509  1.00  0.00     0.074 A 
HETATM   18 CL   UNL     1      19.118  44.686  47.287  1.00  0.00    -0.081 Cl
HETATM   19  C   UNL     1      21.531  43.493  46.955  1.00  0.00     0.138 A 
HETATM   20  F   UNL     1      20.907  42.544  46.244  1.00  0.00    -0.204 F 
HETATM   21  C   UNL     1      22.907  43.410  47.123  1.00  0.00     0.046 A 
HETATM   22  C   UNL     1      23.577  44.391  47.861  1.00  0.00     0.035 A 
ENDBRANCH   3  15
BRANCH   4  23
HETATM   23  C   UNL     1      22.732  48.709  48.302  1.00  0.00     0.084 C 
HETATM   24  C   UNL     1      21.519  49.128  49.136  1.00  0.00     0.244 C 
HETATM   25  N   UNL     1      22.053  50.230  50.000  1.00  0.00    -0.074 N 
HETATM   26  H   UNL     1      21.321  50.876  50.329  1.00  0.00     0.277 HD
HETATM   27  H   UNL     1      22.472  49.787  50.835  1.00  0.00     0.277 HD
HETATM   28  C   UNL     1      23.150  50.916  49.245  1.00  0.00     0.233 C 
HETATM   29  C   UNL     1      23.372  50.062  48.000  1.00  0.00     0.041 C 
ENDBRANCH   4  23
TORSDOF 4
ENDMDL
MODEL 10
REMARK VINA RESULT:      -7.7      2.402      5.073
REMARK  4 active torsions:
REMARK  status: ('A' for Active; 'I' for Inactive)
REMARK    1  A    between atoms: C_6  and  C_7 
REMARK    2  A    between atoms: C_7  and  C_8 
REMARK    3  A    between atoms: N_10  and  C_11 
REMARK    4  A    between atoms: C_19  and  C_20 
ROOT
HETATM    1  C   UNL     1      28.296  42.615  51.732  1.00  0.00     0.149 A 
HETATM    2  N   UNL     1      29.266  42.665  52.642  1.00  0.00    -0.150 NA
HETATM    3  N   UNL     1      28.850  43.639  53.494  1.00  0.00    -0.218 N 
HETATM    4  C   UNL     1      27.705  44.232  52.957  1.00  0.00     0.136 A 
HETATM    5  N   UNL     1      27.317  43.553  51.888  1.00  0.00    -0.216 NA
ENDROOT
BRANCH   1   6
HETATM    6  C   UNL     1      28.337  41.653  50.596  1.00  0.00     0.087 C 
BRANCH   6   7
HETATM    7  C   UNL     1      27.600  40.320  50.866  1.00  0.00    -0.004 C 
HETATM    8  C   UNL     1      27.986  39.174  49.913  1.00  0.00     0.032 C 
HETATM    9  C   UNL     1      27.476  39.381  48.492  1.00  0.00     0.234 C 
HETATM   10  N   UNL     1      25.976  39.552  48.527  1.00  0.00    -0.075 N 
HETATM   11  C   UNL     1      25.399  39.652  47.137  1.00  0.00     0.269 C 
HETATM   12  H   UNL     1      25.578  38.691  48.930  1.00  0.00     0.279 HD
HETATM   13  C   UNL     1      25.532  40.701  49.395  1.00  0.00     0.234 C 
HETATM   14  C   UNL     1      26.073  40.516  50.812  1.00  0.00     0.032 C 
ENDBRANCH   6   7
ENDBRANCH   1   6
BRANCH   3  15
HETATM   15  C   UNL     1      29.573  43.880  54.696  1.00  0.00     0.062 A 
HETATM   16  C   UNL     1      29.223  44.908  55.580  1.00  0.00     0.058 A 
HETATM   17  C   UNL     1      29.964  45.106  56.753  1.00  0.00     0.074 A 
HETATM   18 CL   UNL     1      29.509  46.381  57.816  1.00  0.00    -0.081 Cl
HETATM   19  C   UNL     1      31.042  44.278  57.051  1.00  0.00     0.138 A 
HETATM   20  F   UNL     1      31.759  44.459  58.169  1.00  0.00    -0.204 F 
HETATM   21  C   UNL     1      31.384  43.239  56.195  1.00  0.00     0.046 A 
HETATM   22  C   UNL     1      30.647  43.033  55.025  1.00  0.00     0.035 A 
ENDBRANCH   3  15
BRANCH   4  23
HETATM   23  C   UNL     1      27.066  45.518  53.403  1.00  0.00     0.084 C 
HETATM   24  C   UNL     1      26.172  46.098  52.304  1.00  0.00     0.244 C 
HETATM   25  N   UNL     1      24.917  45.285  52.409  1.00  0.00    -0.074 N 
HETATM   26  H   UNL     1      24.089  45.770  52.034  1.00  0.00     0.277 HD
HETATM   27  H   UNL     1      25.059  44.432  51.842  1.00  0.00     0.277 HD
HETATM   28  C   UNL     1      24.760  44.865  53.838  1.00  0.00     0.233 C 
HETATM   29  C   UNL     1      26.055  45.290  54.525  1.00  0.00     0.041 C 
ENDBRANCH   4  23
TORSDOF 4
ENDMDL
