MODEL 1
REMARK VINA RESULT:      -8.8      0.000      0.000
REMARK  2 active torsions:
REMARK  status: ('A' for Active; 'I' for Inactive)
REMARK    1  A    between atoms: C_6  and  N_7 
REMARK    2  A    between atoms: N_7  and  C_8 
ROOT
HETATM    1  C   UNL     1      26.248  48.855  56.066  1.00  0.00     0.093 C 
HETATM    2  C   UNL     1      26.808  47.689  55.310  1.00  0.00     0.125 A 
HETATM    3  N   UNL     1      27.779  46.987  55.899  1.00  0.00    -0.226 NA
HETATM    4  C   UNL     1      28.199  45.952  55.158  1.00  0.00     0.114 A 
HETATM    5  C   UNL     1      27.719  45.577  53.903  1.00  0.00     0.053 A 
HETATM    6  C   UNL     1      26.695  46.387  53.361  1.00  0.00     0.143 A 
HETATM    7  N   UNL     1      26.264  47.435  54.105  1.00  0.00    -0.215 NA
HETATM    8  S   UNL     1      29.460  44.933  55.737  1.00  0.00    -0.073 SA
HETATM    9  C   UNL     1      29.375  44.008  54.350  1.00  0.00    -0.008 A 
HETATM   10  C   UNL     1      28.424  44.422  53.457  1.00  0.00    -0.028 A 
HETATM   11  C   UNL     1      28.420  43.545  52.257  1.00  0.00     0.041 C 
HETATM   12  C   UNL     1      29.290  42.333  52.717  1.00  0.00     0.010 C 
HETATM   13  C   UNL     1      30.152  42.825  53.917  1.00  0.00     0.047 C 
ENDROOT
BRANCH   6  14
HETATM   14  N   UNL     1      26.128  46.104  52.110  1.00  0.00    -0.340 N 
HETATM   15  H   UNL     1      26.122  45.121  51.887  1.00  0.00     0.167 HD
BRANCH  14  16
HETATM   16  C   UNL     1      25.652  46.926  51.072  1.00  0.00     0.036 A 
HETATM   17  C   UNL     1      26.554  47.822  50.468  1.00  0.00     0.069 A 
HETATM   18  C   UNL     1      26.110  48.623  49.435  1.00  0.00     0.107 A 
HETATM   19  C   UNL     1      24.818  48.564  48.976  1.00  0.00     0.105 A 
HETATM   20  O   UNL     1      26.858  49.537  48.760  1.00  0.00    -0.323 OA
HETATM   21  O   UNL     1      24.585  49.433  47.959  1.00  0.00    -0.323 OA
HETATM   22  C   UNL     1      23.903  47.696  49.525  1.00  0.00     0.042 A 
HETATM   23  C   UNL     1      25.883  50.047  47.826  1.00  0.00     0.352 A 
HETATM   24  C   UNL     1      24.332  46.871  50.575  1.00  0.00     0.032 A 
ENDBRANCH  14  16
ENDBRANCH   6  14
TORSDOF 2
ENDMDL
MODEL 2
REMARK VINA RESULT:      -8.8      2.127      4.096
REMARK  2 active torsions:
REMARK  status: ('A' for Active; 'I' for Inactive)
REMARK    1  A    between atoms: C_6  and  N_7 
REMARK    2  A    between atoms: N_7  and  C_8 
ROOT
HETATM    1  C   UNL     1      28.539  39.846  50.674  1.00  0.00     0.093 C 
HETATM    2  C   UNL     1      28.296  41.093  51.467  1.00  0.00     0.125 A 
HETATM    3  N   UNL     1      29.138  41.356  52.469  1.00  0.00    -0.226 NA
HETATM    4  C   UNL     1      28.854  42.502  53.104  1.00  0.00     0.114 A 
HETATM    5  C   UNL     1      27.815  43.384  52.805  1.00  0.00     0.053 A 
HETATM    6  C   UNL     1      26.974  43.014  51.731  1.00  0.00     0.143 A 
HETATM    7  N   UNL     1      27.255  41.857  51.083  1.00  0.00    -0.215 NA
HETATM    8  S   UNL     1      29.816  43.010  54.438  1.00  0.00    -0.073 SA
HETATM    9  C   UNL     1      28.875  44.376  54.620  1.00  0.00    -0.008 A 
HETATM   10  C   UNL     1      27.859  44.485  53.709  1.00  0.00    -0.028 A 
HETATM   11  C   UNL     1      27.076  45.725  53.948  1.00  0.00     0.041 C 
HETATM   12  C   UNL     1      27.986  46.520  54.936  1.00  0.00     0.010 C 
HETATM   13  C   UNL     1      28.943  45.485  55.599  1.00  0.00     0.047 C 
ENDROOT
BRANCH   6  14
HETATM   14  N   UNL     1      25.901  43.825  51.333  1.00  0.00    -0.340 N 
HETATM   15  H   UNL     1      25.022  43.332  51.290  1.00  0.00     0.167 HD
BRANCH  14  16
HETATM   16  C   UNL     1      25.827  45.160  50.895  1.00  0.00     0.036 A 
HETATM   17  C   UNL     1      26.877  45.657  50.100  1.00  0.00     0.069 A 
HETATM   18  C   UNL     1      26.813  46.958  49.644  1.00  0.00     0.107 A 
HETATM   19  C   UNL     1      25.751  47.777  49.939  1.00  0.00     0.105 A 
HETATM   20  O   UNL     1      27.749  47.579  48.876  1.00  0.00    -0.323 OA
HETATM   21  O   UNL     1      25.883  49.016  49.398  1.00  0.00    -0.323 OA
HETATM   22  C   UNL     1      24.696  47.334  50.701  1.00  0.00     0.042 A 
HETATM   23  C   UNL     1      27.152  48.885  48.725  1.00  0.00     0.352 A 
HETATM   24  C   UNL     1      24.739  46.014  51.173  1.00  0.00     0.032 A 
ENDBRANCH  14  16
ENDBRANCH   6  14
TORSDOF 2
ENDMDL
MODEL 3
REMARK VINA RESULT:      -8.7      0.969      1.618
REMARK  2 active torsions:
REMARK  status: ('A' for Active; 'I' for Inactive)
REMARK    1  A    between atoms: C_6  and  N_7 
REMARK    2  A    between atoms: N_7  and  C_8 
ROOT
HETATM    1  C   UNL     1      26.151  48.905  55.824  1.00  0.00     0.093 C 
HETATM    2  C   UNL     1      26.571  47.752  54.965  1.00  0.00     0.125 A 
HETATM    3  N   UNL     1      27.463  46.900  55.477  1.00  0.00    -0.226 NA
HETATM    4  C   UNL     1      27.758  45.891  54.645  1.00  0.00     0.114 A 
HETATM    5  C   UNL     1      27.228  45.679  53.372  1.00  0.00     0.053 A 
HETATM    6  C   UNL     1      26.297  46.640  52.918  1.00  0.00     0.143 A 
HETATM    7  N   UNL     1      25.992  47.663  53.753  1.00  0.00    -0.215 NA
HETATM    8  S   UNL     1      28.902  44.694  55.115  1.00  0.00    -0.073 SA
HETATM    9  C   UNL     1      28.702  43.904  53.658  1.00  0.00    -0.008 A 
HETATM   10  C   UNL     1      27.795  44.494  52.819  1.00  0.00    -0.028 A 
HETATM   11  C   UNL     1      27.684  43.727  51.551  1.00  0.00     0.041 C 
HETATM   12  C   UNL     1      28.416  42.392  51.894  1.00  0.00     0.010 C 
HETATM   13  C   UNL     1      29.338  42.683  53.115  1.00  0.00     0.047 C 
ENDROOT
BRANCH   6  14
HETATM   14  N   UNL     1      25.691  46.528  51.657  1.00  0.00    -0.340 N 
HETATM   15  H   UNL     1      25.383  45.592  51.444  1.00  0.00     0.167 HD
BRANCH  14  16
HETATM   16  C   UNL     1      25.512  47.441  50.602  1.00  0.00     0.036 A 
HETATM   17  C   UNL     1      24.198  47.728  50.188  1.00  0.00     0.069 A 
HETATM   18  C   UNL     1      24.002  48.637  49.167  1.00  0.00     0.107 A 
HETATM   19  C   UNL     1      25.051  49.271  48.550  1.00  0.00     0.105 A 
HETATM   20  O   UNL     1      22.797  49.011  48.656  1.00  0.00    -0.323 OA
HETATM   21  O   UNL     1      24.644  50.121  47.573  1.00  0.00    -0.323 OA
HETATM   22  C   UNL     1      26.352  49.033  48.927  1.00  0.00     0.042 A 
HETATM   23  C   UNL     1      23.214  49.952  47.645  1.00  0.00     0.352 A 
HETATM   24  C   UNL     1      26.575  48.115  49.964  1.00  0.00     0.032 A 
ENDBRANCH  14  16
ENDBRANCH   6  14
TORSDOF 2
ENDMDL
MODEL 4
REMARK VINA RESULT:      -8.7      4.092      5.351
REMARK  2 active torsions:
REMARK  status: ('A' for Active; 'I' for Inactive)
REMARK    1  A    between atoms: C_6  and  N_7 
REMARK    2  A    between atoms: N_7  and  C_8 
ROOT
HETATM    1  C   UNL     1      25.954  47.725  54.418  1.00  0.00     0.093 C 
HETATM    2  C   UNL     1      27.089  46.817  54.779  1.00  0.00     0.125 A 
HETATM    3  N   UNL     1      27.660  46.996  55.973  1.00  0.00    -0.226 NA
HETATM    4  C   UNL     1      28.648  46.123  56.216  1.00  0.00     0.114 A 
HETATM    5  C   UNL     1      29.086  45.105  55.368  1.00  0.00     0.053 A 
HETATM    6  C   UNL     1      28.423  45.001  54.125  1.00  0.00     0.143 A 
HETATM    7  N   UNL     1      27.422  45.879  53.873  1.00  0.00    -0.215 NA
HETATM    8  S   UNL     1      29.522  46.200  57.697  1.00  0.00    -0.073 SA
HETATM    9  C   UNL     1      30.467  44.906  57.229  1.00  0.00    -0.008 A 
HETATM   10  C   UNL     1      30.152  44.397  55.997  1.00  0.00    -0.028 A 
HETATM   11  C   UNL     1      31.042  43.255  55.664  1.00  0.00     0.041 C 
HETATM   12  C   UNL     1      31.721  42.939  57.033  1.00  0.00     0.010 C 
HETATM   13  C   UNL     1      31.588  44.220  57.909  1.00  0.00     0.047 C 
ENDROOT
BRANCH   6  14
HETATM   14  N   UNL     1      28.771  44.011  53.194  1.00  0.00    -0.340 N 
HETATM   15  H   UNL     1      29.764  43.943  53.035  1.00  0.00     0.167 HD
BRANCH  14  16
HETATM   16  C   UNL     1      28.004  43.162  52.375  1.00  0.00     0.036 A 
HETATM   17  C   UNL     1      28.590  41.963  51.927  1.00  0.00     0.069 A 
HETATM   18  C   UNL     1      27.846  41.108  51.139  1.00  0.00     0.107 A 
HETATM   19  C   UNL     1      26.550  41.392  50.786  1.00  0.00     0.105 A 
HETATM   20  O   UNL     1      28.275  39.923  50.628  1.00  0.00    -0.323 OA
HETATM   21  O   UNL     1      25.999  40.426  50.007  1.00  0.00    -0.323 OA
HETATM   22  C   UNL     1      25.930  42.543  51.209  1.00  0.00     0.042 A 
HETATM   23  C   UNL     1      27.098  39.496  49.910  1.00  0.00     0.352 A 
HETATM   24  C   UNL     1      26.666  43.427  52.013  1.00  0.00     0.032 A 
ENDBRANCH  14  16
ENDBRANCH   6  14
TORSDOF 2
ENDMDL
MODEL 5
REMARK VINA RESULT:      -8.6      1.931      3.893
REMARK  2 active torsions:
REMARK  status: ('A' for Active; 'I' for Inactive)
REMARK    1  A    between atoms: C_6  and  N_7 
REMARK    2  A    between atoms: N_7  and  C_8 
ROOT
HETATM    1  C   UNL     1      26.930  42.142  49.382  1.00  0.00     0.093 C 
HETATM    2  C   UNL     1      26.945  43.122  50.515  1.00  0.00     0.125 A 
HETATM    3  N   UNL     1      27.770  42.867  51.533  1.00  0.00    -0.226 NA
HETATM    4  C   UNL     1      27.731  43.810  52.486  1.00  0.00     0.114 A 
HETATM    5  C   UNL     1      26.948  44.965  52.482  1.00  0.00     0.053 A 
HETATM    6  C   UNL     1      26.104  45.141  51.363  1.00  0.00     0.143 A 
HETATM    7  N   UNL     1      26.138  44.193  50.395  1.00  0.00    -0.215 NA
HETATM    8  S   UNL     1      28.711  43.655  53.893  1.00  0.00    -0.073 SA
HETATM    9  C   UNL     1      28.112  45.093  54.491  1.00  0.00    -0.008 A 
HETATM   10  C   UNL     1      27.202  45.706  53.673  1.00  0.00    -0.028 A 
HETATM   11  C   UNL     1      26.723  46.973  54.284  1.00  0.00     0.041 C 
HETATM   12  C   UNL     1      27.740  47.198  55.447  1.00  0.00     0.010 C 
HETATM   13  C   UNL     1      28.387  45.815  55.754  1.00  0.00     0.047 C 
ENDROOT
BRANCH   6  14
HETATM   14  N   UNL     1      25.277  46.268  51.245  1.00  0.00    -0.340 N 
HETATM   15  H   UNL     1      24.526  46.285  51.918  1.00  0.00     0.167 HD
BRANCH  14  16
HETATM   16  C   UNL     1      25.235  47.325  50.317  1.00  0.00     0.036 A 
HETATM   17  C   UNL     1      23.975  47.765  49.869  1.00  0.00     0.069 A 
HETATM   18  C   UNL     1      23.912  48.815  48.974  1.00  0.00     0.107 A 
HETATM   19  C   UNL     1      25.043  49.443  48.516  1.00  0.00     0.105 A 
HETATM   20  O   UNL     1      22.775  49.345  48.449  1.00  0.00    -0.323 OA
HETATM   21  O   UNL     1      24.764  50.446  47.643  1.00  0.00    -0.323 OA
HETATM   22  C   UNL     1      26.295  49.058  48.934  1.00  0.00     0.042 A 
HETATM   23  C   UNL     1      23.324  50.379  47.605  1.00  0.00     0.352 A 
HETATM   24  C   UNL     1      26.383  47.995  49.844  1.00  0.00     0.032 A 
ENDBRANCH  14  16
ENDBRANCH   6  14
TORSDOF 2
ENDMDL
MODEL 6
REMARK VINA RESULT:      -8.6      6.796     10.148
REMARK  2 active torsions:
REMARK  status: ('A' for Active; 'I' for Inactive)
REMARK    1  A    between atoms: C_6  and  N_7 
REMARK    2  A    between atoms: N_7  and  C_8 
ROOT
HETATM    1  C   UNL     1      18.412  45.005  47.479  1.00  0.00     0.093 C 
HETATM    2  C   UNL     1      18.424  46.439  47.912  1.00  0.00     0.125 A 
HETATM    3  N   UNL     1      17.307  47.145  47.721  1.00  0.00    -0.226 NA
HETATM    4  C   UNL     1      17.406  48.408  48.160  1.00  0.00     0.114 A 
HETATM    5  C   UNL     1      18.517  48.994  48.768  1.00  0.00     0.053 A 
HETATM    6  C   UNL     1      19.652  48.166  48.919  1.00  0.00     0.143 A 
HETATM    7  N   UNL     1      19.559  46.887  48.479  1.00  0.00    -0.215 NA
HETATM    8  S   UNL     1      16.075  49.487  47.989  1.00  0.00    -0.073 SA
HETATM    9  C   UNL     1      16.951  50.712  48.709  1.00  0.00    -0.008 A 
HETATM   10  C   UNL     1      18.215  50.349  49.090  1.00  0.00    -0.028 A 
HETATM   11  C   UNL     1      18.919  51.498  49.717  1.00  0.00     0.041 C 
HETATM   12  C   UNL     1      17.762  52.517  49.960  1.00  0.00     0.010 C 
HETATM   13  C   UNL     1      16.602  52.121  48.998  1.00  0.00     0.047 C 
ENDROOT
BRANCH   6  14
HETATM   14  N   UNL     1      20.825  48.641  49.524  1.00  0.00    -0.340 N 
HETATM   15  H   UNL     1      20.764  48.691  50.529  1.00  0.00     0.167 HD
BRANCH  14  16
HETATM   16  C   UNL     1      22.029  49.147  49.001  1.00  0.00     0.036 A 
HETATM   17  C   UNL     1      23.236  48.565  49.431  1.00  0.00     0.069 A 
HETATM   18  C   UNL     1      24.427  49.034  48.913  1.00  0.00     0.107 A 
HETATM   19  C   UNL     1      24.465  50.047  47.987  1.00  0.00     0.105 A 
HETATM   20  O   UNL     1      25.668  48.578  49.234  1.00  0.00    -0.323 OA
HETATM   21  O   UNL     1      25.731  50.360  47.610  1.00  0.00    -0.323 OA
HETATM   22  C   UNL     1      23.313  50.638  47.527  1.00  0.00     0.042 A 
HETATM   23  C   UNL     1      26.490  49.425  48.404  1.00  0.00     0.352 A 
HETATM   24  C   UNL     1      22.091  50.176  48.037  1.00  0.00     0.032 A 
ENDBRANCH  14  16
ENDBRANCH   6  14
TORSDOF 2
ENDMDL
MODEL 7
REMARK VINA RESULT:      -8.3      1.914      3.714
REMARK  2 active torsions:
REMARK  status: ('A' for Active; 'I' for Inactive)
REMARK    1  A    between atoms: C_6  and  N_7 
REMARK    2  A    between atoms: N_7  and  C_8 
ROOT
HETATM    1  C   UNL     1      26.195  41.308  49.625  1.00  0.00     0.093 C 
HETATM    2  C   UNL     1      26.433  42.350  50.675  1.00  0.00     0.125 A 
HETATM    3  N   UNL     1      27.391  42.106  51.573  1.00  0.00    -0.226 NA
HETATM    4  C   UNL     1      27.545  43.103  52.456  1.00  0.00     0.114 A 
HETATM    5  C   UNL     1      26.830  44.300  52.493  1.00  0.00     0.053 A 
HETATM    6  C   UNL     1      25.834  44.461  51.504  1.00  0.00     0.143 A 
HETATM    7  N   UNL     1      25.672  43.458  50.607  1.00  0.00    -0.215 NA
HETATM    8  S   UNL     1      28.721  42.972  53.707  1.00  0.00    -0.073 SA
HETATM    9  C   UNL     1      28.293  44.476  54.292  1.00  0.00    -0.008 A 
HETATM   10  C   UNL     1      27.300  45.093  53.580  1.00  0.00    -0.028 A 
HETATM   11  C   UNL     1      26.985  46.420  54.171  1.00  0.00     0.041 C 
HETATM   12  C   UNL     1      28.178  46.651  55.150  1.00  0.00     0.010 C 
HETATM   13  C   UNL     1      28.794  45.252  55.448  1.00  0.00     0.047 C 
ENDROOT
BRANCH   6  14
HETATM   14  N   UNL     1      25.056  45.626  51.437  1.00  0.00    -0.340 N 
HETATM   15  H   UNL     1      24.283  45.629  52.085  1.00  0.00     0.167 HD
BRANCH  14  16
HETATM   16  C   UNL     1      25.087  46.744  50.583  1.00  0.00     0.036 A 
HETATM   17  C   UNL     1      26.315  47.406  50.399  1.00  0.00     0.069 A 
HETATM   18  C   UNL     1      26.370  48.493  49.550  1.00  0.00     0.107 A 
HETATM   19  C   UNL     1      25.261  48.940  48.875  1.00  0.00     0.105 A 
HETATM   20  O   UNL     1      27.477  49.234  49.277  1.00  0.00    -0.323 OA
HETATM   21  O   UNL     1      25.527  50.020  48.095  1.00  0.00    -0.323 OA
HETATM   22  C   UNL     1      24.042  48.320  49.011  1.00  0.00     0.042 A 
HETATM   23  C   UNL     1      26.934  50.202  48.354  1.00  0.00     0.352 A 
HETATM   24  C   UNL     1      23.963  47.212  49.868  1.00  0.00     0.032 A 
ENDBRANCH  14  16
ENDBRANCH   6  14
TORSDOF 2
ENDMDL
MODEL 8
REMARK VINA RESULT:      -7.9     12.229     14.173
REMARK  2 active torsions:
REMARK  status: ('A' for Active; 'I' for Inactive)
REMARK    1  A    between atoms: C_6  and  N_7 
REMARK    2  A    between atoms: N_7  and  C_8 
ROOT
HETATM    1  C   UNL     1      28.410  46.015  40.201  1.00  0.00     0.093 C 
HETATM    2  C   UNL     1      28.741  47.475  40.253  1.00  0.00     0.125 A 
HETATM    3  N   UNL     1      28.252  48.248  39.280  1.00  0.00    -0.226 NA
HETATM    4  C   UNL     1      28.581  49.540  39.425  1.00  0.00     0.114 A 
HETATM    5  C   UNL     1      29.340  50.096  40.454  1.00  0.00     0.053 A 
HETATM    6  C   UNL     1      29.818  49.194  41.432  1.00  0.00     0.143 A 
HETATM    7  N   UNL     1      29.489  47.886  41.294  1.00  0.00    -0.215 NA
HETATM    8  S   UNL     1      28.059  50.697  38.262  1.00  0.00    -0.073 SA
HETATM    9  C   UNL     1      28.824  51.917  39.106  1.00  0.00    -0.008 A 
HETATM   10  C   UNL     1      29.458  51.501  40.245  1.00  0.00    -0.028 A 
HETATM   11  C   UNL     1      30.110  52.649  40.927  1.00  0.00     0.041 C 
HETATM   12  C   UNL     1      29.485  53.879  40.199  1.00  0.00     0.010 C 
HETATM   13  C   UNL     1      28.942  53.368  38.832  1.00  0.00     0.047 C 
ENDROOT
BRANCH   6  14
HETATM   14  N   UNL     1      30.585  49.637  42.519  1.00  0.00    -0.340 N 
HETATM   15  H   UNL     1      30.076  49.648  43.389  1.00  0.00     0.167 HD
BRANCH  14  16
HETATM   16  C   UNL     1      31.890  50.154  42.617  1.00  0.00     0.036 A 
HETATM   17  C   UNL     1      32.854  49.703  41.696  1.00  0.00     0.069 A 
HETATM   18  C   UNL     1      34.135  50.213  41.763  1.00  0.00     0.107 A 
HETATM   19  C   UNL     1      34.491  51.153  42.698  1.00  0.00     0.105 A 
HETATM   20  O   UNL     1      35.171  49.872  40.950  1.00  0.00    -0.323 OA
HETATM   21  O   UNL     1      35.795  51.521  42.596  1.00  0.00    -0.323 OA
HETATM   22  C   UNL     1      33.583  51.635  43.610  1.00  0.00     0.042 A 
HETATM   23  C   UNL     1      36.221  50.705  41.485  1.00  0.00     0.352 A 
HETATM   24  C   UNL     1      32.274  51.132  43.559  1.00  0.00     0.032 A 
ENDBRANCH  14  16
ENDBRANCH   6  14
TORSDOF 2
ENDMDL
MODEL 9
REMARK VINA RESULT:      -7.6     12.151     14.267
REMARK  2 active torsions:
REMARK  status: ('A' for Active; 'I' for Inactive)
REMARK    1  A    between atoms: C_6  and  N_7 
REMARK    2  A    between atoms: N_7  and  C_8 
ROOT
HETATM    1  C   UNL     1      28.291  45.271  40.178  1.00  0.00     0.093 C 
HETATM    2  C   UNL     1      28.720  46.676  39.886  1.00  0.00     0.125 A 
HETATM    3  N   UNL     1      27.780  47.531  39.475  1.00  0.00    -0.226 NA
HETATM    4  C   UNL     1      28.253  48.766  39.262  1.00  0.00     0.114 A 
HETATM    5  C   UNL     1      29.570  49.195  39.436  1.00  0.00     0.053 A 
HETATM    6  C   UNL     1      30.491  48.214  39.867  1.00  0.00     0.143 A 
HETATM    7  N   UNL     1      30.020  46.962  40.086  1.00  0.00    -0.215 NA
HETATM    8  S   UNL     1      27.199  50.010  38.711  1.00  0.00    -0.073 SA
HETATM    9  C   UNL     1      28.462  51.102  38.702  1.00  0.00    -0.008 A 
HETATM   10  C   UNL     1      29.659  50.579  39.108  1.00  0.00    -0.028 A 
HETATM   11  C   UNL     1      30.722  51.617  39.066  1.00  0.00     0.041 C 
HETATM   12  C   UNL     1      29.905  52.936  38.894  1.00  0.00     0.010 C 
HETATM   13  C   UNL     1      28.512  52.533  38.324  1.00  0.00     0.047 C 
ENDROOT
BRANCH   6  14
HETATM   14  N   UNL     1      31.841  48.529  40.084  1.00  0.00    -0.340 N 
HETATM   15  H   UNL     1      32.476  47.953  39.553  1.00  0.00     0.167 HD
BRANCH  14  16
HETATM   16  C   UNL     1      32.482  49.422  40.962  1.00  0.00     0.036 A 
HETATM   17  C   UNL     1      31.812  49.785  42.146  1.00  0.00     0.069 A 
HETATM   18  C   UNL     1      32.433  50.645  43.029  1.00  0.00     0.107 A 
HETATM   19  C   UNL     1      33.686  51.150  42.788  1.00  0.00     0.105 A 
HETATM   20  O   UNL     1      31.912  51.090  44.205  1.00  0.00    -0.323 OA
HETATM   21  O   UNL     1      34.114  51.977  43.777  1.00  0.00    -0.323 OA
HETATM   22  C   UNL     1      34.386  50.815  41.653  1.00  0.00     0.042 A 
HETATM   23  C   UNL     1      32.984  51.935  44.673  1.00  0.00     0.352 A 
HETATM   24  C   UNL     1      33.775  49.941  40.742  1.00  0.00     0.032 A 
ENDBRANCH  14  16
ENDBRANCH   6  14
TORSDOF 2
ENDMDL
MODEL 10
REMARK VINA RESULT:      -7.6      3.044      5.070
REMARK  2 active torsions:
REMARK  status: ('A' for Active; 'I' for Inactive)
REMARK    1  A    between atoms: C_6  and  N_7 
REMARK    2  A    between atoms: N_7  and  C_8 
ROOT
HETATM    1  C   UNL     1      28.395  39.606  50.296  1.00  0.00     0.093 C 
HETATM    2  C   UNL     1      28.121  40.780  51.184  1.00  0.00     0.125 A 
HETATM    3  N   UNL     1      29.129  41.229  51.935  1.00  0.00    -0.226 NA
HETATM    4  C   UNL     1      28.795  42.294  52.677  1.00  0.00     0.114 A 
HETATM    5  C   UNL     1      27.553  42.929  52.710  1.00  0.00     0.053 A 
HETATM    6  C   UNL     1      26.549  42.375  51.884  1.00  0.00     0.143 A 
HETATM    7  N   UNL     1      26.879  41.298  51.130  1.00  0.00    -0.215 NA
HETATM    8  S   UNL     1      29.955  43.011  53.728  1.00  0.00    -0.073 SA
HETATM    9  C   UNL     1      28.834  44.145  54.221  1.00  0.00    -0.008 A 
HETATM   10  C   UNL     1      27.610  44.023  53.621  1.00  0.00    -0.028 A 
HETATM   11  C   UNL     1      26.679  45.069  54.120  1.00  0.00     0.041 C 
HETATM   12  C   UNL     1      27.636  46.051  54.866  1.00  0.00     0.010 C 
HETATM   13  C   UNL     1      28.932  45.253  55.198  1.00  0.00     0.047 C 
ENDROOT
BRANCH   6  14
HETATM   14  N   UNL     1      25.263  42.933  51.827  1.00  0.00    -0.340 N 
HETATM   15  H   UNL     1      24.634  42.558  52.521  1.00  0.00     0.167 HD
BRANCH  14  16
HETATM   16  C   UNL     1      24.656  43.839  50.938  1.00  0.00     0.036 A 
HETATM   17  C   UNL     1      23.435  43.468  50.343  1.00  0.00     0.069 A 
HETATM   18  C   UNL     1      22.815  44.352  49.483  1.00  0.00     0.107 A 
HETATM   19  C   UNL     1      23.351  45.583  49.199  1.00  0.00     0.105 A 
HETATM   20  O   UNL     1      21.641  44.135  48.830  1.00  0.00    -0.323 OA
HETATM   21  O   UNL     1      22.588  46.297  48.331  1.00  0.00    -0.323 OA
HETATM   22  C   UNL     1      24.534  45.996  49.765  1.00  0.00     0.042 A 
HETATM   23  C   UNL     1      21.505  45.373  48.101  1.00  0.00     0.352 A 
HETATM   24  C   UNL     1      25.182  45.115  50.644  1.00  0.00     0.032 A 
ENDBRANCH  14  16
ENDBRANCH   6  14
TORSDOF 2
ENDMDL
