MODEL 1
REMARK VINA RESULT:      -9.6      0.000      0.000
REMARK  4 active torsions:
REMARK  status: ('A' for Active; 'I' for Inactive)
REMARK    1  A    between atoms: C_6  and  N_7 
REMARK       I    between atoms: N_7  and  C_8 
REMARK    2  A    between atoms: C_8  and  C_9 
REMARK    3  A    between atoms: C_10  and  C_11 
REMARK    4  A    between atoms: C_13  and  O_14 
ROOT
HETATM    1  C   UNL     1      27.035  42.369  51.870  1.00  0.00     0.062 A 
HETATM    2  C   UNL     1      25.924  42.977  51.022  1.00  0.00     0.202 A 
HETATM    3  N   UNL     1      25.846  42.328  49.706  1.00  0.00    -0.084 N 
HETATM    4  C   UNL     1      26.670  41.311  49.301  1.00  0.00     0.725 A 
HETATM    5  N   UNL     1      27.636  40.874  50.128  1.00  0.00    -0.192 N 
HETATM    6  N   UNL     1      24.847  42.525  48.818  1.00  0.00    -0.149 NA
HETATM    7  C   UNL     1      25.208  41.677  47.848  1.00  0.00     0.275 A 
HETATM    8  N   UNL     1      26.310  40.905  48.111  1.00  0.00    -0.054 NA
HETATM    9  C   UNL     1      27.834  41.376  51.408  1.00  0.00     0.037 A 
HETATM   10  C   UNL     1      28.949  40.738  52.198  1.00  0.00     0.070 C 
HETATM   11  H   UNL     1      28.246  40.123  49.814  1.00  0.00     0.184 HD
ENDROOT
BRANCH   1  12
HETATM   12  C   UNL     1      27.296  42.974  53.201  1.00  0.00     0.256 C 
HETATM   13  N   UNL     1      28.568  43.492  53.316  1.00  0.00    -0.323 N 
HETATM   14  H   UNL     1      29.171  43.421  52.509  1.00  0.00     0.169 HD
HETATM   15  O   UNL     1      26.399  42.981  54.033  1.00  0.00    -0.267 OA
BRANCH  13  16
HETATM   16  C   UNL     1      29.122  44.165  54.434  1.00  0.00     0.041 A 
HETATM   17  C   UNL     1      28.578  45.410  54.820  1.00  0.00    -0.035 A 
HETATM   18  C   UNL     1      29.096  46.072  55.950  1.00  0.00     0.015 A 
HETATM   19  C   UNL     1      27.452  46.069  54.067  1.00  0.00     0.050 C 
HETATM   20  C   UNL     1      30.153  45.533  56.689  1.00  0.00    -0.061 A 
HETATM   21  C   UNL     1      30.672  46.225  57.914  1.00  0.00     0.048 C 
HETATM   22  C   UNL     1      30.685  44.305  56.298  1.00  0.00     0.009 A 
HETATM   23  C   UNL     1      30.179  43.634  55.181  1.00  0.00     0.030 A 
ENDBRANCH  13  16
ENDBRANCH   1  12
BRANCH   2  24
HETATM   24  C   UNL     1      25.987  44.494  50.861  1.00  0.00    -0.025 A 
HETATM   25  C   UNL     1      26.863  45.118  49.953  1.00  0.00     0.046 A 
HETATM   26  C   UNL     1      26.915  46.511  49.853  1.00  0.00     0.068 A 
HETATM   27  C   UNL     1      26.047  47.290  50.618  1.00  0.00     0.037 A 
HETATM   28  C   UNL     1      25.152  46.690  51.501  1.00  0.00     0.003 A 
HETATM   29  C   UNL     1      25.125  45.302  51.626  1.00  0.00     0.010 A 
BRANCH  26  30
HETATM   30  O   UNL     1      27.754  47.217  49.034  1.00  0.00    -0.356 OA
HETATM   31  C   UNL     1      27.601  48.634  49.059  1.00  0.00     0.210 C 
ENDBRANCH  26  30
ENDBRANCH   2  24
TORSDOF 4
ENDMDL
MODEL 2
REMARK VINA RESULT:      -9.3      1.764      2.618
REMARK  4 active torsions:
REMARK  status: ('A' for Active; 'I' for Inactive)
REMARK    1  A    between atoms: C_6  and  N_7 
REMARK       I    between atoms: N_7  and  C_8 
REMARK    2  A    between atoms: C_8  and  C_9 
REMARK    3  A    between atoms: C_10  and  C_11 
REMARK    4  A    between atoms: C_13  and  O_14 
ROOT
HETATM    1  C   UNL     1      25.248  43.214  50.824  1.00  0.00     0.062 A 
HETATM    2  C   UNL     1      24.434  44.172  49.963  1.00  0.00     0.202 A 
HETATM    3  N   UNL     1      24.154  43.590  48.643  1.00  0.00    -0.084 N 
HETATM    4  C   UNL     1      24.576  42.349  48.245  1.00  0.00     0.725 A 
HETATM    5  N   UNL     1      25.315  41.602  49.084  1.00  0.00    -0.192 N 
HETATM    6  N   UNL     1      23.301  44.124  47.740  1.00  0.00    -0.149 NA
HETATM    7  C   UNL     1      23.358  43.203  46.772  1.00  0.00     0.275 A 
HETATM    8  N   UNL     1      24.116  42.095  47.048  1.00  0.00    -0.054 NA
HETATM    9  C   UNL     1      25.656  42.004  50.370  1.00  0.00     0.037 A 
HETATM   10  C   UNL     1      26.465  41.016  51.173  1.00  0.00     0.070 C 
HETATM   11  H   UNL     1      25.628  40.685  48.776  1.00  0.00     0.184 HD
ENDROOT
BRANCH   1  12
HETATM   12  C   UNL     1      25.683  43.690  52.162  1.00  0.00     0.256 C 
HETATM   13  N   UNL     1      27.051  43.827  52.266  1.00  0.00    -0.323 N 
HETATM   14  H   UNL     1      27.600  43.609  51.447  1.00  0.00     0.169 HD
HETATM   15  O   UNL     1      24.834  43.929  53.010  1.00  0.00    -0.267 OA
BRANCH  13  16
HETATM   16  C   UNL     1      27.784  44.291  53.387  1.00  0.00     0.041 A 
HETATM   17  C   UNL     1      28.904  43.551  53.824  1.00  0.00    -0.035 A 
HETATM   18  C   UNL     1      29.661  44.019  54.916  1.00  0.00     0.015 A 
HETATM   19  C   UNL     1      29.332  42.266  53.165  1.00  0.00     0.050 C 
HETATM   20  C   UNL     1      29.315  45.193  55.591  1.00  0.00    -0.061 A 
HETATM   21  C   UNL     1      30.151  45.706  56.726  1.00  0.00     0.048 C 
HETATM   22  C   UNL     1      28.206  45.915  55.154  1.00  0.00     0.009 A 
HETATM   23  C   UNL     1      27.447  45.466  54.070  1.00  0.00     0.030 A 
ENDBRANCH  13  16
ENDBRANCH   1  12
BRANCH   2  24
HETATM   24  C   UNL     1      25.026  45.571  49.811  1.00  0.00    -0.025 A 
HETATM   25  C   UNL     1      24.232  46.732  49.858  1.00  0.00     0.046 A 
HETATM   26  C   UNL     1      24.802  47.996  49.685  1.00  0.00     0.068 A 
HETATM   27  C   UNL     1      26.183  48.112  49.525  1.00  0.00     0.037 A 
HETATM   28  C   UNL     1      26.990  46.977  49.505  1.00  0.00     0.003 A 
HETATM   29  C   UNL     1      26.416  45.715  49.642  1.00  0.00     0.010 A 
BRANCH  26  30
HETATM   30  O   UNL     1      24.119  49.181  49.674  1.00  0.00    -0.356 OA
HETATM   31  C   UNL     1      24.158  49.911  48.451  1.00  0.00     0.210 C 
ENDBRANCH  26  30
ENDBRANCH   2  24
TORSDOF 4
ENDMDL
MODEL 3
REMARK VINA RESULT:      -8.9      2.259      4.723
REMARK  4 active torsions:
REMARK  status: ('A' for Active; 'I' for Inactive)
REMARK    1  A    between atoms: C_6  and  N_7 
REMARK       I    between atoms: N_7  and  C_8 
REMARK    2  A    between atoms: C_8  and  C_9 
REMARK    3  A    between atoms: C_10  and  C_11 
REMARK    4  A    between atoms: C_13  and  O_14 
ROOT
HETATM    1  C   UNL     1      25.744  44.052  50.381  1.00  0.00     0.062 A 
HETATM    2  C   UNL     1      25.724  43.121  49.174  1.00  0.00     0.202 A 
HETATM    3  N   UNL     1      24.367  42.993  48.626  1.00  0.00    -0.084 N 
HETATM    4  C   UNL     1      23.267  43.627  49.141  1.00  0.00     0.725 A 
HETATM    5  N   UNL     1      23.402  44.404  50.230  1.00  0.00    -0.192 N 
HETATM    6  N   UNL     1      24.073  42.389  47.453  1.00  0.00    -0.149 NA
HETATM    7  C   UNL     1      22.752  42.598  47.393  1.00  0.00     0.275 A 
HETATM    8  N   UNL     1      22.224  43.364  48.399  1.00  0.00    -0.054 NA
HETATM    9  C   UNL     1      24.619  44.637  50.859  1.00  0.00     0.037 A 
HETATM   10  C   UNL     1      24.575  45.563  52.049  1.00  0.00     0.070 C 
HETATM   11  H   UNL     1      22.578  44.865  50.607  1.00  0.00     0.184 HD
ENDROOT
BRANCH   1  12
HETATM   12  C   UNL     1      27.032  44.222  51.099  1.00  0.00     0.256 C 
HETATM   13  N   UNL     1      26.980  43.792  52.408  1.00  0.00    -0.323 N 
HETATM   14  H   UNL     1      26.104  43.409  52.733  1.00  0.00     0.169 HD
HETATM   15  O   UNL     1      27.990  44.684  50.494  1.00  0.00    -0.267 OA
BRANCH  13  16
HETATM   16  C   UNL     1      28.038  43.782  53.351  1.00  0.00     0.041 A 
HETATM   17  C   UNL     1      28.940  42.695  53.353  1.00  0.00    -0.035 A 
HETATM   18  C   UNL     1      30.016  42.690  54.261  1.00  0.00     0.015 A 
HETATM   19  C   UNL     1      28.800  41.527  52.413  1.00  0.00     0.050 C 
HETATM   20  C   UNL     1      30.201  43.730  55.177  1.00  0.00    -0.061 A 
HETATM   21  C   UNL     1      31.373  43.735  56.113  1.00  0.00     0.048 C 
HETATM   22  C   UNL     1      29.304  44.796  55.169  1.00  0.00     0.009 A 
HETATM   23  C   UNL     1      28.233  44.818  54.271  1.00  0.00     0.030 A 
ENDBRANCH  13  16
ENDBRANCH   1  12
BRANCH   2  24
HETATM   24  C   UNL     1      26.334  41.742  49.408  1.00  0.00    -0.025 A 
HETATM   25  C   UNL     1      27.537  41.339  48.797  1.00  0.00     0.046 A 
HETATM   26  C   UNL     1      28.052  40.058  49.010  1.00  0.00     0.068 A 
HETATM   27  C   UNL     1      27.399  39.189  49.884  1.00  0.00     0.037 A 
HETATM   28  C   UNL     1      26.224  39.580  50.521  1.00  0.00     0.003 A 
HETATM   29  C   UNL     1      25.692  40.845  50.281  1.00  0.00     0.010 A 
BRANCH  26  30
HETATM   30  O   UNL     1      29.188  39.553  48.437  1.00  0.00    -0.356 OA
HETATM   31  C   UNL     1      29.616  38.282  48.918  1.00  0.00     0.210 C 
ENDBRANCH  26  30
ENDBRANCH   2  24
TORSDOF 4
ENDMDL
MODEL 4
REMARK VINA RESULT:      -8.8     16.087     17.932
REMARK  4 active torsions:
REMARK  status: ('A' for Active; 'I' for Inactive)
REMARK    1  A    between atoms: C_6  and  N_7 
REMARK       I    between atoms: N_7  and  C_8 
REMARK    2  A    between atoms: C_8  and  C_9 
REMARK    3  A    between atoms: C_10  and  C_11 
REMARK    4  A    between atoms: C_13  and  O_14 
ROOT
HETATM    1  C   UNL     1      37.716  43.651  64.319  1.00  0.00     0.062 A 
HETATM    2  C   UNL     1      39.037  43.056  63.845  1.00  0.00     0.202 A 
HETATM    3  N   UNL     1      39.088  41.610  64.099  1.00  0.00    -0.084 N 
HETATM    4  C   UNL     1      38.078  40.898  64.690  1.00  0.00     0.725 A 
HETATM    5  N   UNL     1      36.967  41.537  65.095  1.00  0.00    -0.192 N 
HETATM    6  N   UNL     1      40.047  40.786  63.622  1.00  0.00    -0.149 NA
HETATM    7  C   UNL     1      39.605  39.606  64.072  1.00  0.00     0.275 A 
HETATM    8  N   UNL     1      38.397  39.629  64.718  1.00  0.00    -0.054 NA
HETATM    9  C   UNL     1      36.760  42.899  64.916  1.00  0.00     0.037 A 
HETATM   10  C   UNL     1      35.436  43.431  65.409  1.00  0.00     0.070 C 
HETATM   11  H   UNL     1      36.226  40.999  65.537  1.00  0.00     0.184 HD
ENDROOT
BRANCH   1  12
HETATM   12  C   UNL     1      37.542  45.121  64.206  1.00  0.00     0.256 C 
HETATM   13  N   UNL     1      37.983  45.803  65.321  1.00  0.00    -0.323 N 
HETATM   14  H   UNL     1      38.375  45.254  66.072  1.00  0.00     0.169 HD
HETATM   15  O   UNL     1      37.068  45.583  63.177  1.00  0.00    -0.267 OA
BRANCH  13  16
HETATM   16  C   UNL     1      37.992  47.206  65.520  1.00  0.00     0.041 A 
HETATM   17  C   UNL     1      36.949  47.797  66.265  1.00  0.00    -0.035 A 
HETATM   18  C   UNL     1      36.965  49.186  66.500  1.00  0.00     0.015 A 
HETATM   19  C   UNL     1      35.804  46.997  66.830  1.00  0.00     0.050 C 
HETATM   20  C   UNL     1      37.983  49.998  65.992  1.00  0.00    -0.061 A 
HETATM   21  C   UNL     1      38.014  51.470  66.280  1.00  0.00     0.048 C 
HETATM   22  C   UNL     1      39.007  49.406  65.254  1.00  0.00     0.009 A 
HETATM   23  C   UNL     1      39.007  48.028  65.017  1.00  0.00     0.030 A 
ENDBRANCH  13  16
ENDBRANCH   1  12
BRANCH   2  24
HETATM   24  C   UNL     1      40.289  43.736  64.392  1.00  0.00    -0.025 A 
HETATM   25  C   UNL     1      41.130  44.524  63.585  1.00  0.00     0.046 A 
HETATM   26  C   UNL     1      42.285  45.107  64.112  1.00  0.00     0.068 A 
HETATM   27  C   UNL     1      42.576  44.957  65.468  1.00  0.00     0.037 A 
HETATM   28  C   UNL     1      41.740  44.205  66.290  1.00  0.00     0.003 A 
HETATM   29  C   UNL     1      40.607  43.594  65.756  1.00  0.00     0.010 A 
BRANCH  26  30
HETATM   30  O   UNL     1      43.189  45.856  63.408  1.00  0.00    -0.356 OA
HETATM   31  C   UNL     1      44.355  46.258  64.122  1.00  0.00     0.210 C 
ENDBRANCH  26  30
ENDBRANCH   2  24
TORSDOF 4
ENDMDL
MODEL 5
REMARK VINA RESULT:      -8.7      6.058      9.627
REMARK  4 active torsions:
REMARK  status: ('A' for Active; 'I' for Inactive)
REMARK    1  A    between atoms: C_6  and  N_7 
REMARK       I    between atoms: N_7  and  C_8 
REMARK    2  A    between atoms: C_8  and  C_9 
REMARK    3  A    between atoms: C_10  and  C_11 
REMARK    4  A    between atoms: C_13  and  O_14 
ROOT
HETATM    1  C   UNL     1      23.257  48.087  49.037  1.00  0.00     0.062 A 
HETATM    2  C   UNL     1      22.966  46.650  49.452  1.00  0.00     0.202 A 
HETATM    3  N   UNL     1      24.202  45.945  49.822  1.00  0.00    -0.084 N 
HETATM    4  C   UNL     1      25.448  46.512  49.790  1.00  0.00     0.725 A 
HETATM    5  N   UNL     1      25.586  47.784  49.377  1.00  0.00    -0.192 N 
HETATM    6  N   UNL     1      24.238  44.726  50.405  1.00  0.00    -0.149 NA
HETATM    7  C   UNL     1      25.556  44.578  50.584  1.00  0.00     0.275 A 
HETATM    8  N   UNL     1      26.329  45.653  50.234  1.00  0.00    -0.054 NA
HETATM    9  C   UNL     1      24.516  48.588  49.006  1.00  0.00     0.037 A 
HETATM   10  C   UNL     1      24.866  49.999  48.601  1.00  0.00     0.070 C 
HETATM   11  H   UNL     1      26.517  48.192  49.352  1.00  0.00     0.184 HD
ENDROOT
BRANCH   1  12
HETATM   12  C   UNL     1      22.119  48.910  48.556  1.00  0.00     0.256 C 
HETATM   13  N   UNL     1      21.375  49.453  49.582  1.00  0.00    -0.323 N 
HETATM   14  H   UNL     1      21.675  49.254  50.525  1.00  0.00     0.169 HD
HETATM   15  O   UNL     1      21.957  49.048  47.351  1.00  0.00    -0.267 OA
BRANCH  13  16
HETATM   16  C   UNL     1      20.252  50.310  49.466  1.00  0.00     0.041 A 
HETATM   17  C   UNL     1      19.024  49.906  50.035  1.00  0.00    -0.035 A 
HETATM   18  C   UNL     1      17.909  50.763  49.957  1.00  0.00     0.015 A 
HETATM   19  C   UNL     1      18.852  48.581  50.730  1.00  0.00     0.050 C 
HETATM   20  C   UNL     1      17.986  52.000  49.311  1.00  0.00    -0.061 A 
HETATM   21  C   UNL     1      16.804  52.924  49.268  1.00  0.00     0.048 C 
HETATM   22  C   UNL     1      19.201  52.389  48.750  1.00  0.00     0.009 A 
HETATM   23  C   UNL     1      20.318  51.551  48.822  1.00  0.00     0.030 A 
ENDBRANCH  13  16
ENDBRANCH   1  12
BRANCH   2  24
HETATM   24  C   UNL     1      22.170  45.831  48.441  1.00  0.00    -0.025 A 
HETATM   25  C   UNL     1      20.799  45.558  48.607  1.00  0.00     0.046 A 
HETATM   26  C   UNL     1      20.107  44.779  47.677  1.00  0.00     0.068 A 
HETATM   27  C   UNL     1      20.768  44.316  46.538  1.00  0.00     0.037 A 
HETATM   28  C   UNL     1      22.117  44.600  46.341  1.00  0.00     0.003 A 
HETATM   29  C   UNL     1      22.815  45.348  47.287  1.00  0.00     0.010 A 
BRANCH  26  30
HETATM   30  O   UNL     1      18.789  44.422  47.762  1.00  0.00    -0.356 OA
HETATM   31  C   UNL     1      17.852  45.496  47.773  1.00  0.00     0.210 C 
ENDBRANCH  26  30
ENDBRANCH   2  24
TORSDOF 4
ENDMDL
MODEL 6
REMARK VINA RESULT:      -8.3      5.216      8.891
REMARK  4 active torsions:
REMARK  status: ('A' for Active; 'I' for Inactive)
REMARK    1  A    between atoms: C_6  and  N_7 
REMARK       I    between atoms: N_7  and  C_8 
REMARK    2  A    between atoms: C_8  and  C_9 
REMARK    3  A    between atoms: C_10  and  C_11 
REMARK    4  A    between atoms: C_13  and  O_14 
ROOT
HETATM    1  C   UNL     1      23.654  46.699  49.254  1.00  0.00     0.062 A 
HETATM    2  C   UNL     1      23.169  45.268  49.448  1.00  0.00     0.202 A 
HETATM    3  N   UNL     1      24.238  44.413  49.983  1.00  0.00    -0.084 N 
HETATM    4  C   UNL     1      25.505  44.853  50.262  1.00  0.00     0.725 A 
HETATM    5  N   UNL     1      25.828  46.136  50.023  1.00  0.00    -0.192 N 
HETATM    6  N   UNL     1      24.054  43.151  50.430  1.00  0.00    -0.149 NA
HETATM    7  C   UNL     1      25.288  42.857  50.854  1.00  0.00     0.275 A 
HETATM    8  N   UNL     1      26.202  43.876  50.782  1.00  0.00    -0.054 NA
HETATM    9  C   UNL     1      24.927  47.073  49.530  1.00  0.00     0.037 A 
HETATM   10  C   UNL     1      25.466  48.471  49.356  1.00  0.00     0.070 C 
HETATM   11  H   UNL     1      26.772  46.450  50.229  1.00  0.00     0.184 HD
ENDROOT
BRANCH   1  12
HETATM   12  C   UNL     1      22.711  47.670  48.643  1.00  0.00     0.256 C 
HETATM   13  N   UNL     1      22.010  48.402  49.578  1.00  0.00    -0.323 N 
HETATM   14  H   UNL     1      22.208  48.218  50.550  1.00  0.00     0.169 HD
HETATM   15  O   UNL     1      22.655  47.751  47.423  1.00  0.00    -0.267 OA
BRANCH  13  16
HETATM   16  C   UNL     1      21.064  49.428  49.330  1.00  0.00     0.041 A 
HETATM   17  C   UNL     1      21.529  50.703  48.937  1.00  0.00    -0.035 A 
HETATM   18  C   UNL     1      20.598  51.722  48.654  1.00  0.00     0.015 A 
HETATM   19  C   UNL     1      22.994  51.025  48.805  1.00  0.00     0.050 C 
HETATM   20  C   UNL     1      19.222  51.505  48.773  1.00  0.00    -0.061 A 
HETATM   21  C   UNL     1      18.238  52.583  48.431  1.00  0.00     0.048 C 
HETATM   22  C   UNL     1      18.774  50.244  49.164  1.00  0.00     0.009 A 
HETATM   23  C   UNL     1      19.685  49.221  49.444  1.00  0.00     0.030 A 
ENDBRANCH  13  16
ENDBRANCH   1  12
BRANCH   2  24
HETATM   24  C   UNL     1      22.540  44.622  48.217  1.00  0.00    -0.025 A 
HETATM   25  C   UNL     1      21.146  44.512  48.055  1.00  0.00     0.046 A 
HETATM   26  C   UNL     1      20.604  43.889  46.928  1.00  0.00     0.068 A 
HETATM   27  C   UNL     1      21.453  43.424  45.923  1.00  0.00     0.037 A 
HETATM   28  C   UNL     1      22.834  43.550  46.051  1.00  0.00     0.003 A 
HETATM   29  C   UNL     1      23.375  44.141  47.192  1.00  0.00     0.010 A 
BRANCH  26  30
HETATM   30  O   UNL     1      19.271  43.694  46.691  1.00  0.00    -0.356 OA
HETATM   31  C   UNL     1      18.867  43.740  45.325  1.00  0.00     0.210 C 
ENDBRANCH  26  30
ENDBRANCH   2  24
TORSDOF 4
ENDMDL
MODEL 7
REMARK VINA RESULT:      -8.1      5.815      9.198
REMARK  4 active torsions:
REMARK  status: ('A' for Active; 'I' for Inactive)
REMARK    1  A    between atoms: C_6  and  N_7 
REMARK       I    between atoms: N_7  and  C_8 
REMARK    2  A    between atoms: C_8  and  C_9 
REMARK    3  A    between atoms: C_10  and  C_11 
REMARK    4  A    between atoms: C_13  and  O_14 
ROOT
HETATM    1  C   UNL     1      22.602  46.535  48.829  1.00  0.00     0.062 A 
HETATM    2  C   UNL     1      21.917  45.239  48.414  1.00  0.00     0.202 A 
HETATM    3  N   UNL     1      22.778  44.077  48.678  1.00  0.00    -0.084 N 
HETATM    4  C   UNL     1      24.032  44.159  49.223  1.00  0.00     0.725 A 
HETATM    5  N   UNL     1      24.546  45.364  49.524  1.00  0.00    -0.192 N 
HETATM    6  N   UNL     1      22.371  42.791  48.588  1.00  0.00    -0.149 NA
HETATM    7  C   UNL     1      23.480  42.154  48.981  1.00  0.00     0.275 A 
HETATM    8  N   UNL     1      24.514  42.954  49.391  1.00  0.00    -0.054 NA
HETATM    9  C   UNL     1      23.855  46.556  49.346  1.00  0.00     0.037 A 
HETATM   10  C   UNL     1      24.585  47.806  49.771  1.00  0.00     0.070 C 
HETATM   11  H   UNL     1      25.480  45.412  49.922  1.00  0.00     0.184 HD
ENDROOT
BRANCH   1  12
HETATM   12  C   UNL     1      21.892  47.810  48.551  1.00  0.00     0.256 C 
HETATM   13  N   UNL     1      20.903  48.088  49.470  1.00  0.00    -0.323 N 
HETATM   14  H   UNL     1      20.772  47.426  50.221  1.00  0.00     0.169 HD
HETATM   15  O   UNL     1      22.241  48.483  47.590  1.00  0.00    -0.267 OA
BRANCH  13  16
HETATM   16  C   UNL     1      20.069  49.233  49.513  1.00  0.00     0.041 A 
HETATM   17  C   UNL     1      18.687  49.080  49.269  1.00  0.00    -0.035 A 
HETATM   18  C   UNL     1      17.842  50.204  49.343  1.00  0.00     0.015 A 
HETATM   19  C   UNL     1      18.068  47.749  48.931  1.00  0.00     0.050 C 
HETATM   20  C   UNL     1      18.346  51.476  49.632  1.00  0.00    -0.061 A 
HETATM   21  C   UNL     1      17.433  52.660  49.748  1.00  0.00     0.048 C 
HETATM   22  C   UNL     1      19.712  51.617  49.868  1.00  0.00     0.009 A 
HETATM   23  C   UNL     1      20.563  50.510  49.803  1.00  0.00     0.030 A 
ENDBRANCH  13  16
ENDBRANCH   1  12
BRANCH   2  24
HETATM   24  C   UNL     1      21.408  45.205  46.976  1.00  0.00    -0.025 A 
HETATM   25  C   UNL     1      22.267  45.354  45.871  1.00  0.00     0.046 A 
HETATM   26  C   UNL     1      21.763  45.348  44.568  1.00  0.00     0.068 A 
HETATM   27  C   UNL     1      20.401  45.132  44.357  1.00  0.00     0.037 A 
HETATM   28  C   UNL     1      19.539  44.953  45.436  1.00  0.00     0.003 A 
HETATM   29  C   UNL     1      20.038  44.994  46.737  1.00  0.00     0.010 A 
BRANCH  26  30
HETATM   30  O   UNL     1      22.502  45.523  43.429  1.00  0.00    -0.356 OA
HETATM   31  C   UNL     1      23.740  44.820  43.376  1.00  0.00     0.210 C 
ENDBRANCH  26  30
ENDBRANCH   2  24
TORSDOF 4
ENDMDL
MODEL 8
REMARK VINA RESULT:      -8.0      5.988      9.514
REMARK  4 active torsions:
REMARK  status: ('A' for Active; 'I' for Inactive)
REMARK    1  A    between atoms: C_6  and  N_7 
REMARK       I    between atoms: N_7  and  C_8 
REMARK    2  A    between atoms: C_8  and  C_9 
REMARK    3  A    between atoms: C_10  and  C_11 
REMARK    4  A    between atoms: C_13  and  O_14 
ROOT
HETATM    1  C   UNL     1      20.279  47.271  47.686  1.00  0.00     0.062 A 
HETATM    2  C   UNL     1      20.734  48.139  48.852  1.00  0.00     0.202 A 
HETATM    3  N   UNL     1      19.739  49.176  49.161  1.00  0.00    -0.084 N 
HETATM    4  C   UNL     1      18.561  49.337  48.481  1.00  0.00     0.725 A 
HETATM    5  N   UNL     1      18.279  48.526  47.446  1.00  0.00    -0.192 N 
HETATM    6  N   UNL     1      19.779  49.969  50.255  1.00  0.00    -0.149 NA
HETATM    7  C   UNL     1      18.647  50.665  50.096  1.00  0.00     0.275 A 
HETATM    8  N   UNL     1      17.867  50.299  49.031  1.00  0.00    -0.054 NA
HETATM    9  C   UNL     1      19.110  47.490  47.036  1.00  0.00     0.037 A 
HETATM   10  C   UNL     1      18.608  46.668  45.875  1.00  0.00     0.070 C 
HETATM   11  H   UNL     1      17.404  48.658  46.945  1.00  0.00     0.184 HD
ENDROOT
BRANCH   1  12
HETATM   12  C   UNL     1      21.215  46.226  47.198  1.00  0.00     0.256 C 
HETATM   13  N   UNL     1      21.114  45.043  47.899  1.00  0.00    -0.323 N 
HETATM   14  H   UNL     1      20.430  45.004  48.641  1.00  0.00     0.169 HD
HETATM   15  O   UNL     1      21.944  46.482  46.249  1.00  0.00    -0.267 OA
BRANCH  13  16
HETATM   16  C   UNL     1      21.834  43.845  47.667  1.00  0.00     0.041 A 
HETATM   17  C   UNL     1      22.849  43.472  48.575  1.00  0.00    -0.035 A 
HETATM   18  C   UNL     1      23.548  42.265  48.374  1.00  0.00     0.015 A 
HETATM   19  C   UNL     1      23.221  44.317  49.764  1.00  0.00     0.050 C 
HETATM   20  C   UNL     1      23.273  41.437  47.282  1.00  0.00    -0.061 A 
HETATM   21  C   UNL     1      23.994  40.135  47.099  1.00  0.00     0.048 C 
HETATM   22  C   UNL     1      22.271  41.815  46.391  1.00  0.00     0.009 A 
HETATM   23  C   UNL     1      21.565  43.007  46.578  1.00  0.00     0.030 A 
ENDBRANCH  13  16
ENDBRANCH   1  12
BRANCH   2  24
HETATM   24  C   UNL     1      22.118  48.762  48.697  1.00  0.00    -0.025 A 
HETATM   25  C   UNL     1      23.257  48.234  49.335  1.00  0.00     0.046 A 
HETATM   26  C   UNL     1      24.504  48.847  49.195  1.00  0.00     0.068 A 
HETATM   27  C   UNL     1      24.635  49.961  48.366  1.00  0.00     0.037 A 
HETATM   28  C   UNL     1      23.526  50.482  47.703  1.00  0.00     0.003 A 
HETATM   29  C   UNL     1      22.276  49.890  47.871  1.00  0.00     0.010 A 
BRANCH  26  30
HETATM   30  O   UNL     1      25.662  48.440  49.800  1.00  0.00    -0.356 OA
HETATM   31  C   UNL     1      26.870  48.775  49.123  1.00  0.00     0.210 C 
ENDBRANCH  26  30
ENDBRANCH   2  24
TORSDOF 4
ENDMDL
MODEL 9
REMARK VINA RESULT:      -8.0     12.126     16.027
REMARK  4 active torsions:
REMARK  status: ('A' for Active; 'I' for Inactive)
REMARK    1  A    between atoms: C_6  and  N_7 
REMARK       I    between atoms: N_7  and  C_8 
REMARK    2  A    between atoms: C_8  and  C_9 
REMARK    3  A    between atoms: C_10  and  C_11 
REMARK    4  A    between atoms: C_13  and  O_14 
ROOT
HETATM    1  C   UNL     1      15.103  52.848  46.783  1.00  0.00     0.062 A 
HETATM    2  C   UNL     1      15.372  52.216  48.144  1.00  0.00     0.202 A 
HETATM    3  N   UNL     1      14.909  53.087  49.233  1.00  0.00    -0.084 N 
HETATM    4  C   UNL     1      14.319  54.308  49.043  1.00  0.00     0.725 A 
HETATM    5  N   UNL     1      14.159  54.777  47.793  1.00  0.00    -0.192 N 
HETATM    6  N   UNL     1      14.844  52.714  50.531  1.00  0.00    -0.149 NA
HETATM    7  C   UNL     1      14.313  53.814  51.077  1.00  0.00     0.275 A 
HETATM    8  N   UNL     1      13.964  54.806  50.199  1.00  0.00    -0.054 NA
HETATM    9  C   UNL     1      14.532  54.071  46.656  1.00  0.00     0.037 A 
HETATM   10  C   UNL     1      14.244  54.749  45.339  1.00  0.00     0.070 C 
HETATM   11  H   UNL     1      13.724  55.687  47.664  1.00  0.00     0.184 HD
ENDROOT
BRANCH   1  12
HETATM   12  C   UNL     1      15.588  52.126  45.580  1.00  0.00     0.256 C 
HETATM   13  N   UNL     1      16.657  52.750  44.972  1.00  0.00    -0.323 N 
HETATM   14  H   UNL     1      16.998  53.599  45.397  1.00  0.00     0.169 HD
HETATM   15  O   UNL     1      15.040  51.080  45.257  1.00  0.00    -0.267 OA
BRANCH  13  16
HETATM   16  C   UNL     1      17.373  52.306  43.832  1.00  0.00     0.041 A 
HETATM   17  C   UNL     1      18.250  51.208  43.962  1.00  0.00    -0.035 A 
HETATM   18  C   UNL     1      18.942  50.736  42.829  1.00  0.00     0.015 A 
HETATM   19  C   UNL     1      18.483  50.509  45.275  1.00  0.00     0.050 C 
HETATM   20  C   UNL     1      18.793  51.345  41.579  1.00  0.00    -0.061 A 
HETATM   21  C   UNL     1      19.502  50.811  40.370  1.00  0.00     0.048 C 
HETATM   22  C   UNL     1      17.927  52.430  41.462  1.00  0.00     0.009 A 
HETATM   23  C   UNL     1      17.231  52.908  42.576  1.00  0.00     0.030 A 
ENDBRANCH  13  16
ENDBRANCH   1  12
BRANCH   2  24
HETATM   24  C   UNL     1      16.816  51.786  48.386  1.00  0.00    -0.025 A 
HETATM   25  C   UNL     1      17.162  50.456  48.694  1.00  0.00     0.046 A 
HETATM   26  C   UNL     1      18.492  50.102  48.939  1.00  0.00     0.068 A 
HETATM   27  C   UNL     1      19.495  51.065  48.817  1.00  0.00     0.037 A 
HETATM   28  C   UNL     1      19.175  52.379  48.484  1.00  0.00     0.003 A 
HETATM   29  C   UNL     1      17.845  52.739  48.275  1.00  0.00     0.010 A 
BRANCH  26  30
HETATM   30  O   UNL     1      18.931  48.853  49.284  1.00  0.00    -0.356 OA
HETATM   31  C   UNL     1      18.711  48.467  50.637  1.00  0.00     0.210 C 
ENDBRANCH  26  30
ENDBRANCH   2  24
TORSDOF 4
ENDMDL
MODEL 10
REMARK VINA RESULT:      -7.9     16.227     18.196
REMARK  4 active torsions:
REMARK  status: ('A' for Active; 'I' for Inactive)
REMARK    1  A    between atoms: C_6  and  N_7 
REMARK       I    between atoms: N_7  and  C_8 
REMARK    2  A    between atoms: C_8  and  C_9 
REMARK    3  A    between atoms: C_10  and  C_11 
REMARK    4  A    between atoms: C_13  and  O_14 
ROOT
HETATM    1  C   UNL     1      37.580  44.284  64.491  1.00  0.00     0.062 A 
HETATM    2  C   UNL     1      38.847  43.663  63.915  1.00  0.00     0.202 A 
HETATM    3  N   UNL     1      38.855  42.205  64.102  1.00  0.00    -0.084 N 
HETATM    4  C   UNL     1      37.852  41.505  64.719  1.00  0.00     0.725 A 
HETATM    5  N   UNL     1      36.792  42.166  65.216  1.00  0.00    -0.192 N 
HETATM    6  N   UNL     1      39.751  41.368  63.534  1.00  0.00    -0.149 NA
HETATM    7  C   UNL     1      39.289  40.186  63.957  1.00  0.00     0.275 A 
HETATM    8  N   UNL     1      38.121  40.225  64.673  1.00  0.00    -0.054 NA
HETATM    9  C   UNL     1      36.630  43.542  65.110  1.00  0.00     0.037 A 
HETATM   10  C   UNL     1      35.359  44.099  65.702  1.00  0.00     0.070 C 
HETATM   11  H   UNL     1      36.057  41.636  65.677  1.00  0.00     0.184 HD
ENDROOT
BRANCH   1  12
HETATM   12  C   UNL     1      37.459  45.763  64.453  1.00  0.00     0.256 C 
HETATM   13  N   UNL     1      37.894  46.369  65.613  1.00  0.00    -0.323 N 
HETATM   14  H   UNL     1      38.249  45.768  66.342  1.00  0.00     0.169 HD
HETATM   15  O   UNL     1      37.027  46.295  63.440  1.00  0.00    -0.267 OA
BRANCH  13  16
HETATM   16  C   UNL     1      37.946  47.759  65.887  1.00  0.00     0.041 A 
HETATM   17  C   UNL     1      38.990  48.526  65.325  1.00  0.00    -0.035 A 
HETATM   18  C   UNL     1      39.034  49.914  65.561  1.00  0.00     0.015 A 
HETATM   19  C   UNL     1      40.072  47.919  64.472  1.00  0.00     0.050 C 
HETATM   20  C   UNL     1      38.076  50.548  66.358  1.00  0.00    -0.061 A 
HETATM   21  C   UNL     1      38.107  52.032  66.571  1.00  0.00     0.048 C 
HETATM   22  C   UNL     1      37.052  49.781  66.910  1.00  0.00     0.009 A 
HETATM   23  C   UNL     1      36.992  48.403  66.682  1.00  0.00     0.030 A 
ENDBRANCH  13  16
ENDBRANCH   1  12
BRANCH   2  24
HETATM   24  C   UNL     1      40.154  44.269  64.417  1.00  0.00    -0.025 A 
HETATM   25  C   UNL     1      40.443  44.401  65.789  1.00  0.00     0.046 A 
HETATM   26  C   UNL     1      41.637  44.987  66.215  1.00  0.00     0.068 A 
HETATM   27  C   UNL     1      42.581  45.392  65.270  1.00  0.00     0.037 A 
HETATM   28  C   UNL     1      42.327  45.243  63.909  1.00  0.00     0.003 A 
HETATM   29  C   UNL     1      41.120  44.690  63.485  1.00  0.00     0.010 A 
BRANCH  26  30
HETATM   30  O   UNL     1      41.998  45.199  67.518  1.00  0.00    -0.356 OA
HETATM   31  C   UNL     1      41.064  44.766  68.501  1.00  0.00     0.210 C 
ENDBRANCH  26  30
ENDBRANCH   2  24
TORSDOF 4
ENDMDL
