MODEL 1
REMARK VINA RESULT:      -9.3      0.000      0.000
REMARK  6 active torsions:
REMARK  status: ('A' for Active; 'I' for Inactive)
REMARK    1  A    between atoms: C_2  and  C_3 
REMARK    2  A    between atoms: C_7  and  N_8 
REMARK    3  A    between atoms: N_8  and  C_9 
REMARK    4  A    between atoms: C_12  and  N_13 
REMARK       I    between atoms: N_13  and  C_14 
REMARK       I    between atoms: C_14  and  N_15 
REMARK    5  A    between atoms: N_15  and  C_16 
REMARK    6  A    between atoms: N_24  and  C_25 
ROOT
HETATM    1  C   UNL     1      27.070  40.627  50.054  1.00  0.00     0.130 A 
HETATM    2  N   UNL     1      27.723  41.347  50.981  1.00  0.00    -0.213 NA
HETATM    3  C   UNL     1      27.472  42.669  50.896  1.00  0.00     0.169 A 
HETATM    4  C   UNL     1      26.629  43.264  49.969  1.00  0.00     0.078 A 
HETATM    5  C   UNL     1      25.941  42.425  49.075  1.00  0.00     0.121 A 
HETATM    6  N   UNL     1      26.198  41.100  49.141  1.00  0.00    -0.221 NA
HETATM    7  N   UNL     1      27.965  43.696  51.698  1.00  0.00    -0.214 N 
HETATM    8  N   UNL     1      27.525  44.916  51.265  1.00  0.00    -0.170 NA
HETATM    9  C   UNL     1      26.726  44.651  50.229  1.00  0.00     0.069 A 
HETATM   10  C   UNL     1      26.073  45.773  49.509  1.00  0.00     0.073 C 
ENDROOT
BRANCH   5  11
HETATM   11  N   UNL     1      25.019  42.924  48.151  1.00  0.00    -0.272 NA
HETATM   12  H   UNL     1      25.134  43.924  48.045  1.00  0.00     0.129 HD
BRANCH  11  13
HETATM   13  C   UNL     1      23.616  42.514  48.311  1.00  0.00     0.062 C 
HETATM   14  C   UNL     1      23.103  43.045  49.657  1.00  0.00     0.022 C 
HETATM   15  C   UNL     1      23.015  44.570  49.707  1.00  0.00     0.027 C 
HETATM   16  C   UNL     1      22.349  45.233  48.494  1.00  0.00     0.086 C 
HETATM   17  C   UNL     1      22.673  44.579  47.145  1.00  0.00     0.027 C 
HETATM   18  C   UNL     1      22.757  43.054  47.164  1.00  0.00     0.022 C 
BRANCH  16  19
HETATM   19  N   UNL     1      20.927  45.510  48.689  1.00  0.00    -0.339 N 
HETATM   20  C   UNL     1      20.347  46.745  48.807  1.00  0.00     0.317 C 
HETATM   21  N   UNL     1      18.980  46.615  48.892  1.00  0.00    -0.335 N 
HETATM   22  O   UNL     1      20.947  47.807  48.809  1.00  0.00    -0.247 OA
HETATM   23  H   UNL     1      18.643  45.787  48.424  1.00  0.00     0.165 HD
HETATM   24  H   UNL     1      20.399  44.775  49.136  1.00  0.00     0.164 HD
BRANCH  21  25
HETATM   25  C   UNL     1      18.044  47.752  48.911  1.00  0.00     0.023 C 
HETATM   26  C   UNL     1      18.208  48.613  47.648  1.00  0.00     0.037 C 
HETATM   27  C   UNL     1      16.614  47.179  48.933  1.00  0.00     0.037 C 
HETATM   28  C   UNL     1      18.232  48.616  50.169  1.00  0.00     0.037 C 
ENDBRANCH  21  25
ENDBRANCH  16  19
ENDBRANCH  11  13
ENDBRANCH   5  11
BRANCH   1  29
HETATM   29  C   UNL     1      27.301  39.139  50.063  1.00  0.00     0.076 C 
HETATM   30  C   UNL     1      28.780  38.810  49.944  1.00  0.00     0.013 C 
ENDBRANCH   1  29
BRANCH   7  31
HETATM   31  C   UNL     1      28.801  43.628  52.857  1.00  0.00     0.060 A 
HETATM   32  C   UNL     1      29.906  42.774  52.930  1.00  0.00     0.032 A 
HETATM   33  C   UNL     1      30.682  42.718  54.096  1.00  0.00     0.009 A 
HETATM   34  C   UNL     1      30.373  43.518  55.200  1.00  0.00    -0.062 A 
HETATM   35  C   UNL     1      31.177  43.432  56.463  1.00  0.00     0.048 C 
HETATM   36  C   UNL     1      29.267  44.369  55.131  1.00  0.00     0.009 A 
HETATM   37  C   UNL     1      28.490  44.428  53.970  1.00  0.00     0.032 A 
ENDBRANCH   7  31
TORSDOF 6
ENDMDL
MODEL 2
REMARK VINA RESULT:      -9.0      4.299      7.548
REMARK  6 active torsions:
REMARK  status: ('A' for Active; 'I' for Inactive)
REMARK    1  A    between atoms: C_2  and  C_3 
REMARK    2  A    between atoms: C_7  and  N_8 
REMARK    3  A    between atoms: N_8  and  C_9 
REMARK    4  A    between atoms: C_12  and  N_13 
REMARK       I    between atoms: N_13  and  C_14 
REMARK       I    between atoms: C_14  and  N_15 
REMARK    5  A    between atoms: N_15  and  C_16 
REMARK    6  A    between atoms: N_24  and  C_25 
ROOT
HETATM    1  C   UNL     1      21.055  46.157  48.378  1.00  0.00     0.130 A 
HETATM    2  N   UNL     1      22.280  45.961  48.894  1.00  0.00    -0.213 NA
HETATM    3  C   UNL     1      22.966  47.107  49.073  1.00  0.00     0.169 A 
HETATM    4  C   UNL     1      22.493  48.377  48.777  1.00  0.00     0.078 A 
HETATM    5  C   UNL     1      21.178  48.491  48.296  1.00  0.00     0.121 A 
HETATM    6  N   UNL     1      20.485  47.346  48.096  1.00  0.00    -0.221 NA
HETATM    7  N   UNL     1      24.248  47.274  49.594  1.00  0.00    -0.214 N 
HETATM    8  N   UNL     1      24.625  48.589  49.566  1.00  0.00    -0.170 NA
HETATM    9  C   UNL     1      23.570  49.244  49.075  1.00  0.00     0.069 A 
HETATM   10  C   UNL     1      23.644  50.716  48.904  1.00  0.00     0.073 C 
ENDROOT
BRANCH   5  11
HETATM   11  N   UNL     1      20.589  49.731  48.034  1.00  0.00    -0.272 NA
HETATM   12  H   UNL     1      20.912  50.091  47.145  1.00  0.00     0.129 HD
BRANCH  11  13
HETATM   13  C   UNL     1      20.615  50.730  49.112  1.00  0.00     0.062 C 
HETATM   14  C   UNL     1      20.097  52.064  48.553  1.00  0.00     0.022 C 
HETATM   15  C   UNL     1      18.618  52.020  48.172  1.00  0.00     0.027 C 
HETATM   16  C   UNL     1      17.685  51.390  49.215  1.00  0.00     0.086 C 
HETATM   17  C   UNL     1      18.269  50.179  49.951  1.00  0.00     0.027 C 
HETATM   18  C   UNL     1      19.754  50.279  50.295  1.00  0.00     0.022 C 
BRANCH  16  19
HETATM   19  N   UNL     1      17.052  52.368  50.097  1.00  0.00    -0.339 N 
HETATM   20  C   UNL     1      15.979  53.164  49.794  1.00  0.00     0.317 C 
HETATM   21  N   UNL     1      15.609  53.893  50.900  1.00  0.00    -0.335 N 
HETATM   22  O   UNL     1      15.415  53.203  48.714  1.00  0.00    -0.247 OA
HETATM   23  H   UNL     1      15.842  53.425  51.764  1.00  0.00     0.165 HD
HETATM   24  H   UNL     1      17.647  52.755  50.815  1.00  0.00     0.164 HD
BRANCH  21  25
HETATM   25  C   UNL     1      14.421  54.761  50.954  1.00  0.00     0.023 C 
HETATM   26  C   UNL     1      13.166  53.996  50.504  1.00  0.00     0.037 C 
HETATM   27  C   UNL     1      14.230  55.200  52.419  1.00  0.00     0.037 C 
HETATM   28  C   UNL     1      14.607  56.025  50.098  1.00  0.00     0.037 C 
ENDBRANCH  21  25
ENDBRANCH  16  19
ENDBRANCH  11  13
ENDBRANCH   5  11
BRANCH   1  29
HETATM   29  C   UNL     1      20.218  44.930  48.128  1.00  0.00     0.076 C 
HETATM   30  C   UNL     1      18.749  45.286  47.973  1.00  0.00     0.013 C 
ENDBRANCH   1  29
BRANCH   7  31
HETATM   31  C   UNL     1      25.146  46.303  50.139  1.00  0.00     0.060 A 
HETATM   32  C   UNL     1      26.362  45.985  49.527  1.00  0.00     0.032 A 
HETATM   33  C   UNL     1      27.199  45.007  50.080  1.00  0.00     0.009 A 
HETATM   34  C   UNL     1      26.840  44.339  51.255  1.00  0.00    -0.062 A 
HETATM   35  C   UNL     1      27.714  43.263  51.828  1.00  0.00     0.048 C 
HETATM   36  C   UNL     1      25.623  44.652  51.866  1.00  0.00     0.009 A 
HETATM   37  C   UNL     1      24.785  45.627  51.318  1.00  0.00     0.032 A 
ENDBRANCH   7  31
TORSDOF 6
ENDMDL
MODEL 3
REMARK VINA RESULT:      -8.8      2.773     10.636
REMARK  6 active torsions:
REMARK  status: ('A' for Active; 'I' for Inactive)
REMARK    1  A    between atoms: C_2  and  C_3 
REMARK    2  A    between atoms: C_7  and  N_8 
REMARK    3  A    between atoms: N_8  and  C_9 
REMARK    4  A    between atoms: C_12  and  N_13 
REMARK       I    between atoms: N_13  and  C_14 
REMARK       I    between atoms: C_14  and  N_15 
REMARK    5  A    between atoms: N_15  and  C_16 
REMARK    6  A    between atoms: N_24  and  C_25 
ROOT
HETATM    1  C   UNL     1      22.861  49.518  48.151  1.00  0.00     0.130 A 
HETATM    2  N   UNL     1      21.554  49.799  48.287  1.00  0.00    -0.213 NA
HETATM    3  C   UNL     1      20.801  48.706  48.519  1.00  0.00     0.169 A 
HETATM    4  C   UNL     1      21.283  47.410  48.621  1.00  0.00     0.078 A 
HETATM    5  C   UNL     1      22.672  47.218  48.524  1.00  0.00     0.121 A 
HETATM    6  N   UNL     1      23.436  48.305  48.275  1.00  0.00    -0.221 NA
HETATM    7  N   UNL     1      19.424  48.633  48.721  1.00  0.00    -0.214 N 
HETATM    8  N   UNL     1      19.015  47.336  48.871  1.00  0.00    -0.170 NA
HETATM    9  C   UNL     1      20.133  46.609  48.809  1.00  0.00     0.069 A 
HETATM   10  C   UNL     1      20.047  45.132  48.933  1.00  0.00     0.073 C 
ENDROOT
BRANCH   5  11
HETATM   11  N   UNL     1      23.259  45.959  48.682  1.00  0.00    -0.272 NA
HETATM   12  H   UNL     1      22.706  45.253  48.213  1.00  0.00     0.129 HD
BRANCH  11  13
HETATM   13  C   UNL     1      23.667  45.572  50.040  1.00  0.00     0.062 C 
HETATM   14  C   UNL     1      24.178  44.124  50.002  1.00  0.00     0.022 C 
HETATM   15  C   UNL     1      25.472  43.965  49.204  1.00  0.00     0.027 C 
HETATM   16  C   UNL     1      26.569  44.994  49.513  1.00  0.00     0.086 C 
HETATM   17  C   UNL     1      26.061  46.416  49.775  1.00  0.00     0.027 C 
HETATM   18  C   UNL     1      24.758  46.507  50.569  1.00  0.00     0.022 C 
BRANCH  16  19
HETATM   19  N   UNL     1      27.547  44.525  50.493  1.00  0.00    -0.339 N 
HETATM   20  C   UNL     1      27.344  44.378  51.839  1.00  0.00     0.317 C 
HETATM   21  N   UNL     1      28.464  43.832  52.425  1.00  0.00    -0.335 N 
HETATM   22  O   UNL     1      26.317  44.660  52.431  1.00  0.00    -0.247 OA
HETATM   23  H   UNL     1      28.990  43.256  51.784  1.00  0.00     0.165 HD
HETATM   24  H   UNL     1      28.514  44.679  50.248  1.00  0.00     0.164 HD
BRANCH  21  25
HETATM   25  C   UNL     1      28.542  43.434  53.840  1.00  0.00     0.023 C 
HETATM   26  C   UNL     1      27.593  42.259  54.128  1.00  0.00     0.037 C 
HETATM   27  C   UNL     1      29.987  42.978  54.118  1.00  0.00     0.037 C 
HETATM   28  C   UNL     1      28.225  44.612  54.776  1.00  0.00     0.037 C 
ENDBRANCH  21  25
ENDBRANCH  16  19
ENDBRANCH  11  13
ENDBRANCH   5  11
BRANCH   1  29
HETATM   29  C   UNL     1      23.780  50.678  47.873  1.00  0.00     0.076 C 
HETATM   30  C   UNL     1      25.234  50.235  47.845  1.00  0.00     0.013 C 
ENDBRANCH   1  29
BRANCH   7  31
HETATM   31  C   UNL     1      18.457  49.683  48.808  1.00  0.00     0.060 A 
HETATM   32  C   UNL     1      18.576  50.732  49.725  1.00  0.00     0.032 A 
HETATM   33  C   UNL     1      17.590  51.725  49.798  1.00  0.00     0.009 A 
HETATM   34  C   UNL     1      16.478  51.692  48.951  1.00  0.00    -0.062 A 
HETATM   35  C   UNL     1      15.401  52.731  49.053  1.00  0.00     0.048 C 
HETATM   36  C   UNL     1      16.353  50.642  48.037  1.00  0.00     0.009 A 
HETATM   37  C   UNL     1      17.335  49.649  47.962  1.00  0.00     0.032 A 
ENDBRANCH   7  31
TORSDOF 6
ENDMDL
MODEL 4
REMARK VINA RESULT:      -8.7      2.617      3.107
REMARK  6 active torsions:
REMARK  status: ('A' for Active; 'I' for Inactive)
REMARK    1  A    between atoms: C_2  and  C_3 
REMARK    2  A    between atoms: C_7  and  N_8 
REMARK    3  A    between atoms: N_8  and  C_9 
REMARK    4  A    between atoms: C_12  and  N_13 
REMARK       I    between atoms: N_13  and  C_14 
REMARK       I    between atoms: C_14  and  N_15 
REMARK    5  A    between atoms: N_15  and  C_16 
REMARK    6  A    between atoms: N_24  and  C_25 
ROOT
HETATM    1  C   UNL     1      26.678  42.090  51.272  1.00  0.00     0.130 A 
HETATM    2  N   UNL     1      27.487  42.605  52.214  1.00  0.00    -0.213 NA
HETATM    3  C   UNL     1      27.166  43.869  52.552  1.00  0.00     0.169 A 
HETATM    4  C   UNL     1      26.115  44.597  52.016  1.00  0.00     0.078 A 
HETATM    5  C   UNL     1      25.284  43.958  51.080  1.00  0.00     0.121 A 
HETATM    6  N   UNL     1      25.607  42.695  50.720  1.00  0.00    -0.221 NA
HETATM    7  N   UNL     1      27.778  44.694  53.494  1.00  0.00    -0.214 N 
HETATM    8  N   UNL     1      27.200  45.934  53.516  1.00  0.00    -0.170 NA
HETATM    9  C   UNL     1      26.205  45.870  52.628  1.00  0.00     0.069 A 
HETATM   10  C   UNL     1      25.361  47.068  52.394  1.00  0.00     0.073 C 
ENDROOT
BRANCH   5  11
HETATM   11  N   UNL     1      24.161  44.585  50.535  1.00  0.00    -0.272 NA
HETATM   12  H   UNL     1      23.331  44.031  50.707  1.00  0.00     0.129 HD
BRANCH  11  13
HETATM   13  C   UNL     1      24.263  45.064  49.148  1.00  0.00     0.062 C 
HETATM   14  C   UNL     1      23.966  43.890  48.204  1.00  0.00     0.022 C 
HETATM   15  C   UNL     1      22.518  43.405  48.286  1.00  0.00     0.027 C 
HETATM   16  C   UNL     1      21.450  44.506  48.249  1.00  0.00     0.086 C 
HETATM   17  C   UNL     1      21.819  45.786  49.008  1.00  0.00     0.027 C 
HETATM   18  C   UNL     1      23.282  46.212  48.894  1.00  0.00     0.022 C 
BRANCH  16  19
HETATM   19  N   UNL     1      20.908  44.747  46.913  1.00  0.00    -0.339 N 
HETATM   20  C   UNL     1      19.651  44.426  46.475  1.00  0.00     0.317 C 
HETATM   21  N   UNL     1      19.471  44.883  45.189  1.00  0.00    -0.335 N 
HETATM   22  O   UNL     1      18.803  43.846  47.131  1.00  0.00    -0.247 OA
HETATM   23  H   UNL     1      20.037  45.695  44.988  1.00  0.00     0.165 HD
HETATM   24  H   UNL     1      21.590  44.799  46.171  1.00  0.00     0.164 HD
BRANCH  21  25
HETATM   25  C   UNL     1      18.195  44.809  44.460  1.00  0.00     0.023 C 
HETATM   26  C   UNL     1      17.089  45.560  45.219  1.00  0.00     0.037 C 
HETATM   27  C   UNL     1      18.399  45.488  43.092  1.00  0.00     0.037 C 
HETATM   28  C   UNL     1      17.771  43.353  44.211  1.00  0.00     0.037 C 
ENDBRANCH  21  25
ENDBRANCH  16  19
ENDBRANCH  11  13
ENDBRANCH   5  11
BRANCH   1  29
HETATM   29  C   UNL     1      26.971  40.685  50.819  1.00  0.00     0.076 C 
HETATM   30  C   UNL     1      28.432  40.328  51.036  1.00  0.00     0.013 C 
ENDBRANCH   1  29
BRANCH   7  31
HETATM   31  C   UNL     1      28.851  44.410  54.397  1.00  0.00     0.060 A 
HETATM   32  C   UNL     1      29.606  43.236  54.311  1.00  0.00     0.032 A 
HETATM   33  C   UNL     1      30.630  42.983  55.233  1.00  0.00     0.009 A 
HETATM   34  C   UNL     1      30.921  43.901  56.248  1.00  0.00    -0.062 A 
HETATM   35  C   UNL     1      31.989  43.615  57.262  1.00  0.00     0.048 C 
HETATM   36  C   UNL     1      30.165  45.072  56.339  1.00  0.00     0.009 A 
HETATM   37  C   UNL     1      29.142  45.327  55.420  1.00  0.00     0.032 A 
ENDBRANCH   7  31
TORSDOF 6
ENDMDL
MODEL 5
REMARK VINA RESULT:      -8.6      5.987      9.217
REMARK  6 active torsions:
REMARK  status: ('A' for Active; 'I' for Inactive)
REMARK    1  A    between atoms: C_2  and  C_3 
REMARK    2  A    between atoms: C_7  and  N_8 
REMARK    3  A    between atoms: N_8  and  C_9 
REMARK    4  A    between atoms: C_12  and  N_13 
REMARK       I    between atoms: N_13  and  C_14 
REMARK       I    between atoms: C_14  and  N_15 
REMARK    5  A    between atoms: N_15  and  C_16 
REMARK    6  A    between atoms: N_24  and  C_25 
ROOT
HETATM    1  C   UNL     1      20.583  47.044  46.614  1.00  0.00     0.130 A 
HETATM    2  N   UNL     1      21.711  47.526  47.164  1.00  0.00    -0.213 NA
HETATM    3  C   UNL     1      21.485  48.520  48.046  1.00  0.00     0.169 A 
HETATM    4  C   UNL     1      20.237  49.019  48.386  1.00  0.00     0.078 A 
HETATM    5  C   UNL     1      19.109  48.413  47.806  1.00  0.00     0.121 A 
HETATM    6  N   UNL     1      19.324  47.427  46.907  1.00  0.00    -0.221 NA
HETATM    7  N   UNL     1      22.415  49.232  48.801  1.00  0.00    -0.214 N 
HETATM    8  N   UNL     1      21.805  50.206  49.545  1.00  0.00    -0.170 NA
HETATM    9  C   UNL     1      20.502  50.073  49.291  1.00  0.00     0.069 A 
HETATM   10  C   UNL     1      19.537  50.994  49.943  1.00  0.00     0.073 C 
ENDROOT
BRANCH   5  11
HETATM   11  N   UNL     1      17.807  48.800  48.138  1.00  0.00    -0.272 NA
HETATM   12  H   UNL     1      17.367  48.093  48.713  1.00  0.00     0.129 HD
BRANCH  11  13
HETATM   13  C   UNL     1      16.948  49.278  47.045  1.00  0.00     0.062 C 
HETATM   14  C   UNL     1      15.572  49.634  47.626  1.00  0.00     0.022 C 
HETATM   15  C   UNL     1      15.612  50.834  48.572  1.00  0.00     0.027 C 
HETATM   16  C   UNL     1      16.394  52.052  48.060  1.00  0.00     0.086 C 
HETATM   17  C   UNL     1      17.668  51.715  47.278  1.00  0.00     0.027 C 
HETATM   18  C   UNL     1      17.567  50.499  46.359  1.00  0.00     0.022 C 
BRANCH  16  19
HETATM   19  N   UNL     1      15.551  53.055  47.413  1.00  0.00    -0.339 N 
HETATM   20  C   UNL     1      14.630  53.863  48.025  1.00  0.00     0.317 C 
HETATM   21  N   UNL     1      14.094  54.740  47.110  1.00  0.00    -0.335 N 
HETATM   22  O   UNL     1      14.345  53.833  49.210  1.00  0.00    -0.247 OA
HETATM   23  H   UNL     1      14.732  54.945  46.355  1.00  0.00     0.165 HD
HETATM   24  H   UNL     1      15.354  52.891  46.436  1.00  0.00     0.164 HD
BRANCH  21  25
HETATM   25  C   UNL     1      13.160  55.824  47.458  1.00  0.00     0.023 C 
HETATM   26  C   UNL     1      13.706  56.659  48.627  1.00  0.00     0.037 C 
HETATM   27  C   UNL     1      13.024  56.736  46.224  1.00  0.00     0.037 C 
HETATM   28  C   UNL     1      11.765  55.277  47.803  1.00  0.00     0.037 C 
ENDBRANCH  21  25
ENDBRANCH  16  19
ENDBRANCH  11  13
ENDBRANCH   5  11
BRANCH   1  29
HETATM   29  C   UNL     1      20.738  45.940  45.604  1.00  0.00     0.076 C 
HETATM   30  C   UNL     1      21.199  44.649  46.263  1.00  0.00     0.013 C 
ENDBRANCH   1  29
BRANCH   7  31
HETATM   31  C   UNL     1      23.831  49.061  48.904  1.00  0.00     0.060 A 
HETATM   32  C   UNL     1      24.406  48.065  49.699  1.00  0.00     0.032 A 
HETATM   33  C   UNL     1      25.799  47.951  49.794  1.00  0.00     0.009 A 
HETATM   34  C   UNL     1      26.638  48.821  49.091  1.00  0.00    -0.062 A 
HETATM   35  C   UNL     1      28.130  48.727  49.222  1.00  0.00     0.048 C 
HETATM   36  C   UNL     1      26.066  49.821  48.300  1.00  0.00     0.009 A 
HETATM   37  C   UNL     1      24.676  49.938  48.203  1.00  0.00     0.032 A 
ENDBRANCH   7  31
TORSDOF 6
ENDMDL
MODEL 6
REMARK VINA RESULT:      -8.6      3.605      5.812
REMARK  6 active torsions:
REMARK  status: ('A' for Active; 'I' for Inactive)
REMARK    1  A    between atoms: C_2  and  C_3 
REMARK    2  A    between atoms: C_7  and  N_8 
REMARK    3  A    between atoms: N_8  and  C_9 
REMARK    4  A    between atoms: C_12  and  N_13 
REMARK       I    between atoms: N_13  and  C_14 
REMARK       I    between atoms: C_14  and  N_15 
REMARK    5  A    between atoms: N_15  and  C_16 
REMARK    6  A    between atoms: N_24  and  C_25 
ROOT
HETATM    1  C   UNL     1      25.860  45.983  50.454  1.00  0.00     0.130 A 
HETATM    2  N   UNL     1      26.647  45.398  51.373  1.00  0.00    -0.213 NA
HETATM    3  C   UNL     1      26.786  44.071  51.181  1.00  0.00     0.169 A 
HETATM    4  C   UNL     1      26.203  43.347  50.152  1.00  0.00     0.078 A 
HETATM    5  C   UNL     1      25.444  44.052  49.202  1.00  0.00     0.121 A 
HETATM    6  N   UNL     1      25.283  45.381  49.394  1.00  0.00    -0.221 NA
HETATM    7  N   UNL     1      27.533  43.163  51.930  1.00  0.00    -0.214 N 
HETATM    8  N   UNL     1      27.381  41.889  51.455  1.00  0.00    -0.170 NA
HETATM    9  C   UNL     1      26.583  42.006  50.392  1.00  0.00     0.069 A 
HETATM   10  C   UNL     1      26.205  40.789  49.630  1.00  0.00     0.073 C 
ENDROOT
BRANCH   5  11
HETATM   11  N   UNL     1      24.874  43.422  48.093  1.00  0.00    -0.272 NA
HETATM   12  H   UNL     1      25.407  43.632  47.258  1.00  0.00     0.129 HD
BRANCH  11  13
HETATM   13  C   UNL     1      23.423  43.565  47.909  1.00  0.00     0.062 C 
HETATM   14  C   UNL     1      23.087  43.281  46.437  1.00  0.00     0.022 C 
HETATM   15  C   UNL     1      23.335  41.827  46.035  1.00  0.00     0.027 C 
HETATM   16  C   UNL     1      22.784  40.772  47.004  1.00  0.00     0.086 C 
HETATM   17  C   UNL     1      22.908  41.134  48.488  1.00  0.00     0.027 C 
HETATM   18  C   UNL     1      22.660  42.603  48.824  1.00  0.00     0.022 C 
BRANCH  16  19
HETATM   19  N   UNL     1      21.465  40.267  46.627  1.00  0.00    -0.339 N 
HETATM   20  C   UNL     1      21.050  38.963  46.667  1.00  0.00     0.317 C 
HETATM   21  N   UNL     1      19.720  38.883  46.322  1.00  0.00    -0.335 N 
HETATM   22  O   UNL     1      21.745  38.013  46.986  1.00  0.00    -0.247 OA
HETATM   23  H   UNL     1      19.215  39.728  46.545  1.00  0.00     0.165 HD
HETATM   24  H   UNL     1      20.962  40.827  45.954  1.00  0.00     0.164 HD
BRANCH  21  25
HETATM   25  C   UNL     1      18.929  37.643  46.376  1.00  0.00     0.023 C 
HETATM   26  C   UNL     1      18.657  37.233  47.833  1.00  0.00     0.037 C 
HETATM   27  C   UNL     1      17.581  37.919  45.684  1.00  0.00     0.037 C 
HETATM   28  C   UNL     1      19.626  36.496  45.625  1.00  0.00     0.037 C 
ENDBRANCH  21  25
ENDBRANCH  16  19
ENDBRANCH  11  13
ENDBRANCH   5  11
BRANCH   1  29
HETATM   29  C   UNL     1      25.634  47.464  50.597  1.00  0.00     0.076 C 
HETATM   30  C   UNL     1      26.438  48.247  49.572  1.00  0.00     0.013 C 
ENDBRANCH   1  29
BRANCH   7  31
HETATM   31  C   UNL     1      28.400  43.393  53.044  1.00  0.00     0.060 A 
HETATM   32  C   UNL     1      28.081  44.297  54.062  1.00  0.00     0.032 A 
HETATM   33  C   UNL     1      28.972  44.514  55.121  1.00  0.00     0.009 A 
HETATM   34  C   UNL     1      30.188  43.826  55.186  1.00  0.00    -0.062 A 
HETATM   35  C   UNL     1      31.162  44.085  56.297  1.00  0.00     0.048 C 
HETATM   36  C   UNL     1      30.511  42.926  54.167  1.00  0.00     0.009 A 
HETATM   37  C   UNL     1      29.625  42.707  53.108  1.00  0.00     0.032 A 
ENDBRANCH   7  31
TORSDOF 6
ENDMDL
MODEL 7
REMARK VINA RESULT:      -8.5      1.969      2.679
REMARK  6 active torsions:
REMARK  status: ('A' for Active; 'I' for Inactive)
REMARK    1  A    between atoms: C_2  and  C_3 
REMARK    2  A    between atoms: C_7  and  N_8 
REMARK    3  A    between atoms: N_8  and  C_9 
REMARK    4  A    between atoms: C_12  and  N_13 
REMARK       I    between atoms: N_13  and  C_14 
REMARK       I    between atoms: C_14  and  N_15 
REMARK    5  A    between atoms: N_15  and  C_16 
REMARK    6  A    between atoms: N_24  and  C_25 
ROOT
HETATM    1  C   UNL     1      25.896  42.303  50.947  1.00  0.00     0.130 A 
HETATM    2  N   UNL     1      26.792  42.767  51.834  1.00  0.00    -0.213 NA
HETATM    3  C   UNL     1      26.602  44.064  52.148  1.00  0.00     0.169 A 
HETATM    4  C   UNL     1      25.595  44.870  51.639  1.00  0.00     0.078 A 
HETATM    5  C   UNL     1      24.666  44.284  50.762  1.00  0.00     0.121 A 
HETATM    6  N   UNL     1      24.857  42.988  50.426  1.00  0.00    -0.221 NA
HETATM    7  N   UNL     1      27.330  44.854  53.035  1.00  0.00    -0.214 N 
HETATM    8  N   UNL     1      26.867  46.141  53.045  1.00  0.00    -0.170 NA
HETATM    9  C   UNL     1      25.828  46.144  52.207  1.00  0.00     0.069 A 
HETATM   10  C   UNL     1      25.084  47.408  51.976  1.00  0.00     0.073 C 
ENDROOT
BRANCH   5  11
HETATM   11  N   UNL     1      23.578  44.996  50.250  1.00  0.00    -0.272 NA
HETATM   12  H   UNL     1      22.709  44.596  50.584  1.00  0.00     0.129 HD
BRANCH  11  13
HETATM   13  C   UNL     1      23.574  45.274  48.806  1.00  0.00     0.062 C 
HETATM   14  C   UNL     1      22.304  44.663  48.196  1.00  0.00     0.022 C 
HETATM   15  C   UNL     1      21.021  45.344  48.673  1.00  0.00     0.027 C 
HETATM   16  C   UNL     1      21.038  46.878  48.643  1.00  0.00     0.086 C 
HETATM   17  C   UNL     1      22.375  47.514  49.040  1.00  0.00     0.027 C 
HETATM   18  C   UNL     1      23.620  46.781  48.542  1.00  0.00     0.022 C 
BRANCH  16  19
HETATM   19  N   UNL     1      20.452  47.444  47.429  1.00  0.00    -0.339 N 
HETATM   20  C   UNL     1      19.339  48.239  47.357  1.00  0.00     0.317 C 
HETATM   21  N   UNL     1      19.141  48.650  46.058  1.00  0.00    -0.335 N 
HETATM   22  O   UNL     1      18.641  48.560  48.303  1.00  0.00    -0.247 OA
HETATM   23  H   UNL     1      20.003  48.698  45.535  1.00  0.00     0.165 HD
HETATM   24  H   UNL     1      20.634  46.930  46.580  1.00  0.00     0.164 HD
BRANCH  21  25
HETATM   25  C   UNL     1      18.102  49.609  45.649  1.00  0.00     0.023 C 
HETATM   26  C   UNL     1      18.258  50.938  46.406  1.00  0.00     0.037 C 
HETATM   27  C   UNL     1      18.284  49.878  44.143  1.00  0.00     0.037 C 
HETATM   28  C   UNL     1      16.691  49.038  45.865  1.00  0.00     0.037 C 
ENDBRANCH  21  25
ENDBRANCH  16  19
ENDBRANCH  11  13
ENDBRANCH   5  11
BRANCH   1  29
HETATM   29  C   UNL     1      26.039  40.866  50.524  1.00  0.00     0.076 C 
HETATM   30  C   UNL     1      27.458  40.365  50.741  1.00  0.00     0.013 C 
ENDBRANCH   1  29
BRANCH   7  31
HETATM   31  C   UNL     1      28.416  44.497  53.896  1.00  0.00     0.060 A 
HETATM   32  C   UNL     1      29.177  43.342  53.696  1.00  0.00     0.032 A 
HETATM   33  C   UNL     1      30.214  43.015  54.580  1.00  0.00     0.009 A 
HETATM   34  C   UNL     1      30.512  43.839  55.669  1.00  0.00    -0.062 A 
HETATM   35  C   UNL     1      31.595  43.472  56.640  1.00  0.00     0.048 C 
HETATM   36  C   UNL     1      29.750  44.992  55.874  1.00  0.00     0.009 A 
HETATM   37  C   UNL     1      28.714  45.322  54.994  1.00  0.00     0.032 A 
ENDBRANCH   7  31
TORSDOF 6
ENDMDL
MODEL 8
REMARK VINA RESULT:      -8.4      2.901     10.818
REMARK  6 active torsions:
REMARK  status: ('A' for Active; 'I' for Inactive)
REMARK    1  A    between atoms: C_2  and  C_3 
REMARK    2  A    between atoms: C_7  and  N_8 
REMARK    3  A    between atoms: N_8  and  C_9 
REMARK    4  A    between atoms: C_12  and  N_13 
REMARK       I    between atoms: N_13  and  C_14 
REMARK       I    between atoms: C_14  and  N_15 
REMARK    5  A    between atoms: N_15  and  C_16 
REMARK    6  A    between atoms: N_24  and  C_25 
ROOT
HETATM    1  C   UNL     1      20.270  46.462  48.220  1.00  0.00     0.130 A 
HETATM    2  N   UNL     1      19.784  47.674  47.902  1.00  0.00    -0.213 NA
HETATM    3  C   UNL     1      20.725  48.639  47.911  1.00  0.00     0.169 A 
HETATM    4  C   UNL     1      22.066  48.444  48.204  1.00  0.00     0.078 A 
HETATM    5  C   UNL     1      22.496  47.132  48.467  1.00  0.00     0.121 A 
HETATM    6  N   UNL     1      21.558  46.159  48.478  1.00  0.00    -0.221 NA
HETATM    7  N   UNL     1      20.576  49.993  47.620  1.00  0.00    -0.214 N 
HETATM    8  N   UNL     1      21.754  50.668  47.792  1.00  0.00    -0.170 NA
HETATM    9  C   UNL     1      22.642  49.735  48.143  1.00  0.00     0.069 A 
HETATM   10  C   UNL     1      24.045  50.134  48.416  1.00  0.00     0.073 C 
ENDROOT
BRANCH   5  11
HETATM   11  N   UNL     1      23.839  46.826  48.706  1.00  0.00    -0.272 NA
HETATM   12  H   UNL     1      24.137  46.067  48.108  1.00  0.00     0.129 HD
BRANCH  11  13
HETATM   13  C   UNL     1      24.252  46.659  50.107  1.00  0.00     0.062 C 
HETATM   14  C   UNL     1      24.251  45.161  50.441  1.00  0.00     0.022 C 
HETATM   15  C   UNL     1      25.319  44.375  49.680  1.00  0.00     0.027 C 
HETATM   16  C   UNL     1      26.721  45.001  49.675  1.00  0.00     0.086 C 
HETATM   17  C   UNL     1      26.742  46.529  49.564  1.00  0.00     0.027 C 
HETATM   18  C   UNL     1      25.644  47.255  50.339  1.00  0.00     0.022 C 
BRANCH  16  19
HETATM   19  N   UNL     1      27.598  44.472  50.718  1.00  0.00    -0.339 N 
HETATM   20  C   UNL     1      27.418  44.590  52.070  1.00  0.00     0.317 C 
HETATM   21  N   UNL     1      28.400  43.891  52.736  1.00  0.00    -0.335 N 
HETATM   22  O   UNL     1      26.510  45.198  52.609  1.00  0.00    -0.247 OA
HETATM   23  H   UNL     1      28.750  43.112  52.197  1.00  0.00     0.165 HD
HETATM   24  H   UNL     1      28.564  44.349  50.451  1.00  0.00     0.164 HD
BRANCH  21  25
HETATM   25  C   UNL     1      28.436  43.713  54.197  1.00  0.00     0.023 C 
HETATM   26  C   UNL     1      29.616  42.817  54.608  1.00  0.00     0.037 C 
HETATM   27  C   UNL     1      28.629  45.103  54.833  1.00  0.00     0.037 C 
HETATM   28  C   UNL     1      27.117  43.126  54.726  1.00  0.00     0.037 C 
ENDBRANCH  21  25
ENDBRANCH  16  19
ENDBRANCH  11  13
ENDBRANCH   5  11
BRANCH   1  29
HETATM   29  C   UNL     1      19.287  45.322  48.250  1.00  0.00     0.076 C 
HETATM   30  C   UNL     1      17.867  45.812  48.016  1.00  0.00     0.013 C 
ENDBRANCH   1  29
BRANCH   7  31
HETATM   31  C   UNL     1      19.422  50.709  47.170  1.00  0.00     0.060 A 
HETATM   32  C   UNL     1      18.735  51.608  47.992  1.00  0.00     0.032 A 
HETATM   33  C   UNL     1      17.592  52.267  47.521  1.00  0.00     0.009 A 
HETATM   34  C   UNL     1      17.124  52.048  46.221  1.00  0.00    -0.062 A 
HETATM   35  C   UNL     1      15.878  52.721  45.727  1.00  0.00     0.048 C 
HETATM   36  C   UNL     1      17.806  51.147  45.399  1.00  0.00     0.009 A 
HETATM   37  C   UNL     1      18.947  50.487  45.866  1.00  0.00     0.032 A 
ENDBRANCH   7  31
TORSDOF 6
ENDMDL
MODEL 9
REMARK VINA RESULT:      -8.3      3.197     11.281
REMARK  6 active torsions:
REMARK  status: ('A' for Active; 'I' for Inactive)
REMARK    1  A    between atoms: C_2  and  C_3 
REMARK    2  A    between atoms: C_7  and  N_8 
REMARK    3  A    between atoms: N_8  and  C_9 
REMARK    4  A    between atoms: C_12  and  N_13 
REMARK       I    between atoms: N_13  and  C_14 
REMARK       I    between atoms: C_14  and  N_15 
REMARK    5  A    between atoms: N_15  and  C_16 
REMARK    6  A    between atoms: N_24  and  C_25 
ROOT
HETATM    1  C   UNL     1      19.980  46.638  47.266  1.00  0.00     0.130 A 
HETATM    2  N   UNL     1      19.452  47.794  46.828  1.00  0.00    -0.213 NA
HETATM    3  C   UNL     1      20.005  48.879  47.407  1.00  0.00     0.169 A 
HETATM    4  C   UNL     1      21.018  48.851  48.353  1.00  0.00     0.078 A 
HETATM    5  C   UNL     1      21.550  47.599  48.707  1.00  0.00     0.121 A 
HETATM    6  N   UNL     1      20.992  46.503  48.146  1.00  0.00    -0.221 NA
HETATM    7  N   UNL     1      19.711  50.222  47.182  1.00  0.00    -0.214 N 
HETATM    8  N   UNL     1      20.446  51.033  48.003  1.00  0.00    -0.170 NA
HETATM    9  C   UNL     1      21.227  50.206  48.702  1.00  0.00     0.069 A 
HETATM   10  C   UNL     1      22.164  50.766  49.708  1.00  0.00     0.073 C 
ENDROOT
BRANCH   5  11
HETATM   11  N   UNL     1      22.618  47.473  49.600  1.00  0.00    -0.272 NA
HETATM   12  H   UNL     1      22.726  48.322  50.140  1.00  0.00     0.129 HD
BRANCH  11  13
HETATM   13  C   UNL     1      23.887  46.959  49.063  1.00  0.00     0.062 C 
HETATM   14  C   UNL     1      25.043  47.693  49.758  1.00  0.00     0.022 C 
HETATM   15  C   UNL     1      25.152  47.368  51.248  1.00  0.00     0.027 C 
HETATM   16  C   UNL     1      25.070  45.878  51.606  1.00  0.00     0.086 C 
HETATM   17  C   UNL     1      24.072  45.069  50.768  1.00  0.00     0.027 C 
HETATM   18  C   UNL     1      24.003  45.449  49.290  1.00  0.00     0.022 C 
BRANCH  16  19
HETATM   19  N   UNL     1      26.377  45.239  51.746  1.00  0.00    -0.339 N 
HETATM   20  C   UNL     1      26.880  44.652  52.876  1.00  0.00     0.317 C 
HETATM   21  N   UNL     1      28.103  44.082  52.604  1.00  0.00    -0.335 N 
HETATM   22  O   UNL     1      26.319  44.612  53.957  1.00  0.00    -0.247 OA
HETATM   23  H   UNL     1      28.189  43.801  51.638  1.00  0.00     0.165 HD
HETATM   24  H   UNL     1      27.093  45.572  51.115  1.00  0.00     0.164 HD
BRANCH  21  25
HETATM   25  C   UNL     1      28.864  43.268  53.566  1.00  0.00     0.023 C 
HETATM   26  C   UNL     1      28.102  41.978  53.911  1.00  0.00     0.037 C 
HETATM   27  C   UNL     1      30.200  42.887  52.901  1.00  0.00     0.037 C 
HETATM   28  C   UNL     1      29.177  44.057  54.848  1.00  0.00     0.037 C 
ENDBRANCH  21  25
ENDBRANCH  16  19
ENDBRANCH  11  13
ENDBRANCH   5  11
BRANCH   1  29
HETATM   29  C   UNL     1      19.413  45.370  46.685  1.00  0.00     0.076 C 
HETATM   30  C   UNL     1      20.492  44.315  46.505  1.00  0.00     0.013 C 
ENDBRANCH   1  29
BRANCH   7  31
HETATM   31  C   UNL     1      18.811  50.815  46.242  1.00  0.00     0.060 A 
HETATM   32  C   UNL     1      18.848  50.507  44.878  1.00  0.00     0.032 A 
HETATM   33  C   UNL     1      17.967  51.133  43.987  1.00  0.00     0.009 A 
HETATM   34  C   UNL     1      17.030  52.066  44.443  1.00  0.00    -0.062 A 
HETATM   35  C   UNL     1      16.112  52.767  43.486  1.00  0.00     0.048 C 
HETATM   36  C   UNL     1      16.994  52.379  45.804  1.00  0.00     0.009 A 
HETATM   37  C   UNL     1      17.872  51.757  46.697  1.00  0.00     0.032 A 
ENDBRANCH   7  31
TORSDOF 6
ENDMDL
MODEL 10
REMARK VINA RESULT:      -8.3      3.442      5.963
REMARK  6 active torsions:
REMARK  status: ('A' for Active; 'I' for Inactive)
REMARK    1  A    between atoms: C_2  and  C_3 
REMARK    2  A    between atoms: C_7  and  N_8 
REMARK    3  A    between atoms: N_8  and  C_9 
REMARK    4  A    between atoms: C_12  and  N_13 
REMARK       I    between atoms: N_13  and  C_14 
REMARK       I    between atoms: C_14  and  N_15 
REMARK    5  A    between atoms: N_15  and  C_16 
REMARK    6  A    between atoms: N_24  and  C_25 
ROOT
HETATM    1  C   UNL     1      22.599  44.768  48.113  1.00  0.00     0.130 A 
HETATM    2  N   UNL     1      23.493  45.020  49.085  1.00  0.00    -0.213 NA
HETATM    3  C   UNL     1      23.596  46.332  49.379  1.00  0.00     0.169 A 
HETATM    4  C   UNL     1      22.871  47.346  48.772  1.00  0.00     0.078 A 
HETATM    5  C   UNL     1      21.916  46.983  47.808  1.00  0.00     0.121 A 
HETATM    6  N   UNL     1      21.815  45.672  47.493  1.00  0.00    -0.221 NA
HETATM    7  N   UNL     1      24.408  46.941  50.333  1.00  0.00    -0.214 N 
HETATM    8  N   UNL     1      24.276  48.303  50.298  1.00  0.00    -0.170 NA
HETATM    9  C   UNL     1      23.355  48.539  49.361  1.00  0.00     0.069 A 
HETATM   10  C   UNL     1      22.969  49.940  49.058  1.00  0.00     0.073 C 
ENDROOT
BRANCH   5  11
HETATM   11  N   UNL     1      21.089  47.927  47.191  1.00  0.00    -0.272 NA
HETATM   12  H   UNL     1      21.415  48.864  47.393  1.00  0.00     0.129 HD
BRANCH  11  13
HETATM   13  C   UNL     1      19.638  47.765  47.363  1.00  0.00     0.062 C 
HETATM   14  C   UNL     1      19.325  47.742  48.867  1.00  0.00     0.022 C 
HETATM   15  C   UNL     1      19.599  49.078  49.558  1.00  0.00     0.027 C 
HETATM   16  C   UNL     1      19.052  50.318  48.838  1.00  0.00     0.086 C 
HETATM   17  C   UNL     1      19.153  50.270  47.309  1.00  0.00     0.027 C 
HETATM   18  C   UNL     1      18.878  48.906  46.679  1.00  0.00     0.022 C 
BRANCH  16  19
HETATM   19  N   UNL     1      17.746  50.749  49.331  1.00  0.00    -0.339 N 
HETATM   20  C   UNL     1      17.260  52.029  49.338  1.00  0.00     0.317 C 
HETATM   21  N   UNL     1      15.962  52.036  49.796  1.00  0.00    -0.335 N 
HETATM   22  O   UNL     1      17.873  53.016  48.968  1.00  0.00    -0.247 OA
HETATM   23  H   UNL     1      15.485  51.166  49.610  1.00  0.00     0.165 HD
HETATM   24  H   UNL     1      17.333  50.160  50.040  1.00  0.00     0.164 HD
BRANCH  21  25
HETATM   25  C   UNL     1      15.104  53.232  49.821  1.00  0.00     0.023 C 
HETATM   26  C   UNL     1      13.906  53.023  50.760  1.00  0.00     0.037 C 
HETATM   27  C   UNL     1      15.951  54.402  50.357  1.00  0.00     0.037 C 
HETATM   28  C   UNL     1      14.615  53.603  48.412  1.00  0.00     0.037 C 
ENDBRANCH  21  25
ENDBRANCH  16  19
ENDBRANCH  11  13
ENDBRANCH   5  11
BRANCH   1  29
HETATM   29  C   UNL     1      22.426  43.329  47.706  1.00  0.00     0.076 C 
HETATM   30  C   UNL     1      21.913  43.217  46.280  1.00  0.00     0.013 C 
ENDBRANCH   1  29
BRANCH   7  31
HETATM   31  C   UNL     1      25.286  46.352  51.297  1.00  0.00     0.060 A 
HETATM   32  C   UNL     1      25.843  45.082  51.119  1.00  0.00     0.032 A 
HETATM   33  C   UNL     1      26.675  44.529  52.102  1.00  0.00     0.009 A 
HETATM   34  C   UNL     1      26.971  45.239  53.270  1.00  0.00    -0.062 A 
HETATM   35  C   UNL     1      27.829  44.635  54.342  1.00  0.00     0.048 C 
HETATM   36  C   UNL     1      26.412  46.506  53.452  1.00  0.00     0.009 A 
HETATM   37  C   UNL     1      25.581  47.060  52.474  1.00  0.00     0.032 A 
ENDBRANCH   7  31
TORSDOF 6
ENDMDL
