MODEL 1
REMARK VINA RESULT:      -9.3      0.000      0.000
REMARK  3 active torsions:
REMARK  status: ('A' for Active; 'I' for Inactive)
REMARK    1  A    between atoms: C_6  and  N_7 
REMARK       I    between atoms: N_7  and  C_8 
REMARK    2  A    between atoms: C_8  and  C_9 
REMARK    3  A    between atoms: C_9  and  C_10 
ROOT
HETATM    1  C   UNL     1      22.492  48.804  49.125  1.00  0.00     0.286 C 
HETATM    2  N   UNL     1      21.061  48.511  49.597  1.00  0.00    -0.056 N 
HETATM    3  H   UNL     1      20.752  47.649  49.097  1.00  0.00     0.278 HD
HETATM    4  H   UNL     1      21.054  48.254  50.591  1.00  0.00     0.278 HD
HETATM    5  C   UNL     1      20.027  49.555  49.296  1.00  0.00     0.209 C 
HETATM    6  C   UNL     1      20.139  49.988  47.816  1.00  0.00     0.115 C 
HETATM    7  N   UNL     1      21.497  50.387  47.464  1.00  0.00    -0.353 N 
HETATM    8  C   UNL     1      22.608  49.702  47.876  1.00  0.00     0.249 C 
HETATM    9  O   UNL     1      23.675  49.852  47.288  1.00  0.00    -0.271 OA
HETATM   10  C   UNL     1      20.161  50.724  50.270  1.00  0.00     0.035 C 
HETATM   11  C   UNL     1      19.145  51.817  49.938  1.00  0.00     0.002 C 
HETATM   12  C   UNL     1      19.261  52.279  48.486  1.00  0.00     0.002 C 
HETATM   13  C   UNL     1      19.147  51.112  47.504  1.00  0.00     0.027 C 
HETATM   14  H   UNL     1      21.645  50.885  46.588  1.00  0.00     0.163 HD
ENDROOT
BRANCH   1  15
HETATM   15  C   UNL     1      23.242  47.488  48.859  1.00  0.00     0.146 C 
BRANCH  15  16
HETATM   16  C   UNL     1      24.454  47.495  49.760  1.00  0.00     0.224 C 
HETATM   17  N   UNL     1      24.681  46.334  50.451  1.00  0.00    -0.327 N 
HETATM   18  H   UNL     1      24.197  45.491  50.156  1.00  0.00     0.169 HD
HETATM   19  O   UNL     1      25.047  48.570  49.886  1.00  0.00    -0.273 OA
BRANCH  17  20
HETATM   20  C   UNL     1      25.496  46.185  51.597  1.00  0.00     0.035 A 
HETATM   21  C   UNL     1      25.536  47.105  52.648  1.00  0.00     0.037 A 
HETATM   22  C   UNL     1      26.300  46.863  53.805  1.00  0.00    -0.054 A 
HETATM   23  C   UNL     1      27.078  45.694  53.887  1.00  0.00    -0.056 A 
HETATM   24  C   UNL     1      26.284  47.878  54.917  1.00  0.00     0.049 C 
HETATM   25  C   UNL     1      27.911  45.383  55.100  1.00  0.00     0.049 C 
HETATM   26  C   UNL     1      27.037  44.776  52.830  1.00  0.00     0.009 A 
HETATM   27  C   UNL     1      26.251  45.015  51.699  1.00  0.00     0.030 A 
ENDBRANCH  17  20
ENDBRANCH  15  16
ENDBRANCH   1  15
TORSDOF 3
ENDMDL
MODEL 2
REMARK VINA RESULT:      -9.3      5.938      8.038
REMARK  3 active torsions:
REMARK  status: ('A' for Active; 'I' for Inactive)
REMARK    1  A    between atoms: C_6  and  N_7 
REMARK       I    between atoms: N_7  and  C_8 
REMARK    2  A    between atoms: C_8  and  C_9 
REMARK    3  A    between atoms: C_9  and  C_10 
ROOT
HETATM    1  C   UNL     1      25.433  43.634  51.997  1.00  0.00     0.286 C 
HETATM    2  N   UNL     1      26.727  42.817  52.108  1.00  0.00    -0.056 N 
HETATM    3  H   UNL     1      27.512  43.504  52.137  1.00  0.00     0.278 HD
HETATM    4  H   UNL     1      26.771  42.332  53.013  1.00  0.00     0.278 HD
HETATM    5  C   UNL     1      27.034  41.885  50.973  1.00  0.00     0.209 C 
HETATM    6  C   UNL     1      26.857  42.627  49.629  1.00  0.00     0.115 C 
HETATM    7  N   UNL     1      25.551  43.269  49.526  1.00  0.00    -0.353 N 
HETATM    8  C   UNL     1      24.971  43.951  50.560  1.00  0.00     0.249 C 
HETATM    9  O   UNL     1      24.068  44.754  50.336  1.00  0.00    -0.271 OA
HETATM   10  C   UNL     1      26.173  40.628  51.078  1.00  0.00     0.035 C 
HETATM   11  C   UNL     1      26.442  39.696  49.897  1.00  0.00     0.002 C 
HETATM   12  C   UNL     1      26.242  40.404  48.558  1.00  0.00     0.002 C 
HETATM   13  C   UNL     1      27.086  41.675  48.452  1.00  0.00     0.027 C 
HETATM   14  H   UNL     1      25.245  43.602  48.613  1.00  0.00     0.163 HD
ENDROOT
BRANCH   1  15
HETATM   15  C   UNL     1      25.571  44.954  52.775  1.00  0.00     0.146 C 
BRANCH  15  16
HETATM   16  C   UNL     1      26.421  44.651  53.986  1.00  0.00     0.224 C 
HETATM   17  N   UNL     1      27.646  45.263  54.014  1.00  0.00    -0.327 N 
HETATM   18  H   UNL     1      27.815  46.040  53.381  1.00  0.00     0.169 HD
HETATM   19  O   UNL     1      25.993  43.795  54.765  1.00  0.00    -0.273 OA
BRANCH  17  20
HETATM   20  C   UNL     1      28.753  44.891  54.811  1.00  0.00     0.035 A 
HETATM   21  C   UNL     1      29.148  45.576  55.963  1.00  0.00     0.037 A 
HETATM   22  C   UNL     1      30.205  45.110  56.768  1.00  0.00    -0.054 A 
HETATM   23  C   UNL     1      30.910  43.957  56.380  1.00  0.00    -0.056 A 
HETATM   24  C   UNL     1      30.568  45.875  58.012  1.00  0.00     0.049 C 
HETATM   25  C   UNL     1      32.046  43.412  57.202  1.00  0.00     0.049 C 
HETATM   26  C   UNL     1      30.513  43.274  55.223  1.00  0.00     0.009 A 
HETATM   27  C   UNL     1      29.443  43.732  54.449  1.00  0.00     0.030 A 
ENDBRANCH  17  20
ENDBRANCH  15  16
ENDBRANCH   1  15
TORSDOF 3
ENDMDL
MODEL 3
REMARK VINA RESULT:      -9.2      5.509      8.096
REMARK  3 active torsions:
REMARK  status: ('A' for Active; 'I' for Inactive)
REMARK    1  A    between atoms: C_6  and  N_7 
REMARK       I    between atoms: N_7  and  C_8 
REMARK    2  A    between atoms: C_8  and  C_9 
REMARK    3  A    between atoms: C_9  and  C_10 
ROOT
HETATM    1  C   UNL     1      25.307  43.609  50.281  1.00  0.00     0.286 C 
HETATM    2  N   UNL     1      24.951  42.334  51.058  1.00  0.00    -0.056 N 
HETATM    3  H   UNL     1      24.911  42.599  52.066  1.00  0.00     0.278 HD
HETATM    4  H   UNL     1      23.998  42.027  50.830  1.00  0.00     0.278 HD
HETATM    5  C   UNL     1      25.926  41.197  50.968  1.00  0.00     0.209 C 
HETATM    6  C   UNL     1      27.359  41.720  51.215  1.00  0.00     0.115 C 
HETATM    7  N   UNL     1      27.688  42.847  50.349  1.00  0.00    -0.353 N 
HETATM    8  C   UNL     1      26.816  43.868  50.088  1.00  0.00     0.249 C 
HETATM    9  O   UNL     1      27.235  44.940  49.659  1.00  0.00    -0.271 OA
HETATM   10  C   UNL     1      25.777  40.482  49.626  1.00  0.00     0.035 C 
HETATM   11  C   UNL     1      26.802  39.354  49.504  1.00  0.00     0.002 C 
HETATM   12  C   UNL     1      28.229  39.859  49.717  1.00  0.00     0.002 C 
HETATM   13  C   UNL     1      28.382  40.593  51.049  1.00  0.00     0.027 C 
HETATM   14  H   UNL     1      28.662  43.134  50.275  1.00  0.00     0.163 HD
ENDROOT
BRANCH   1  15
HETATM   15  C   UNL     1      24.678  44.837  50.962  1.00  0.00     0.146 C 
BRANCH  15  16
HETATM   16  C   UNL     1      25.220  44.870  52.372  1.00  0.00     0.224 C 
HETATM   17  N   UNL     1      26.359  45.609  52.546  1.00  0.00    -0.327 N 
HETATM   18  H   UNL     1      26.631  46.263  51.817  1.00  0.00     0.169 HD
HETATM   19  O   UNL     1      24.667  44.138  53.197  1.00  0.00    -0.273 OA
BRANCH  17  20
HETATM   20  C   UNL     1      27.256  45.524  53.636  1.00  0.00     0.035 A 
HETATM   21  C   UNL     1      28.179  44.488  53.805  1.00  0.00     0.037 A 
HETATM   22  C   UNL     1      29.108  44.498  54.862  1.00  0.00    -0.054 A 
HETATM   23  C   UNL     1      29.078  45.548  55.798  1.00  0.00    -0.056 A 
HETATM   24  C   UNL     1      30.096  43.369  54.979  1.00  0.00     0.049 C 
HETATM   25  C   UNL     1      30.047  45.612  56.946  1.00  0.00     0.049 C 
HETATM   26  C   UNL     1      28.149  46.584  55.627  1.00  0.00     0.009 A 
HETATM   27  C   UNL     1      27.251  46.575  54.556  1.00  0.00     0.030 A 
ENDBRANCH  17  20
ENDBRANCH  15  16
ENDBRANCH   1  15
TORSDOF 3
ENDMDL
MODEL 4
REMARK VINA RESULT:      -9.2      5.827      7.504
REMARK  3 active torsions:
REMARK  status: ('A' for Active; 'I' for Inactive)
REMARK    1  A    between atoms: C_6  and  N_7 
REMARK       I    between atoms: N_7  and  C_8 
REMARK    2  A    between atoms: C_8  and  C_9 
REMARK    3  A    between atoms: C_9  and  C_10 
ROOT
HETATM    1  C   UNL     1      27.070  42.681  50.724  1.00  0.00     0.286 C 
HETATM    2  N   UNL     1      25.812  42.702  51.605  1.00  0.00    -0.056 N 
HETATM    3  H   UNL     1      25.792  41.794  52.118  1.00  0.00     0.278 HD
HETATM    4  H   UNL     1      25.898  43.416  52.338  1.00  0.00     0.278 HD
HETATM    5  C   UNL     1      24.495  42.805  50.894  1.00  0.00     0.209 C 
HETATM    6  C   UNL     1      24.449  41.785  49.733  1.00  0.00     0.115 C 
HETATM    7  N   UNL     1      25.605  41.907  48.851  1.00  0.00    -0.353 N 
HETATM    8  C   UNL     1      26.880  42.091  49.312  1.00  0.00     0.249 C 
HETATM    9  O   UNL     1      27.838  41.840  48.585  1.00  0.00    -0.271 OA
HETATM   10  C   UNL     1      24.258  44.242  50.433  1.00  0.00     0.035 C 
HETATM   11  C   UNL     1      22.942  44.347  49.662  1.00  0.00     0.002 C 
HETATM   12  C   UNL     1      22.891  43.365  48.492  1.00  0.00     0.002 C 
HETATM   13  C   UNL     1      23.146  41.926  48.941  1.00  0.00     0.027 C 
HETATM   14  H   UNL     1      25.577  41.438  47.948  1.00  0.00     0.163 HD
ENDROOT
BRANCH   1  15
HETATM   15  C   UNL     1      28.199  41.913  51.433  1.00  0.00     0.146 C 
BRANCH  15  16
HETATM   16  C   UNL     1      28.199  42.381  52.870  1.00  0.00     0.224 C 
HETATM   17  N   UNL     1      28.829  43.575  53.100  1.00  0.00    -0.327 N 
HETATM   18  H   UNL     1      29.038  44.175  52.307  1.00  0.00     0.169 HD
HETATM   19  O   UNL     1      27.750  41.596  53.710  1.00  0.00    -0.273 OA
BRANCH  17  20
HETATM   20  C   UNL     1      29.284  44.057  54.349  1.00  0.00     0.035 A 
HETATM   21  C   UNL     1      30.307  43.457  55.089  1.00  0.00     0.037 A 
HETATM   22  C   UNL     1      30.780  44.029  56.284  1.00  0.00    -0.054 A 
HETATM   23  C   UNL     1      30.179  45.204  56.772  1.00  0.00    -0.056 A 
HETATM   24  C   UNL     1      31.902  43.353  57.025  1.00  0.00     0.049 C 
HETATM   25  C   UNL     1      30.644  45.860  58.043  1.00  0.00     0.049 C 
HETATM   26  C   UNL     1      29.152  45.801  56.029  1.00  0.00     0.009 A 
HETATM   27  C   UNL     1      28.712  45.237  54.828  1.00  0.00     0.030 A 
ENDBRANCH  17  20
ENDBRANCH  15  16
ENDBRANCH   1  15
TORSDOF 3
ENDMDL
MODEL 5
REMARK VINA RESULT:      -8.9      3.386      5.018
REMARK  3 active torsions:
REMARK  status: ('A' for Active; 'I' for Inactive)
REMARK    1  A    between atoms: C_6  and  N_7 
REMARK       I    between atoms: N_7  and  C_8 
REMARK    2  A    between atoms: C_8  and  C_9 
REMARK    3  A    between atoms: C_9  and  C_10 
ROOT
HETATM    1  C   UNL     1      25.698  45.332  50.045  1.00  0.00     0.286 C 
HETATM    2  N   UNL     1      26.115  46.556  50.872  1.00  0.00    -0.056 N 
HETATM    3  H   UNL     1      25.653  46.461  51.802  1.00  0.00     0.278 HD
HETATM    4  H   UNL     1      27.122  46.528  51.076  1.00  0.00     0.278 HD
HETATM    5  C   UNL     1      25.703  47.898  50.341  1.00  0.00     0.209 C 
HETATM    6  C   UNL     1      24.208  47.866  49.950  1.00  0.00     0.115 C 
HETATM    7  N   UNL     1      23.901  46.758  49.052  1.00  0.00    -0.353 N 
HETATM    8  C   UNL     1      24.406  45.498  49.220  1.00  0.00     0.249 C 
HETATM    9  O   UNL     1      23.863  44.540  48.675  1.00  0.00    -0.271 OA
HETATM   10  C   UNL     1      26.613  48.306  49.183  1.00  0.00     0.035 C 
HETATM   11  C   UNL     1      26.168  49.648  48.602  1.00  0.00     0.002 C 
HETATM   12  C   UNL     1      24.699  49.627  48.182  1.00  0.00     0.002 C 
HETATM   13  C   UNL     1      23.783  49.200  49.330  1.00  0.00     0.027 C 
HETATM   14  H   UNL     1      23.005  46.762  48.567  1.00  0.00     0.163 HD
ENDROOT
BRANCH   1  15
HETATM   15  C   UNL     1      25.546  44.103  50.959  1.00  0.00     0.146 C 
BRANCH  15  16
HETATM   16  C   UNL     1      26.896  43.877  51.601  1.00  0.00     0.224 C 
HETATM   17  N   UNL     1      26.885  43.752  52.965  1.00  0.00    -0.327 N 
HETATM   18  H   UNL     1      25.998  43.579  53.430  1.00  0.00     0.169 HD
HETATM   19  O   UNL     1      27.882  43.950  50.862  1.00  0.00    -0.273 OA
BRANCH  17  20
HETATM   20  C   UNL     1      27.995  43.893  53.829  1.00  0.00     0.035 A 
HETATM   21  C   UNL     1      28.100  44.889  54.804  1.00  0.00     0.037 A 
HETATM   22  C   UNL     1      29.188  44.930  55.696  1.00  0.00    -0.054 A 
HETATM   23  C   UNL     1      30.217  43.980  55.574  1.00  0.00    -0.056 A 
HETATM   24  C   UNL     1      29.234  46.010  56.744  1.00  0.00     0.049 C 
HETATM   25  C   UNL     1      31.402  43.974  56.500  1.00  0.00     0.049 C 
HETATM   26  C   UNL     1      30.110  42.985  54.593  1.00  0.00     0.009 A 
HETATM   27  C   UNL     1      29.010  42.938  53.733  1.00  0.00     0.030 A 
ENDBRANCH  17  20
ENDBRANCH  15  16
ENDBRANCH   1  15
TORSDOF 3
ENDMDL
MODEL 6
REMARK VINA RESULT:      -8.4      2.348      8.225
REMARK  3 active torsions:
REMARK  status: ('A' for Active; 'I' for Inactive)
REMARK    1  A    between atoms: C_6  and  N_7 
REMARK       I    between atoms: N_7  and  C_8 
REMARK    2  A    between atoms: C_8  and  C_9 
REMARK    3  A    between atoms: C_9  and  C_10 
ROOT
HETATM    1  C   UNL     1      24.183  49.229  48.640  1.00  0.00     0.286 C 
HETATM    2  N   UNL     1      23.560  48.376  49.754  1.00  0.00    -0.056 N 
HETATM    3  H   UNL     1      23.500  48.986  50.599  1.00  0.00     0.278 HD
HETATM    4  H   UNL     1      22.585  48.145  49.529  1.00  0.00     0.278 HD
HETATM    5  C   UNL     1      24.327  47.158  50.176  1.00  0.00     0.209 C 
HETATM    6  C   UNL     1      25.809  47.529  50.405  1.00  0.00     0.115 C 
HETATM    7  N   UNL     1      26.385  48.217  49.255  1.00  0.00    -0.353 N 
HETATM    8  C   UNL     1      25.723  49.190  48.557  1.00  0.00     0.249 C 
HETATM    9  O   UNL     1      26.350  49.970  47.845  1.00  0.00    -0.271 OA
HETATM   10  C   UNL     1      24.144  46.041  49.150  1.00  0.00     0.035 C 
HETATM   11  C   UNL     1      24.963  44.812  49.545  1.00  0.00     0.002 C 
HETATM   12  C   UNL     1      26.439  45.155  49.747  1.00  0.00     0.002 C 
HETATM   13  C   UNL     1      26.630  46.285  50.759  1.00  0.00     0.027 C 
HETATM   14  H   UNL     1      27.398  48.319  49.208  1.00  0.00     0.163 HD
ENDROOT
BRANCH   1  15
HETATM   15  C   UNL     1      23.733  50.694  48.781  1.00  0.00     0.146 C 
BRANCH  15  16
HETATM   16  C   UNL     1      22.288  50.658  49.218  1.00  0.00     0.224 C 
HETATM   17  N   UNL     1      21.369  50.576  48.206  1.00  0.00    -0.327 N 
HETATM   18  H   UNL     1      21.689  50.309  47.279  1.00  0.00     0.169 HD
HETATM   19  O   UNL     1      22.066  50.831  50.419  1.00  0.00    -0.273 OA
BRANCH  17  20
HETATM   20  C   UNL     1      19.991  50.882  48.296  1.00  0.00     0.035 A 
HETATM   21  C   UNL     1      18.974  49.926  48.216  1.00  0.00     0.037 A 
HETATM   22  C   UNL     1      17.623  50.276  48.400  1.00  0.00    -0.054 A 
HETATM   23  C   UNL     1      17.283  51.622  48.621  1.00  0.00    -0.056 A 
HETATM   24  C   UNL     1      16.574  49.199  48.329  1.00  0.00     0.049 C 
HETATM   25  C   UNL     1      15.856  52.053  48.826  1.00  0.00     0.049 C 
HETATM   26  C   UNL     1      18.304  52.578  48.698  1.00  0.00     0.009 A 
HETATM   27  C   UNL     1      19.644  52.212  48.542  1.00  0.00     0.030 A 
ENDBRANCH  17  20
ENDBRANCH  15  16
ENDBRANCH   1  15
TORSDOF 3
ENDMDL
MODEL 7
REMARK VINA RESULT:      -8.3      7.110      8.780
REMARK  3 active torsions:
REMARK  status: ('A' for Active; 'I' for Inactive)
REMARK    1  A    between atoms: C_6  and  N_7 
REMARK       I    between atoms: N_7  and  C_8 
REMARK    2  A    between atoms: C_8  and  C_9 
REMARK    3  A    between atoms: C_9  and  C_10 
ROOT
HETATM    1  C   UNL     1      25.569  41.486  50.055  1.00  0.00     0.286 C 
HETATM    2  N   UNL     1      26.949  40.841  50.246  1.00  0.00    -0.056 N 
HETATM    3  H   UNL     1      27.597  41.603  50.542  1.00  0.00     0.278 HD
HETATM    4  H   UNL     1      26.935  40.187  51.037  1.00  0.00     0.278 HD
HETATM    5  C   UNL     1      27.574  40.217  49.033  1.00  0.00     0.209 C 
HETATM    6  C   UNL     1      27.481  41.194  47.839  1.00  0.00     0.115 C 
HETATM    7  N   UNL     1      26.118  41.666  47.622  1.00  0.00    -0.353 N 
HETATM    8  C   UNL     1      25.284  42.034  48.641  1.00  0.00     0.249 C 
HETATM    9  O   UNL     1      24.305  42.739  48.410  1.00  0.00    -0.271 OA
HETATM   10  C   UNL     1      26.926  38.863  48.746  1.00  0.00     0.035 C 
HETATM   11  C   UNL     1      27.520  38.243  47.482  1.00  0.00     0.002 C 
HETATM   12  C   UNL     1      27.411  39.184  46.282  1.00  0.00     0.002 C 
HETATM   13  C   UNL     1      28.040  40.549  46.568  1.00  0.00     0.027 C 
HETATM   14  H   UNL     1      25.903  42.140  46.747  1.00  0.00     0.163 HD
ENDROOT
BRANCH   1  15
HETATM   15  C   UNL     1      25.369  42.620  51.075  1.00  0.00     0.146 C 
BRANCH  15  16
HETATM   16  C   UNL     1      26.742  42.978  51.593  1.00  0.00     0.224 C 
HETATM   17  N   UNL     1      26.969  42.682  52.911  1.00  0.00    -0.327 N 
HETATM   18  H   UNL     1      26.329  42.050  53.385  1.00  0.00     0.169 HD
HETATM   19  O   UNL     1      27.479  43.607  50.829  1.00  0.00    -0.273 OA
BRANCH  17  20
HETATM   20  C   UNL     1      27.992  43.218  53.727  1.00  0.00     0.035 A 
HETATM   21  C   UNL     1      27.906  44.454  54.373  1.00  0.00     0.037 A 
HETATM   22  C   UNL     1      28.919  44.899  55.244  1.00  0.00    -0.054 A 
HETATM   23  C   UNL     1      30.064  44.105  55.432  1.00  0.00    -0.056 A 
HETATM   24  C   UNL     1      28.759  46.227  55.933  1.00  0.00     0.049 C 
HETATM   25  C   UNL     1      31.177  44.529  56.352  1.00  0.00     0.049 C 
HETATM   26  C   UNL     1      30.149  42.868  54.781  1.00  0.00     0.009 A 
HETATM   27  C   UNL     1      29.122  42.426  53.941  1.00  0.00     0.030 A 
ENDBRANCH  17  20
ENDBRANCH  15  16
ENDBRANCH   1  15
TORSDOF 3
ENDMDL
MODEL 8
REMARK VINA RESULT:      -8.3      2.070      8.546
REMARK  3 active torsions:
REMARK  status: ('A' for Active; 'I' for Inactive)
REMARK    1  A    between atoms: C_6  and  N_7 
REMARK       I    between atoms: N_7  and  C_8 
REMARK    2  A    between atoms: C_8  and  C_9 
REMARK    3  A    between atoms: C_9  and  C_10 
ROOT
HETATM    1  C   UNL     1      25.980  45.369  50.840  1.00  0.00     0.286 C 
HETATM    2  N   UNL     1      26.387  45.955  52.199  1.00  0.00    -0.056 N 
HETATM    3  H   UNL     1      27.086  46.705  52.003  1.00  0.00     0.278 HD
HETATM    4  H   UNL     1      25.595  46.443  52.633  1.00  0.00     0.278 HD
HETATM    5  C   UNL     1      27.047  45.017  53.165  1.00  0.00     0.209 C 
HETATM    6  C   UNL     1      28.165  44.229  52.445  1.00  0.00     0.115 C 
HETATM    7  N   UNL     1      27.683  43.580  51.231  1.00  0.00    -0.353 N 
HETATM    8  C   UNL     1      26.841  44.189  50.342  1.00  0.00     0.249 C 
HETATM    9  O   UNL     1      26.745  43.761  49.195  1.00  0.00    -0.271 OA
HETATM   10  C   UNL     1      26.003  44.110  53.813  1.00  0.00     0.035 C 
HETATM   11  C   UNL     1      26.672  43.115  54.762  1.00  0.00     0.002 C 
HETATM   12  C   UNL     1      27.761  42.306  54.059  1.00  0.00     0.002 C 
HETATM   13  C   UNL     1      28.801  43.206  53.391  1.00  0.00     0.027 C 
HETATM   14  H   UNL     1      28.269  42.870  50.795  1.00  0.00     0.163 HD
ENDROOT
BRANCH   1  15
HETATM   15  C   UNL     1      25.983  46.470  49.766  1.00  0.00     0.146 C 
BRANCH  15  16
HETATM   16  C   UNL     1      24.759  47.319  50.019  1.00  0.00     0.224 C 
HETATM   17  N   UNL     1      23.931  47.494  48.943  1.00  0.00    -0.327 N 
HETATM   18  H   UNL     1      24.041  46.881  48.140  1.00  0.00     0.169 HD
HETATM   19  O   UNL     1      24.684  47.871  51.120  1.00  0.00    -0.273 OA
BRANCH  17  20
HETATM   20  C   UNL     1      22.947  48.499  48.795  1.00  0.00     0.035 A 
HETATM   21  C   UNL     1      21.577  48.277  48.965  1.00  0.00     0.037 A 
HETATM   22  C   UNL     1      20.649  49.333  48.892  1.00  0.00    -0.054 A 
HETATM   23  C   UNL     1      21.102  50.631  48.596  1.00  0.00    -0.056 A 
HETATM   24  C   UNL     1      19.189  49.039  49.110  1.00  0.00     0.049 C 
HETATM   25  C   UNL     1      20.156  51.797  48.508  1.00  0.00     0.049 C 
HETATM   26  C   UNL     1      22.475  50.849  48.423  1.00  0.00     0.009 A 
HETATM   27  C   UNL     1      23.389  49.796  48.527  1.00  0.00     0.030 A 
ENDBRANCH  17  20
ENDBRANCH  15  16
ENDBRANCH   1  15
TORSDOF 3
ENDMDL
MODEL 9
REMARK VINA RESULT:      -8.1      1.511      2.005
REMARK  3 active torsions:
REMARK  status: ('A' for Active; 'I' for Inactive)
REMARK    1  A    between atoms: C_6  and  N_7 
REMARK       I    between atoms: N_7  and  C_8 
REMARK    2  A    between atoms: C_8  and  C_9 
REMARK    3  A    between atoms: C_9  and  C_10 
ROOT
HETATM    1  C   UNL     1      22.277  47.655  48.392  1.00  0.00     0.286 C 
HETATM    2  N   UNL     1      21.762  48.408  49.626  1.00  0.00    -0.056 N 
HETATM    3  H   UNL     1      21.332  47.694  50.254  1.00  0.00     0.278 HD
HETATM    4  H   UNL     1      22.546  48.793  50.167  1.00  0.00     0.278 HD
HETATM    5  C   UNL     1      20.703  49.443  49.389  1.00  0.00     0.209 C 
HETATM    6  C   UNL     1      19.594  48.855  48.487  1.00  0.00     0.115 C 
HETATM    7  N   UNL     1      20.135  48.275  47.262  1.00  0.00    -0.353 N 
HETATM    8  C   UNL     1      21.267  47.508  47.235  1.00  0.00     0.249 C 
HETATM    9  O   UNL     1      21.485  46.767  46.280  1.00  0.00    -0.271 OA
HETATM   10  C   UNL     1      21.328  50.712  48.813  1.00  0.00     0.035 C 
HETATM   11  C   UNL     1      20.250  51.755  48.519  1.00  0.00     0.002 C 
HETATM   12  C   UNL     1      19.159  51.200  47.604  1.00  0.00     0.002 C 
HETATM   13  C   UNL     1      18.540  49.918  48.163  1.00  0.00     0.027 C 
HETATM   14  H   UNL     1      19.490  48.052  46.506  1.00  0.00     0.163 HD
ENDROOT
BRANCH   1  15
HETATM   15  C   UNL     1      22.774  46.255  48.794  1.00  0.00     0.146 C 
BRANCH  15  16
HETATM   16  C   UNL     1      23.997  46.466  49.656  1.00  0.00     0.224 C 
HETATM   17  N   UNL     1      24.179  45.546  50.654  1.00  0.00    -0.327 N 
HETATM   18  H   UNL     1      23.652  44.677  50.617  1.00  0.00     0.169 HD
HETATM   19  O   UNL     1      24.640  47.501  49.464  1.00  0.00    -0.273 OA
BRANCH  17  20
HETATM   20  C   UNL     1      25.001  45.697  51.795  1.00  0.00     0.035 A 
HETATM   21  C   UNL     1      25.492  44.626  52.547  1.00  0.00     0.037 A 
HETATM   22  C   UNL     1      26.378  44.831  53.622  1.00  0.00    -0.054 A 
HETATM   23  C   UNL     1      26.740  46.142  53.978  1.00  0.00    -0.056 A 
HETATM   24  C   UNL     1      26.896  43.638  54.379  1.00  0.00     0.049 C 
HETATM   25  C   UNL     1      27.684  46.420  55.116  1.00  0.00     0.049 C 
HETATM   26  C   UNL     1      26.243  47.213  53.223  1.00  0.00     0.009 A 
HETATM   27  C   UNL     1      25.386  46.994  52.141  1.00  0.00     0.030 A 
ENDBRANCH  17  20
ENDBRANCH  15  16
ENDBRANCH   1  15
TORSDOF 3
ENDMDL
MODEL 10
REMARK VINA RESULT:      -8.1     11.307     13.552
REMARK  3 active torsions:
REMARK  status: ('A' for Active; 'I' for Inactive)
REMARK    1  A    between atoms: C_6  and  N_7 
REMARK       I    between atoms: N_7  and  C_8 
REMARK    2  A    between atoms: C_8  and  C_9 
REMARK    3  A    between atoms: C_9  and  C_10 
ROOT
HETATM    1  C   UNL     1      29.804  52.850  39.950  1.00  0.00     0.286 C 
HETATM    2  N   UNL     1      30.988  51.976  39.514  1.00  0.00    -0.056 N 
HETATM    3  H   UNL     1      30.621  51.310  38.800  1.00  0.00     0.278 HD
HETATM    4  H   UNL     1      31.687  52.539  39.013  1.00  0.00     0.278 HD
HETATM    5  C   UNL     1      31.628  51.133  40.577  1.00  0.00     0.209 C 
HETATM    6  C   UNL     1      30.536  50.384  41.374  1.00  0.00     0.115 C 
HETATM    7  N   UNL     1      29.509  51.288  41.879  1.00  0.00    -0.353 N 
HETATM    8  C   UNL     1      28.982  52.309  41.138  1.00  0.00     0.249 C 
HETATM    9  O   UNL     1      27.906  52.808  41.455  1.00  0.00    -0.271 OA
HETATM   10  C   UNL     1      32.525  51.995  41.463  1.00  0.00     0.035 C 
HETATM   11  C   UNL     1      33.141  51.153  42.581  1.00  0.00     0.002 C 
HETATM   12  C   UNL     1      32.073  50.428  43.399  1.00  0.00     0.002 C 
HETATM   13  C   UNL     1      31.158  49.577  42.517  1.00  0.00     0.027 C 
HETATM   14  H   UNL     1      28.863  50.942  42.587  1.00  0.00     0.163 HD
ENDROOT
BRANCH   1  15
HETATM   15  C   UNL     1      28.857  53.089  38.761  1.00  0.00     0.146 C 
BRANCH  15  16
HETATM   16  C   UNL     1      28.463  51.724  38.247  1.00  0.00     0.224 C 
HETATM   17  N   UNL     1      27.333  51.188  38.806  1.00  0.00    -0.327 N 
HETATM   18  H   UNL     1      26.712  51.799  39.329  1.00  0.00     0.169 HD
HETATM   19  O   UNL     1      29.250  51.172  37.474  1.00  0.00    -0.273 OA
BRANCH  17  20
HETATM   20  C   UNL     1      26.951  49.827  38.784  1.00  0.00     0.035 A 
HETATM   21  C   UNL     1      27.403  48.876  39.704  1.00  0.00     0.037 A 
HETATM   22  C   UNL     1      26.922  47.554  39.688  1.00  0.00    -0.054 A 
HETATM   23  C   UNL     1      26.002  47.166  38.698  1.00  0.00    -0.056 A 
HETATM   24  C   UNL     1      27.425  46.580  40.720  1.00  0.00     0.049 C 
HETATM   25  C   UNL     1      25.452  45.767  38.634  1.00  0.00     0.049 C 
HETATM   26  C   UNL     1      25.552  48.121  37.776  1.00  0.00     0.009 A 
HETATM   27  C   UNL     1      26.017  49.438  37.821  1.00  0.00     0.030 A 
ENDBRANCH  17  20
ENDBRANCH  15  16
ENDBRANCH   1  15
TORSDOF 3
ENDMDL
