MODEL 1
REMARK VINA RESULT:      -8.7      0.000      0.000
REMARK  7 active torsions:
REMARK  status: ('A' for Active; 'I' for Inactive)
REMARK    1  A    between atoms: C_2  and  N_3 
REMARK    2  A    between atoms: N_3  and  C_4 
REMARK    3  A    between atoms: C_6  and  N_7 
REMARK    4  A    between atoms: N_7  and  C_8 
REMARK    5  A    between atoms: C_8  and  C_9 
REMARK    6  A    between atoms: C_9  and  C_10 
REMARK    7  A    between atoms: C_12  and  O_13 
ROOT
HETATM    1  C   UNL     1      28.318  43.751  53.078  1.00  0.00     0.119 A 
HETATM    2  N   UNL     1      27.183  44.385  52.728  1.00  0.00    -0.207 NA
HETATM    3  C   UNL     1      26.726  45.366  53.522  1.00  0.00     0.181 A 
HETATM    4  N   UNL     1      27.373  45.755  54.617  1.00  0.00    -0.330 N 
HETATM    5  H   UNL     1      26.993  46.546  55.120  1.00  0.00     0.168 HD
HETATM    6  C   UNL     1      28.513  45.173  55.003  1.00  0.00     0.048 A 
HETATM    7  C   UNL     1      29.043  44.123  54.230  1.00  0.00     0.031 A 
HETATM    8  C   UNL     1      29.170  45.618  56.161  1.00  0.00     0.030 A 
HETATM    9  C   UNL     1      30.364  45.019  56.562  1.00  0.00     0.002 A 
HETATM   10  C   UNL     1      30.910  43.985  55.808  1.00  0.00     0.001 A 
HETATM   11  C   UNL     1      30.262  43.542  54.653  1.00  0.00     0.017 A 
ENDROOT
BRANCH   3  12
HETATM   12  N   UNL     1      25.550  46.050  53.230  1.00  0.00    -0.262 NA
HETATM   13  H   UNL     1      24.812  45.443  52.883  1.00  0.00     0.130 HD
BRANCH  12  14
HETATM   14  C   UNL     1      25.725  47.230  52.369  1.00  0.00     0.100 C 
BRANCH  14  15
HETATM   15  C   UNL     1      25.198  46.929  50.961  1.00  0.00     0.053 C 
BRANCH  15  16
HETATM   16  C   UNL     1      25.612  47.987  49.969  1.00  0.00    -0.054 A 
HETATM   17  C   UNL     1      24.650  48.621  49.163  1.00  0.00     0.044 A 
HETATM   18  C   UNL     1      25.033  49.587  48.229  1.00  0.00     0.068 A 
HETATM   19  C   UNL     1      26.385  49.913  48.098  1.00  0.00     0.037 A 
HETATM   20  C   UNL     1      27.346  49.289  48.891  1.00  0.00     0.003 A 
HETATM   21  C   UNL     1      26.962  48.327  49.824  1.00  0.00     0.007 A 
BRANCH  18  22
HETATM   22  O   UNL     1      24.199  50.272  47.390  1.00  0.00    -0.356 OA
HETATM   23  C   UNL     1      22.806  50.216  47.667  1.00  0.00     0.210 C 
ENDBRANCH  18  22
ENDBRANCH  15  16
ENDBRANCH  14  15
ENDBRANCH  12  14
ENDBRANCH   3  12
BRANCH   1  24
HETATM   24  N   UNL     1      28.815  42.747  52.245  1.00  0.00    -0.273 NA
HETATM   25  H   UNL     1      29.810  42.585  52.387  1.00  0.00     0.129 HD
BRANCH  24  26
HETATM   26  C   UNL     1      28.067  41.491  52.111  1.00  0.00     0.053 C 
HETATM   27  C   UNL     1      28.775  40.354  52.848  1.00  0.00     0.026 C 
HETATM   28  C   UNL     1      27.963  41.165  50.621  1.00  0.00     0.026 C 
ENDBRANCH  24  26
ENDBRANCH   1  24
TORSDOF 7
ENDMDL
MODEL 2
REMARK VINA RESULT:      -8.7      2.075      2.905
REMARK  7 active torsions:
REMARK  status: ('A' for Active; 'I' for Inactive)
REMARK    1  A    between atoms: C_2  and  N_3 
REMARK    2  A    between atoms: N_3  and  C_4 
REMARK    3  A    between atoms: C_6  and  N_7 
REMARK    4  A    between atoms: N_7  and  C_8 
REMARK    5  A    between atoms: C_8  and  C_9 
REMARK    6  A    between atoms: C_9  and  C_10 
REMARK    7  A    between atoms: C_12  and  O_13 
ROOT
HETATM    1  C   UNL     1      29.147  44.353  54.620  1.00  0.00     0.119 A 
HETATM    2  N   UNL     1      28.236  45.338  54.513  1.00  0.00    -0.207 NA
HETATM    3  C   UNL     1      28.141  46.234  55.507  1.00  0.00     0.181 A 
HETATM    4  N   UNL     1      28.939  46.204  56.571  1.00  0.00    -0.330 N 
HETATM    5  H   UNL     1      28.844  46.957  57.240  1.00  0.00     0.168 HD
HETATM    6  C   UNL     1      29.874  45.260  56.721  1.00  0.00     0.048 A 
HETATM    7  C   UNL     1      30.018  44.273  55.728  1.00  0.00     0.031 A 
HETATM    8  C   UNL     1      30.701  45.266  57.855  1.00  0.00     0.030 A 
HETATM    9  C   UNL     1      31.683  44.288  58.011  1.00  0.00     0.002 A 
HETATM   10  C   UNL     1      31.848  43.309  57.036  1.00  0.00     0.001 A 
HETATM   11  C   UNL     1      31.030  43.300  55.905  1.00  0.00     0.017 A 
ENDROOT
BRANCH   3  12
HETATM   12  N   UNL     1      27.209  47.266  55.471  1.00  0.00    -0.262 NA
HETATM   13  H   UNL     1      26.350  47.045  55.967  1.00  0.00     0.130 HD
BRANCH  12  14
HETATM   14  C   UNL     1      26.932  47.794  54.125  1.00  0.00     0.100 C 
BRANCH  14  15
HETATM   15  C   UNL     1      25.587  47.254  53.622  1.00  0.00     0.053 C 
BRANCH  15  16
HETATM   16  C   UNL     1      25.689  46.723  52.214  1.00  0.00    -0.054 A 
HETATM   17  C   UNL     1      26.395  47.441  51.233  1.00  0.00     0.044 A 
HETATM   18  C   UNL     1      26.474  46.963  49.923  1.00  0.00     0.068 A 
HETATM   19  C   UNL     1      25.837  45.764  49.593  1.00  0.00     0.037 A 
HETATM   20  C   UNL     1      25.133  45.045  50.559  1.00  0.00     0.003 A 
HETATM   21  C   UNL     1      25.057  45.523  51.866  1.00  0.00     0.007 A 
BRANCH  18  22
HETATM   22  O   UNL     1      27.125  47.565  48.883  1.00  0.00    -0.356 OA
HETATM   23  C   UNL     1      27.741  48.820  49.139  1.00  0.00     0.210 C 
ENDBRANCH  18  22
ENDBRANCH  15  16
ENDBRANCH  14  15
ENDBRANCH  12  14
ENDBRANCH   3  12
BRANCH   1  24
HETATM   24  N   UNL     1      29.271  43.431  53.578  1.00  0.00    -0.273 NA
HETATM   25  H   UNL     1      30.115  42.868  53.659  1.00  0.00     0.129 HD
BRANCH  24  26
HETATM   26  C   UNL     1      28.106  42.624  53.195  1.00  0.00     0.053 C 
HETATM   27  C   UNL     1      28.364  41.139  53.453  1.00  0.00     0.026 C 
HETATM   28  C   UNL     1      27.843  42.859  51.707  1.00  0.00     0.026 C 
ENDBRANCH  24  26
ENDBRANCH   1  24
TORSDOF 7
ENDMDL
MODEL 3
REMARK VINA RESULT:      -8.6      2.644      3.612
REMARK  7 active torsions:
REMARK  status: ('A' for Active; 'I' for Inactive)
REMARK    1  A    between atoms: C_2  and  N_3 
REMARK    2  A    between atoms: N_3  and  C_4 
REMARK    3  A    between atoms: C_6  and  N_7 
REMARK    4  A    between atoms: N_7  and  C_8 
REMARK    5  A    between atoms: C_8  and  C_9 
REMARK    6  A    between atoms: C_9  and  C_10 
REMARK    7  A    between atoms: C_12  and  O_13 
ROOT
HETATM    1  C   UNL     1      29.198  44.272  54.527  1.00  0.00     0.119 A 
HETATM    2  N   UNL     1      28.287  45.238  54.303  1.00  0.00    -0.207 NA
HETATM    3  C   UNL     1      28.132  46.199  55.226  1.00  0.00     0.181 A 
HETATM    4  N   UNL     1      28.872  46.250  56.332  1.00  0.00    -0.330 N 
HETATM    5  H   UNL     1      28.735  47.046  56.940  1.00  0.00     0.168 HD
HETATM    6  C   UNL     1      29.802  45.329  56.597  1.00  0.00     0.048 A 
HETATM    7  C   UNL     1      30.007  44.278  55.683  1.00  0.00     0.031 A 
HETATM    8  C   UNL     1      30.567  45.422  57.770  1.00  0.00     0.030 A 
HETATM    9  C   UNL     1      31.545  44.467  58.046  1.00  0.00     0.002 A 
HETATM   10  C   UNL     1      31.770  43.425  57.152  1.00  0.00     0.001 A 
HETATM   11  C   UNL     1      31.014  43.330  55.981  1.00  0.00     0.017 A 
ENDROOT
BRANCH   3  12
HETATM   12  N   UNL     1      27.196  47.216  55.068  1.00  0.00    -0.262 NA
HETATM   13  H   UNL     1      26.933  47.655  55.946  1.00  0.00     0.130 HD
BRANCH  12  14
HETATM   14  C   UNL     1      26.014  46.843  54.276  1.00  0.00     0.100 C 
BRANCH  14  15
HETATM   15  C   UNL     1      26.158  47.376  52.845  1.00  0.00     0.053 C 
BRANCH  15  16
HETATM   16  C   UNL     1      25.359  46.559  51.861  1.00  0.00    -0.054 A 
HETATM   17  C   UNL     1      25.118  45.195  52.099  1.00  0.00     0.044 A 
HETATM   18  C   UNL     1      24.395  44.431  51.179  1.00  0.00     0.068 A 
HETATM   19  C   UNL     1      23.918  45.035  50.014  1.00  0.00     0.037 A 
HETATM   20  C   UNL     1      24.153  46.387  49.767  1.00  0.00     0.003 A 
HETATM   21  C   UNL     1      24.873  47.148  50.687  1.00  0.00     0.007 A 
BRANCH  18  22
HETATM   22  O   UNL     1      24.096  43.102  51.294  1.00  0.00    -0.356 OA
HETATM   23  C   UNL     1      24.591  42.233  50.285  1.00  0.00     0.210 C 
ENDBRANCH  18  22
ENDBRANCH  15  16
ENDBRANCH  14  15
ENDBRANCH  12  14
ENDBRANCH   3  12
BRANCH   1  24
HETATM   24  N   UNL     1      29.384  43.283  53.560  1.00  0.00    -0.273 NA
HETATM   25  H   UNL     1      30.200  42.705  53.750  1.00  0.00     0.129 HD
BRANCH  24  26
HETATM   26  C   UNL     1      28.233  42.482  53.124  1.00  0.00     0.053 C 
HETATM   27  C   UNL     1      28.509  40.989  53.304  1.00  0.00     0.026 C 
HETATM   28  C   UNL     1      27.980  42.792  51.647  1.00  0.00     0.026 C 
ENDBRANCH  24  26
ENDBRANCH   1  24
TORSDOF 7
ENDMDL
MODEL 4
REMARK VINA RESULT:      -8.6      2.335      5.055
REMARK  7 active torsions:
REMARK  status: ('A' for Active; 'I' for Inactive)
REMARK    1  A    between atoms: C_2  and  N_3 
REMARK    2  A    between atoms: N_3  and  C_4 
REMARK    3  A    between atoms: C_6  and  N_7 
REMARK    4  A    between atoms: N_7  and  C_8 
REMARK    5  A    between atoms: C_8  and  C_9 
REMARK    6  A    between atoms: C_9  and  C_10 
REMARK    7  A    between atoms: C_12  and  O_13 
ROOT
HETATM    1  C   UNL     1      29.275  44.339  55.007  1.00  0.00     0.119 A 
HETATM    2  N   UNL     1      29.019  43.100  54.547  1.00  0.00    -0.207 NA
HETATM    3  C   UNL     1      27.861  42.880  53.907  1.00  0.00     0.181 A 
HETATM    4  N   UNL     1      26.979  43.850  53.679  1.00  0.00    -0.330 N 
HETATM    5  H   UNL     1      26.163  43.611  53.130  1.00  0.00     0.168 HD
HETATM    6  C   UNL     1      27.188  45.102  54.096  1.00  0.00     0.048 A 
HETATM    7  C   UNL     1      28.373  45.403  54.794  1.00  0.00     0.031 A 
HETATM    8  C   UNL     1      26.237  46.098  53.830  1.00  0.00     0.030 A 
HETATM    9  C   UNL     1      26.456  47.407  54.257  1.00  0.00     0.002 A 
HETATM   10  C   UNL     1      27.624  47.729  54.940  1.00  0.00     0.001 A 
HETATM   11  C   UNL     1      28.576  46.742  55.204  1.00  0.00     0.017 A 
ENDROOT
BRANCH   3  12
HETATM   12  N   UNL     1      27.524  41.620  53.423  1.00  0.00    -0.262 NA
HETATM   13  H   UNL     1      27.767  40.869  54.064  1.00  0.00     0.130 HD
BRANCH  12  14
HETATM   14  C   UNL     1      28.002  41.339  52.060  1.00  0.00     0.100 C 
BRANCH  14  15
HETATM   15  C   UNL     1      26.807  41.211  51.106  1.00  0.00     0.053 C 
BRANCH  15  16
HETATM   16  C   UNL     1      26.237  42.557  50.740  1.00  0.00    -0.054 A 
HETATM   17  C   UNL     1      27.066  43.558  50.202  1.00  0.00     0.044 A 
HETATM   18  C   UNL     1      26.544  44.814  49.881  1.00  0.00     0.068 A 
HETATM   19  C   UNL     1      25.190  45.070  50.104  1.00  0.00     0.037 A 
HETATM   20  C   UNL     1      24.360  44.085  50.638  1.00  0.00     0.003 A 
HETATM   21  C   UNL     1      24.881  42.832  50.957  1.00  0.00     0.007 A 
BRANCH  18  22
HETATM   22  O   UNL     1      27.243  45.866  49.356  1.00  0.00    -0.356 OA
HETATM   23  C   UNL     1      26.746  47.172  49.614  1.00  0.00     0.210 C 
ENDBRANCH  18  22
ENDBRANCH  15  16
ENDBRANCH  14  15
ENDBRANCH  12  14
ENDBRANCH   3  12
BRANCH   1  24
HETATM   24  N   UNL     1      30.490  44.583  55.651  1.00  0.00    -0.273 NA
HETATM   25  H   UNL     1      30.820  45.534  55.506  1.00  0.00     0.129 HD
BRANCH  24  26
HETATM   26  C   UNL     1      30.661  44.148  57.043  1.00  0.00     0.053 C 
HETATM   27  C   UNL     1      30.733  45.350  57.984  1.00  0.00     0.026 C 
HETATM   28  C   UNL     1      31.958  43.342  57.125  1.00  0.00     0.026 C 
ENDBRANCH  24  26
ENDBRANCH   1  24
TORSDOF 7
ENDMDL
MODEL 5
REMARK VINA RESULT:      -8.5      3.223      5.043
REMARK  7 active torsions:
REMARK  status: ('A' for Active; 'I' for Inactive)
REMARK    1  A    between atoms: C_2  and  N_3 
REMARK    2  A    between atoms: N_3  and  C_4 
REMARK    3  A    between atoms: C_6  and  N_7 
REMARK    4  A    between atoms: N_7  and  C_8 
REMARK    5  A    between atoms: C_8  and  C_9 
REMARK    6  A    between atoms: C_9  and  C_10 
REMARK    7  A    between atoms: C_12  and  O_13 
ROOT
HETATM    1  C   UNL     1      28.666  44.975  54.654  1.00  0.00     0.119 A 
HETATM    2  N   UNL     1      28.716  44.098  53.634  1.00  0.00    -0.207 NA
HETATM    3  C   UNL     1      29.660  43.145  53.653  1.00  0.00     0.181 A 
HETATM    4  N   UNL     1      30.520  43.015  54.661  1.00  0.00    -0.330 N 
HETATM    5  H   UNL     1      31.154  42.228  54.626  1.00  0.00     0.168 HD
HETATM    6  C   UNL     1      30.504  43.845  55.708  1.00  0.00     0.048 A 
HETATM    7  C   UNL     1      29.555  44.883  55.747  1.00  0.00     0.031 A 
HETATM    8  C   UNL     1      31.423  43.671  56.754  1.00  0.00     0.030 A 
HETATM    9  C   UNL     1      31.405  44.529  57.853  1.00  0.00     0.002 A 
HETATM   10  C   UNL     1      30.468  45.556  57.916  1.00  0.00     0.001 A 
HETATM   11  C   UNL     1      29.550  45.732  56.879  1.00  0.00     0.017 A 
ENDROOT
BRANCH   3  12
HETATM   12  N   UNL     1      29.781  42.219  52.622  1.00  0.00    -0.262 NA
HETATM   13  H   UNL     1      30.129  42.627  51.759  1.00  0.00     0.130 HD
BRANCH  12  14
HETATM   14  C   UNL     1      28.578  41.405  52.386  1.00  0.00     0.100 C 
BRANCH  14  15
HETATM   15  C   UNL     1      28.141  41.537  50.921  1.00  0.00     0.053 C 
BRANCH  15  16
HETATM   16  C   UNL     1      27.075  42.589  50.749  1.00  0.00    -0.054 A 
HETATM   17  C   UNL     1      25.719  42.265  50.932  1.00  0.00     0.044 A 
HETATM   18  C   UNL     1      24.727  43.232  50.752  1.00  0.00     0.068 A 
HETATM   19  C   UNL     1      25.095  44.527  50.381  1.00  0.00     0.037 A 
HETATM   20  C   UNL     1      26.436  44.859  50.195  1.00  0.00     0.003 A 
HETATM   21  C   UNL     1      27.424  43.893  50.376  1.00  0.00     0.007 A 
BRANCH  18  22
HETATM   22  O   UNL     1      23.381  43.043  50.899  1.00  0.00    -0.356 OA
HETATM   23  C   UNL     1      22.528  43.662  49.946  1.00  0.00     0.210 C 
ENDBRANCH  18  22
ENDBRANCH  15  16
ENDBRANCH  14  15
ENDBRANCH  12  14
ENDBRANCH   3  12
BRANCH   1  24
HETATM   24  N   UNL     1      27.671  45.954  54.656  1.00  0.00    -0.273 NA
HETATM   25  H   UNL     1      28.053  46.894  54.736  1.00  0.00     0.129 HD
BRANCH  24  26
HETATM   26  C   UNL     1      26.595  45.882  53.659  1.00  0.00     0.053 C 
HETATM   27  C   UNL     1      26.039  47.273  53.356  1.00  0.00     0.026 C 
HETATM   28  C   UNL     1      25.490  44.989  54.226  1.00  0.00     0.026 C 
ENDBRANCH  24  26
ENDBRANCH   1  24
TORSDOF 7
ENDMDL
MODEL 6
REMARK VINA RESULT:      -8.2      2.921      7.547
REMARK  7 active torsions:
REMARK  status: ('A' for Active; 'I' for Inactive)
REMARK    1  A    between atoms: C_2  and  N_3 
REMARK    2  A    between atoms: N_3  and  C_4 
REMARK    3  A    between atoms: C_6  and  N_7 
REMARK    4  A    between atoms: N_7  and  C_8 
REMARK    5  A    between atoms: C_8  and  C_9 
REMARK    6  A    between atoms: C_9  and  C_10 
REMARK    7  A    between atoms: C_12  and  O_13 
ROOT
HETATM    1  C   UNL     1      24.930  47.182  51.093  1.00  0.00     0.119 A 
HETATM    2  N   UNL     1      25.354  47.535  52.320  1.00  0.00    -0.207 NA
HETATM    3  C   UNL     1      25.605  46.568  53.216  1.00  0.00     0.181 A 
HETATM    4  N   UNL     1      25.487  45.276  52.919  1.00  0.00    -0.330 N 
HETATM    5  H   UNL     1      25.761  44.613  53.632  1.00  0.00     0.168 HD
HETATM    6  C   UNL     1      25.088  44.867  51.711  1.00  0.00     0.048 A 
HETATM    7  C   UNL     1      24.786  45.826  50.726  1.00  0.00     0.031 A 
HETATM    8  C   UNL     1      24.982  43.495  51.435  1.00  0.00     0.030 A 
HETATM    9  C   UNL     1      24.575  43.064  50.173  1.00  0.00     0.002 A 
HETATM   10  C   UNL     1      24.280  43.995  49.182  1.00  0.00     0.001 A 
HETATM   11  C   UNL     1      24.387  45.362  49.451  1.00  0.00     0.017 A 
ENDROOT
BRANCH   3  12
HETATM   12  N   UNL     1      26.027  46.863  54.508  1.00  0.00    -0.262 NA
HETATM   13  H   UNL     1      25.450  47.564  54.965  1.00  0.00     0.130 HD
BRANCH  12  14
HETATM   14  C   UNL     1      27.459  47.182  54.627  1.00  0.00     0.100 C 
BRANCH  14  15
HETATM   15  C   UNL     1      28.014  46.597  55.931  1.00  0.00     0.053 C 
BRANCH  15  16
HETATM   16  C   UNL     1      28.960  45.452  55.673  1.00  0.00    -0.054 A 
HETATM   17  C   UNL     1      28.625  44.448  54.747  1.00  0.00     0.044 A 
HETATM   18  C   UNL     1      29.490  43.374  54.521  1.00  0.00     0.068 A 
HETATM   19  C   UNL     1      30.692  43.303  55.229  1.00  0.00     0.037 A 
HETATM   20  C   UNL     1      31.032  44.292  56.151  1.00  0.00     0.003 A 
HETATM   21  C   UNL     1      30.169  45.364  56.374  1.00  0.00     0.007 A 
BRANCH  18  22
HETATM   22  O   UNL     1      29.280  42.340  53.652  1.00  0.00    -0.356 OA
HETATM   23  C   UNL     1      28.358  42.555  52.593  1.00  0.00     0.210 C 
ENDBRANCH  18  22
ENDBRANCH  15  16
ENDBRANCH  14  15
ENDBRANCH  12  14
ENDBRANCH   3  12
BRANCH   1  24
HETATM   24  N   UNL     1      24.691  48.181  50.147  1.00  0.00    -0.273 NA
HETATM   25  H   UNL     1      24.353  49.042  50.572  1.00  0.00     0.129 HD
BRANCH  24  26
HETATM   26  C   UNL     1      25.696  48.438  49.108  1.00  0.00     0.053 C 
HETATM   27  C   UNL     1      27.099  48.496  49.710  1.00  0.00     0.026 C 
HETATM   28  C   UNL     1      25.354  49.774  48.446  1.00  0.00     0.026 C 
ENDBRANCH  24  26
ENDBRANCH   1  24
TORSDOF 7
ENDMDL
MODEL 7
REMARK VINA RESULT:      -8.1      1.970      4.548
REMARK  7 active torsions:
REMARK  status: ('A' for Active; 'I' for Inactive)
REMARK    1  A    between atoms: C_2  and  N_3 
REMARK    2  A    between atoms: N_3  and  C_4 
REMARK    3  A    between atoms: C_6  and  N_7 
REMARK    4  A    between atoms: N_7  and  C_8 
REMARK    5  A    between atoms: C_8  and  C_9 
REMARK    6  A    between atoms: C_9  and  C_10 
REMARK    7  A    between atoms: C_12  and  O_13 
ROOT
HETATM    1  C   UNL     1      28.434  45.292  55.170  1.00  0.00     0.119 A 
HETATM    2  N   UNL     1      28.342  44.611  54.012  1.00  0.00    -0.207 NA
HETATM    3  C   UNL     1      29.275  43.688  53.734  1.00  0.00     0.181 A 
HETATM    4  N   UNL     1      30.261  43.397  54.579  1.00  0.00    -0.330 N 
HETATM    5  H   UNL     1      30.881  42.641  54.320  1.00  0.00     0.168 HD
HETATM    6  C   UNL     1      30.391  44.027  55.750  1.00  0.00     0.048 A 
HETATM    7  C   UNL     1      29.461  45.024  56.100  1.00  0.00     0.031 A 
HETATM    8  C   UNL     1      31.442  43.687  56.617  1.00  0.00     0.030 A 
HETATM    9  C   UNL     1      31.576  44.336  57.844  1.00  0.00     0.002 A 
HETATM   10  C   UNL     1      30.662  45.318  58.214  1.00  0.00     0.001 A 
HETATM   11  C   UNL     1      29.613  45.658  57.356  1.00  0.00     0.017 A 
ENDROOT
BRANCH   3  12
HETATM   12  N   UNL     1      29.251  42.962  52.548  1.00  0.00    -0.262 NA
HETATM   13  H   UNL     1      29.684  43.454  51.771  1.00  0.00     0.130 HD
BRANCH  12  14
HETATM   14  C   UNL     1      27.928  42.432  52.180  1.00  0.00     0.100 C 
BRANCH  14  15
HETATM   15  C   UNL     1      27.591  42.832  50.738  1.00  0.00     0.053 C 
BRANCH  15  16
HETATM   16  C   UNL     1      26.586  43.954  50.689  1.00  0.00    -0.054 A 
HETATM   17  C   UNL     1      26.838  45.102  49.917  1.00  0.00     0.044 A 
HETATM   18  C   UNL     1      25.918  46.153  49.885  1.00  0.00     0.068 A 
HETATM   19  C   UNL     1      24.744  46.056  50.635  1.00  0.00     0.037 A 
HETATM   20  C   UNL     1      24.485  44.923  51.406  1.00  0.00     0.003 A 
HETATM   21  C   UNL     1      25.403  43.875  51.434  1.00  0.00     0.007 A 
BRANCH  18  22
HETATM   22  O   UNL     1      26.047  47.316  49.179  1.00  0.00    -0.356 OA
HETATM   23  C   UNL     1      26.967  48.279  49.673  1.00  0.00     0.210 C 
ENDBRANCH  18  22
ENDBRANCH  15  16
ENDBRANCH  14  15
ENDBRANCH  12  14
ENDBRANCH   3  12
BRANCH   1  24
HETATM   24  N   UNL     1      27.453  46.236  55.478  1.00  0.00    -0.273 NA
HETATM   25  H   UNL     1      27.373  46.396  56.480  1.00  0.00     0.129 HD
BRANCH  24  26
HETATM   26  C   UNL     1      27.402  47.490  54.716  1.00  0.00     0.053 C 
HETATM   27  C   UNL     1      26.766  48.605  55.545  1.00  0.00     0.026 C 
HETATM   28  C   UNL     1      26.573  47.237  53.455  1.00  0.00     0.026 C 
ENDBRANCH  24  26
ENDBRANCH   1  24
TORSDOF 7
ENDMDL
MODEL 8
REMARK VINA RESULT:      -8.1      4.205      7.782
REMARK  7 active torsions:
REMARK  status: ('A' for Active; 'I' for Inactive)
REMARK    1  A    between atoms: C_2  and  N_3 
REMARK    2  A    between atoms: N_3  and  C_4 
REMARK    3  A    between atoms: C_6  and  N_7 
REMARK    4  A    between atoms: N_7  and  C_8 
REMARK    5  A    between atoms: C_8  and  C_9 
REMARK    6  A    between atoms: C_9  and  C_10 
REMARK    7  A    between atoms: C_12  and  O_13 
ROOT
HETATM    1  C   UNL     1      28.428  45.002  54.951  1.00  0.00     0.119 A 
HETATM    2  N   UNL     1      28.571  44.180  53.895  1.00  0.00    -0.207 NA
HETATM    3  C   UNL     1      29.645  43.377  53.848  1.00  0.00     0.181 A 
HETATM    4  N   UNL     1      30.549  43.340  54.824  1.00  0.00    -0.330 N 
HETATM    5  H   UNL     1      31.291  42.658  54.739  1.00  0.00     0.168 HD
HETATM    6  C   UNL     1      30.449  44.122  55.903  1.00  0.00     0.048 A 
HETATM    7  C   UNL     1      29.358  45.005  56.012  1.00  0.00     0.031 A 
HETATM    8  C   UNL     1      31.419  44.049  56.914  1.00  0.00     0.030 A 
HETATM    9  C   UNL     1      31.313  44.856  58.046  1.00  0.00     0.002 A 
HETATM   10  C   UNL     1      30.239  45.729  58.179  1.00  0.00     0.001 A 
HETATM   11  C   UNL     1      29.268  45.803  57.176  1.00  0.00     0.017 A 
ENDROOT
BRANCH   3  12
HETATM   12  N   UNL     1      29.865  42.516  52.778  1.00  0.00    -0.262 NA
HETATM   13  H   UNL     1      30.044  43.004  51.904  1.00  0.00     0.130 HD
BRANCH  12  14
HETATM   14  C   UNL     1      28.841  41.473  52.610  1.00  0.00     0.100 C 
BRANCH  14  15
HETATM   15  C   UNL     1      28.236  41.558  51.203  1.00  0.00     0.053 C 
BRANCH  15  16
HETATM   16  C   UNL     1      28.314  40.238  50.479  1.00  0.00    -0.054 A 
HETATM   17  C   UNL     1      29.220  39.249  50.899  1.00  0.00     0.044 A 
HETATM   18  C   UNL     1      29.309  38.032  50.218  1.00  0.00     0.068 A 
HETATM   19  C   UNL     1      28.492  37.810  49.107  1.00  0.00     0.037 A 
HETATM   20  C   UNL     1      27.591  38.785  48.681  1.00  0.00     0.003 A 
HETATM   21  C   UNL     1      27.502  39.997  49.364  1.00  0.00     0.007 A 
BRANCH  18  22
HETATM   22  O   UNL     1      30.146  36.996  50.525  1.00  0.00    -0.356 OA
HETATM   23  C   UNL     1      29.965  36.363  51.784  1.00  0.00     0.210 C 
ENDBRANCH  18  22
ENDBRANCH  15  16
ENDBRANCH  14  15
ENDBRANCH  12  14
ENDBRANCH   3  12
BRANCH   1  24
HETATM   24  N   UNL     1      27.300  45.822  55.021  1.00  0.00    -0.273 NA
HETATM   25  H   UNL     1      26.910  45.863  55.960  1.00  0.00     0.129 HD
BRANCH  24  26
HETATM   26  C   UNL     1      27.334  47.143  54.381  1.00  0.00     0.053 C 
HETATM   27  C   UNL     1      26.892  48.233  55.358  1.00  0.00     0.026 C 
HETATM   28  C   UNL     1      26.391  47.105  53.177  1.00  0.00     0.026 C 
ENDBRANCH  24  26
ENDBRANCH   1  24
TORSDOF 7
ENDMDL
MODEL 9
REMARK VINA RESULT:      -8.0      2.972      8.211
REMARK  7 active torsions:
REMARK  status: ('A' for Active; 'I' for Inactive)
REMARK    1  A    between atoms: C_2  and  N_3 
REMARK    2  A    between atoms: N_3  and  C_4 
REMARK    3  A    between atoms: C_6  and  N_7 
REMARK    4  A    between atoms: N_7  and  C_8 
REMARK    5  A    between atoms: C_8  and  C_9 
REMARK    6  A    between atoms: C_9  and  C_10 
REMARK    7  A    between atoms: C_12  and  O_13 
ROOT
HETATM    1  C   UNL     1      23.996  47.409  49.631  1.00  0.00     0.119 A 
HETATM    2  N   UNL     1      24.257  46.230  50.227  1.00  0.00    -0.207 NA
HETATM    3  C   UNL     1      25.538  45.882  50.426  1.00  0.00     0.181 A 
HETATM    4  N   UNL     1      26.552  46.677  50.091  1.00  0.00    -0.330 N 
HETATM    5  H   UNL     1      27.482  46.366  50.339  1.00  0.00     0.168 HD
HETATM    6  C   UNL     1      26.351  47.865  49.514  1.00  0.00     0.048 A 
HETATM    7  C   UNL     1      25.033  48.288  49.255  1.00  0.00     0.031 A 
HETATM    8  C   UNL     1      27.446  48.678  49.182  1.00  0.00     0.030 A 
HETATM    9  C   UNL     1      27.240  49.922  48.588  1.00  0.00     0.002 A 
HETATM   10  C   UNL     1      25.946  50.364  48.331  1.00  0.00     0.001 A 
HETATM   11  C   UNL     1      24.852  49.560  48.663  1.00  0.00     0.017 A 
ENDROOT
BRANCH   3  12
HETATM   12  N   UNL     1      25.880  44.671  51.018  1.00  0.00    -0.262 NA
HETATM   13  H   UNL     1      25.490  44.559  51.950  1.00  0.00     0.130 HD
BRANCH  12  14
HETATM   14  C   UNL     1      27.318  44.361  50.995  1.00  0.00     0.100 C 
BRANCH  14  15
HETATM   15  C   UNL     1      27.590  43.096  51.818  1.00  0.00     0.053 C 
BRANCH  15  16
HETATM   16  C   UNL     1      28.469  43.381  53.010  1.00  0.00    -0.054 A 
HETATM   17  C   UNL     1      28.092  44.352  53.955  1.00  0.00     0.044 A 
HETATM   18  C   UNL     1      28.913  44.633  55.050  1.00  0.00     0.068 A 
HETATM   19  C   UNL     1      30.120  43.945  55.193  1.00  0.00     0.037 A 
HETATM   20  C   UNL     1      30.504  42.982  54.261  1.00  0.00     0.003 A 
HETATM   21  C   UNL     1      29.682  42.701  53.171  1.00  0.00     0.007 A 
BRANCH  18  22
HETATM   22  O   UNL     1      28.661  45.550  56.032  1.00  0.00    -0.356 OA
HETATM   23  C   UNL     1      29.757  45.961  56.837  1.00  0.00     0.210 C 
ENDBRANCH  18  22
ENDBRANCH  15  16
ENDBRANCH  14  15
ENDBRANCH  12  14
ENDBRANCH   3  12
BRANCH   1  24
HETATM   24  N   UNL     1      22.666  47.790  49.443  1.00  0.00    -0.273 NA
HETATM   25  H   UNL     1      22.482  48.730  49.788  1.00  0.00     0.129 HD
BRANCH  24  26
HETATM   26  C   UNL     1      22.028  47.546  48.144  1.00  0.00     0.053 C 
HETATM   27  C   UNL     1      21.270  48.784  47.668  1.00  0.00     0.026 C 
HETATM   28  C   UNL     1      21.061  46.372  48.311  1.00  0.00     0.026 C 
ENDBRANCH  24  26
ENDBRANCH   1  24
TORSDOF 7
ENDMDL
MODEL 10
REMARK VINA RESULT:      -8.0      3.558      8.697
REMARK  7 active torsions:
REMARK  status: ('A' for Active; 'I' for Inactive)
REMARK    1  A    between atoms: C_2  and  N_3 
REMARK    2  A    between atoms: N_3  and  C_4 
REMARK    3  A    between atoms: C_6  and  N_7 
REMARK    4  A    between atoms: N_7  and  C_8 
REMARK    5  A    between atoms: C_8  and  C_9 
REMARK    6  A    between atoms: C_9  and  C_10 
REMARK    7  A    between atoms: C_12  and  O_13 
ROOT
HETATM    1  C   UNL     1      23.984  47.534  49.607  1.00  0.00     0.119 A 
HETATM    2  N   UNL     1      24.793  47.928  50.608  1.00  0.00    -0.207 NA
HETATM    3  C   UNL     1      25.216  47.009  51.490  1.00  0.00     0.181 A 
HETATM    4  N   UNL     1      24.895  45.722  51.386  1.00  0.00    -0.330 N 
HETATM    5  H   UNL     1      25.312  45.088  52.054  1.00  0.00     0.168 HD
HETATM    6  C   UNL     1      24.110  45.272  50.402  1.00  0.00     0.048 A 
HETATM    7  C   UNL     1      23.612  46.182  49.451  1.00  0.00     0.031 A 
HETATM    8  C   UNL     1      23.800  43.905  50.322  1.00  0.00     0.030 A 
HETATM    9  C   UNL     1      22.989  43.431  49.292  1.00  0.00     0.002 A 
HETATM   10  C   UNL     1      22.493  44.311  48.336  1.00  0.00     0.001 A 
HETATM   11  C   UNL     1      22.802  45.672  48.409  1.00  0.00     0.017 A 
ENDROOT
BRANCH   3  12
HETATM   12  N   UNL     1      26.038  47.350  52.559  1.00  0.00    -0.262 NA
HETATM   13  H   UNL     1      26.897  47.811  52.270  1.00  0.00     0.130 HD
BRANCH  12  14
HETATM   14  C   UNL     1      26.307  46.252  53.501  1.00  0.00     0.100 C 
BRANCH  14  15
HETATM   15  C   UNL     1      27.410  46.667  54.482  1.00  0.00     0.053 C 
BRANCH  15  16
HETATM   16  C   UNL     1      28.392  45.548  54.726  1.00  0.00    -0.054 A 
HETATM   17  C   UNL     1      29.281  45.608  55.814  1.00  0.00     0.044 A 
HETATM   18  C   UNL     1      30.205  44.583  56.031  1.00  0.00     0.068 A 
HETATM   19  C   UNL     1      30.244  43.499  55.152  1.00  0.00     0.037 A 
HETATM   20  C   UNL     1      29.368  43.431  54.069  1.00  0.00     0.003 A 
HETATM   21  C   UNL     1      28.444  44.453  53.855  1.00  0.00     0.007 A 
BRANCH  18  22
HETATM   22  O   UNL     1      31.119  44.524  57.047  1.00  0.00    -0.356 OA
HETATM   23  C   UNL     1      31.896  43.340  57.157  1.00  0.00     0.210 C 
ENDBRANCH  18  22
ENDBRANCH  15  16
ENDBRANCH  14  15
ENDBRANCH  12  14
ENDBRANCH   3  12
BRANCH   1  24
HETATM   24  N   UNL     1      23.561  48.478  48.670  1.00  0.00    -0.273 NA
HETATM   25  H   UNL     1      23.334  48.057  47.772  1.00  0.00     0.129 HD
BRANCH  24  26
HETATM   26  C   UNL     1      22.573  49.489  49.068  1.00  0.00     0.053 C 
HETATM   27  C   UNL     1      21.254  49.284  48.325  1.00  0.00     0.026 C 
HETATM   28  C   UNL     1      23.152  50.866  48.736  1.00  0.00     0.026 C 
ENDBRANCH  24  26
ENDBRANCH   1  24
TORSDOF 7
ENDMDL
