MODEL 1
REMARK VINA RESULT:      -9.7      0.000      0.000
REMARK  6 active torsions:
REMARK  status: ('A' for Active; 'I' for Inactive)
REMARK    1  A    between atoms: C_3  and  N_4 
REMARK       I    between atoms: N_4  and  C_5 
REMARK    2  A    between atoms: C_5  and  C_6 
REMARK    3  A    between atoms: C_6  and  C_7 
REMARK    4  A    between atoms: C_7  and  N_8 
REMARK    5  A    between atoms: C_13  and  C_14 
REMARK    6  A    between atoms: C_17  and  O_18 
ROOT
HETATM    1  N   UNL     1      27.724  42.737  52.064  1.00  0.00    -0.305 N 
HETATM    2  C   UNL     1      27.216  41.555  51.580  1.00  0.00     0.196 A 
HETATM    3  S   UNL     1      26.597  41.191  50.088  1.00  0.00    -0.039 SA
HETATM    4  N   UNL     1      27.335  40.630  52.600  1.00  0.00    -0.251 N 
HETATM    5  N   UNL     1      27.894  41.202  53.699  1.00  0.00    -0.153 NA
HETATM    6  C   UNL     1      28.093  42.444  53.355  1.00  0.00     0.162 A 
HETATM    7  H   UNL     1      27.064  39.654  52.579  1.00  0.00     0.191 HD
ENDROOT
BRANCH   1   8
HETATM    8  C   UNL     1      27.890  43.994  51.317  1.00  0.00     0.142 C 
BRANCH   8   9
HETATM    9  C   UNL     1      26.677  44.910  51.422  1.00  0.00     0.123 C 
BRANCH   9  10
HETATM   10  C   UNL     1      26.543  45.881  50.268  1.00  0.00     0.223 C 
HETATM   11  N   UNL     1      25.975  47.092  50.612  1.00  0.00    -0.327 N 
HETATM   12  H   UNL     1      26.188  47.431  51.545  1.00  0.00     0.169 HD
HETATM   13  O   UNL     1      26.906  45.553  49.142  1.00  0.00    -0.273 OA
BRANCH  11  14
HETATM   14  C   UNL     1      25.533  48.076  49.697  1.00  0.00     0.042 A 
HETATM   15  C   UNL     1      26.378  48.994  49.042  1.00  0.00    -0.035 A 
HETATM   16  C   UNL     1      27.878  49.005  49.168  1.00  0.00     0.050 C 
HETATM   17  C   UNL     1      25.805  49.944  48.170  1.00  0.00     0.010 A 
HETATM   18  C   UNL     1      24.438  49.951  47.906  1.00  0.00     0.020 A 
HETATM   19  C   UNL     1      23.625  49.001  48.507  1.00  0.00     0.013 A 
HETATM   20  C   UNL     1      24.164  48.063  49.386  1.00  0.00     0.049 A 
HETATM   21 BR   UNL     1      21.770  48.986  48.141  1.00  0.00    -0.051 Br
ENDBRANCH  11  14
ENDBRANCH   9  10
ENDBRANCH   8   9
ENDBRANCH   1   8
BRANCH   6  22
HETATM   22  C   UNL     1      28.705  43.416  54.276  1.00  0.00     0.012 A 
HETATM   23  C   UNL     1      30.009  43.171  54.718  1.00  0.00     0.018 A 
HETATM   24  C   UNL     1      30.620  44.057  55.608  1.00  0.00     0.037 A 
HETATM   25  C   UNL     1      29.940  45.186  56.069  1.00  0.00     0.068 A 
HETATM   26  C   UNL     1      28.628  45.413  55.648  1.00  0.00     0.037 A 
HETATM   27  C   UNL     1      28.006  44.522  54.763  1.00  0.00     0.018 A 
BRANCH  25  28
HETATM   28  O   UNL     1      30.654  45.968  56.933  1.00  0.00    -0.356 OA
HETATM   29  C   UNL     1      30.574  45.645  58.316  1.00  0.00     0.210 C 
ENDBRANCH  25  28
ENDBRANCH   6  22
TORSDOF 6
ENDMDL
MODEL 2
REMARK VINA RESULT:      -8.6      4.014      9.376
REMARK  6 active torsions:
REMARK  status: ('A' for Active; 'I' for Inactive)
REMARK    1  A    between atoms: C_3  and  N_4 
REMARK       I    between atoms: N_4  and  C_5 
REMARK    2  A    between atoms: C_5  and  C_6 
REMARK    3  A    between atoms: C_6  and  C_7 
REMARK    4  A    between atoms: C_7  and  N_8 
REMARK    5  A    between atoms: C_13  and  C_14 
REMARK    6  A    between atoms: C_17  and  O_18 
ROOT
HETATM    1  N   UNL     1      24.908  48.839  49.179  1.00  0.00    -0.305 N 
HETATM    2  C   UNL     1      26.143  49.203  48.696  1.00  0.00     0.196 A 
HETATM    3  S   UNL     1      27.656  48.724  49.166  1.00  0.00    -0.039 SA
HETATM    4  N   UNL     1      25.912  50.080  47.652  1.00  0.00    -0.251 N 
HETATM    5  N   UNL     1      24.578  50.273  47.479  1.00  0.00    -0.153 NA
HETATM    6  C   UNL     1      24.019  49.543  48.404  1.00  0.00     0.162 A 
HETATM    7  H   UNL     1      26.604  50.534  47.067  1.00  0.00     0.191 HD
ENDROOT
BRANCH   1   8
HETATM    8  C   UNL     1      24.634  47.856  50.240  1.00  0.00     0.142 C 
BRANCH   8   9
HETATM    9  C   UNL     1      24.786  46.416  49.766  1.00  0.00     0.123 C 
BRANCH   9  10
HETATM   10  C   UNL     1      25.898  45.658  50.461  1.00  0.00     0.223 C 
HETATM   11  N   UNL     1      25.659  45.404  51.797  1.00  0.00    -0.327 N 
HETATM   12  H   UNL     1      24.691  45.238  52.050  1.00  0.00     0.169 HD
HETATM   13  O   UNL     1      26.909  45.343  49.839  1.00  0.00    -0.273 OA
BRANCH  11  14
HETATM   14  C   UNL     1      26.617  44.922  52.720  1.00  0.00     0.042 A 
HETATM   15  C   UNL     1      27.168  45.683  53.770  1.00  0.00    -0.035 A 
HETATM   16  C   UNL     1      26.756  47.092  54.103  1.00  0.00     0.050 C 
HETATM   17  C   UNL     1      28.137  45.089  54.606  1.00  0.00     0.010 A 
HETATM   18  C   UNL     1      28.511  43.757  54.446  1.00  0.00     0.020 A 
HETATM   19  C   UNL     1      27.915  42.999  53.448  1.00  0.00     0.013 A 
HETATM   20  C   UNL     1      26.969  43.568  52.598  1.00  0.00     0.049 A 
HETATM   21 BR   UNL     1      28.399  41.184  53.233  1.00  0.00    -0.051 Br
ENDBRANCH  11  14
ENDBRANCH   9  10
ENDBRANCH   8   9
ENDBRANCH   1   8
BRANCH   6  22
HETATM   22  C   UNL     1      22.556  49.465  48.552  1.00  0.00     0.012 A 
HETATM   23  C   UNL     1      21.923  50.431  49.339  1.00  0.00     0.018 A 
HETATM   24  C   UNL     1      20.539  50.382  49.522  1.00  0.00     0.037 A 
HETATM   25  C   UNL     1      19.778  49.371  48.932  1.00  0.00     0.068 A 
HETATM   26  C   UNL     1      20.417  48.391  48.169  1.00  0.00     0.037 A 
HETATM   27  C   UNL     1      21.806  48.429  47.990  1.00  0.00     0.018 A 
BRANCH  25  28
HETATM   28  O   UNL     1      18.438  49.442  49.191  1.00  0.00    -0.356 OA
HETATM   29  C   UNL     1      17.959  50.633  49.803  1.00  0.00     0.210 C 
ENDBRANCH  25  28
ENDBRANCH   6  22
TORSDOF 6
ENDMDL
MODEL 3
REMARK VINA RESULT:      -8.5      3.858      9.336
REMARK  6 active torsions:
REMARK  status: ('A' for Active; 'I' for Inactive)
REMARK    1  A    between atoms: C_3  and  N_4 
REMARK       I    between atoms: N_4  and  C_5 
REMARK    2  A    between atoms: C_5  and  C_6 
REMARK    3  A    between atoms: C_6  and  C_7 
REMARK    4  A    between atoms: C_7  and  N_8 
REMARK    5  A    between atoms: C_13  and  C_14 
REMARK    6  A    between atoms: C_17  and  O_18 
ROOT
HETATM    1  N   UNL     1      24.957  48.537  49.210  1.00  0.00    -0.305 N 
HETATM    2  C   UNL     1      26.081  49.179  48.744  1.00  0.00     0.196 A 
HETATM    3  S   UNL     1      27.669  49.004  49.180  1.00  0.00    -0.039 SA
HETATM    4  N   UNL     1      25.655  50.044  47.753  1.00  0.00    -0.251 N 
HETATM    5  N   UNL     1      24.307  49.962  47.596  1.00  0.00    -0.153 NA
HETATM    6  C   UNL     1      23.929  49.081  48.480  1.00  0.00     0.162 A 
HETATM    7  H   UNL     1      26.226  50.665  47.193  1.00  0.00     0.191 HD
ENDROOT
BRANCH   1   8
HETATM    8  C   UNL     1      24.913  47.462  50.214  1.00  0.00     0.142 C 
BRANCH   8   9
HETATM    9  C   UNL     1      25.170  46.084  49.617  1.00  0.00     0.123 C 
BRANCH   9  10
HETATM   10  C   UNL     1      26.313  45.338  50.272  1.00  0.00     0.223 C 
HETATM   11  N   UNL     1      25.999  44.789  51.500  1.00  0.00    -0.327 N 
HETATM   12  H   UNL     1      25.045  44.460  51.607  1.00  0.00     0.169 HD
HETATM   13  O   UNL     1      27.407  45.279  49.718  1.00  0.00    -0.273 OA
BRANCH  11  14
HETATM   14  C   UNL     1      26.932  44.244  52.413  1.00  0.00     0.042 A 
HETATM   15  C   UNL     1      27.421  42.924  52.363  1.00  0.00    -0.035 A 
HETATM   16  C   UNL     1      27.076  41.932  51.285  1.00  0.00     0.050 C 
HETATM   17  C   UNL     1      28.331  42.497  53.353  1.00  0.00     0.010 A 
HETATM   18  C   UNL     1      28.793  43.370  54.335  1.00  0.00     0.020 A 
HETATM   19  C   UNL     1      28.355  44.686  54.336  1.00  0.00     0.013 A 
HETATM   20  C   UNL     1      27.441  45.127  53.379  1.00  0.00     0.049 A 
HETATM   21 BR   UNL     1      28.989  45.887  55.650  1.00  0.00    -0.051 Br
ENDBRANCH  11  14
ENDBRANCH   9  10
ENDBRANCH   8   9
ENDBRANCH   1   8
BRANCH   6  22
HETATM   22  C   UNL     1      22.517  48.689  48.629  1.00  0.00     0.012 A 
HETATM   23  C   UNL     1      22.087  47.526  47.983  1.00  0.00     0.018 A 
HETATM   24  C   UNL     1      20.752  47.128  48.081  1.00  0.00     0.037 A 
HETATM   25  C   UNL     1      19.836  47.884  48.815  1.00  0.00     0.068 A 
HETATM   26  C   UNL     1      20.262  49.060  49.436  1.00  0.00     0.037 A 
HETATM   27  C   UNL     1      21.598  49.470  49.333  1.00  0.00     0.018 A 
BRANCH  25  28
HETATM   28  O   UNL     1      18.565  47.381  48.830  1.00  0.00    -0.356 OA
HETATM   29  C   UNL     1      17.605  48.024  48.002  1.00  0.00     0.210 C 
ENDBRANCH  25  28
ENDBRANCH   6  22
TORSDOF 6
ENDMDL
MODEL 4
REMARK VINA RESULT:      -8.4      3.494      7.863
REMARK  6 active torsions:
REMARK  status: ('A' for Active; 'I' for Inactive)
REMARK    1  A    between atoms: C_3  and  N_4 
REMARK       I    between atoms: N_4  and  C_5 
REMARK    2  A    between atoms: C_5  and  C_6 
REMARK    3  A    between atoms: C_6  and  C_7 
REMARK    4  A    between atoms: C_7  and  N_8 
REMARK    5  A    between atoms: C_13  and  C_14 
REMARK    6  A    between atoms: C_17  and  O_18 
ROOT
HETATM    1  N   UNL     1      25.907  43.554  51.051  1.00  0.00    -0.305 N 
HETATM    2  C   UNL     1      26.675  42.440  50.804  1.00  0.00     0.196 A 
HETATM    3  S   UNL     1      26.924  41.089  51.727  1.00  0.00    -0.039 SA
HETATM    4  N   UNL     1      27.232  42.620  49.551  1.00  0.00    -0.251 N 
HETATM    5  N   UNL     1      26.839  43.808  49.020  1.00  0.00    -0.153 NA
HETATM    6  C   UNL     1      26.076  44.338  49.936  1.00  0.00     0.162 A 
HETATM    7  H   UNL     1      27.847  41.985  49.055  1.00  0.00     0.191 HD
ENDROOT
BRANCH   1   8
HETATM    8  C   UNL     1      25.050  43.787  52.224  1.00  0.00     0.142 C 
BRANCH   8   9
HETATM    9  C   UNL     1      25.548  44.926  53.105  1.00  0.00     0.123 C 
BRANCH   9  10
HETATM   10  C   UNL     1      26.525  44.488  54.176  1.00  0.00     0.223 C 
HETATM   11  N   UNL     1      27.782  45.046  54.056  1.00  0.00    -0.327 N 
HETATM   12  H   UNL     1      27.814  45.991  53.691  1.00  0.00     0.169 HD
HETATM   13  O   UNL     1      26.174  43.687  55.039  1.00  0.00    -0.273 OA
BRANCH  11  14
HETATM   14  C   UNL     1      28.929  44.637  54.778  1.00  0.00     0.042 A 
HETATM   15  C   UNL     1      29.810  43.617  54.367  1.00  0.00    -0.035 A 
HETATM   16  C   UNL     1      29.695  42.873  53.064  1.00  0.00     0.050 C 
HETATM   17  C   UNL     1      30.904  43.288  55.194  1.00  0.00     0.010 A 
HETATM   18  C   UNL     1      31.156  43.988  56.371  1.00  0.00     0.020 A 
HETATM   19  C   UNL     1      30.319  45.034  56.734  1.00  0.00     0.013 A 
HETATM   20  C   UNL     1      29.220  45.366  55.942  1.00  0.00     0.049 A 
HETATM   21 BR   UNL     1      30.662  46.006  58.319  1.00  0.00    -0.051 Br
ENDBRANCH  11  14
ENDBRANCH   9  10
ENDBRANCH   8   9
ENDBRANCH   1   8
BRANCH   6  22
HETATM   22  C   UNL     1      25.427  45.646  49.743  1.00  0.00     0.012 A 
HETATM   23  C   UNL     1      24.072  45.662  49.399  1.00  0.00     0.018 A 
HETATM   24  C   UNL     1      23.423  46.880  49.187  1.00  0.00     0.037 A 
HETATM   25  C   UNL     1      24.115  48.087  49.309  1.00  0.00     0.068 A 
HETATM   26  C   UNL     1      25.475  48.066  49.625  1.00  0.00     0.037 A 
HETATM   27  C   UNL     1      26.134  46.847  49.828  1.00  0.00     0.018 A 
BRANCH  25  28
HETATM   28  O   UNL     1      23.360  49.203  49.077  1.00  0.00    -0.356 OA
HETATM   29  C   UNL     1      24.032  50.343  48.557  1.00  0.00     0.210 C 
ENDBRANCH  25  28
ENDBRANCH   6  22
TORSDOF 6
ENDMDL
MODEL 5
REMARK VINA RESULT:      -8.1      2.381      3.259
REMARK  6 active torsions:
REMARK  status: ('A' for Active; 'I' for Inactive)
REMARK    1  A    between atoms: C_3  and  N_4 
REMARK       I    between atoms: N_4  and  C_5 
REMARK    2  A    between atoms: C_5  and  C_6 
REMARK    3  A    between atoms: C_6  and  C_7 
REMARK    4  A    between atoms: C_7  and  N_8 
REMARK    5  A    between atoms: C_13  and  C_14 
REMARK    6  A    between atoms: C_17  and  O_18 
ROOT
HETATM    1  N   UNL     1      25.300  44.309  50.121  1.00  0.00    -0.305 N 
HETATM    2  C   UNL     1      24.102  43.930  49.563  1.00  0.00     0.196 A 
HETATM    3  S   UNL     1      23.432  44.326  48.102  1.00  0.00    -0.039 SA
HETATM    4  N   UNL     1      23.501  43.075  50.469  1.00  0.00    -0.251 N 
HETATM    5  N   UNL     1      24.286  42.917  51.567  1.00  0.00    -0.153 NA
HETATM    6  C   UNL     1      25.325  43.670  51.337  1.00  0.00     0.162 A 
HETATM    7  H   UNL     1      22.609  42.604  50.370  1.00  0.00     0.191 HD
ENDROOT
BRANCH   1   8
HETATM    8  C   UNL     1      26.333  45.150  49.496  1.00  0.00     0.142 C 
BRANCH   8   9
HETATM    9  C   UNL     1      26.581  46.446  50.257  1.00  0.00     0.123 C 
BRANCH   9  10
HETATM   10  C   UNL     1      25.368  47.349  50.338  1.00  0.00     0.223 C 
HETATM   11  N   UNL     1      24.813  47.662  49.113  1.00  0.00    -0.327 N 
HETATM   12  H   UNL     1      24.865  46.937  48.406  1.00  0.00     0.169 HD
HETATM   13  O   UNL     1      24.972  47.751  51.429  1.00  0.00    -0.273 OA
BRANCH  11  14
HETATM   14  C   UNL     1      23.829  48.654  48.892  1.00  0.00     0.042 A 
HETATM   15  C   UNL     1      24.087  49.927  48.345  1.00  0.00    -0.035 A 
HETATM   16  C   UNL     1      25.433  50.380  47.849  1.00  0.00     0.050 C 
HETATM   17  C   UNL     1      23.017  50.835  48.201  1.00  0.00     0.010 A 
HETATM   18  C   UNL     1      21.714  50.476  48.535  1.00  0.00     0.020 A 
HETATM   19  C   UNL     1      21.461  49.198  49.012  1.00  0.00     0.013 A 
HETATM   20  C   UNL     1      22.505  48.288  49.181  1.00  0.00     0.049 A 
HETATM   21 BR   UNL     1      19.694  48.690  49.450  1.00  0.00    -0.051 Br
ENDBRANCH  11  14
ENDBRANCH   9  10
ENDBRANCH   8   9
ENDBRANCH   1   8
BRANCH   6  22
HETATM   22  C   UNL     1      26.437  43.772  52.297  1.00  0.00     0.012 A 
HETATM   23  C   UNL     1      26.255  44.569  53.431  1.00  0.00     0.018 A 
HETATM   24  C   UNL     1      27.292  44.709  54.357  1.00  0.00     0.037 A 
HETATM   25  C   UNL     1      28.515  44.065  54.159  1.00  0.00     0.068 A 
HETATM   26  C   UNL     1      28.703  43.292  53.012  1.00  0.00     0.037 A 
HETATM   27  C   UNL     1      27.671  43.156  52.074  1.00  0.00     0.018 A 
BRANCH  25  28
HETATM   28  O   UNL     1      29.440  44.285  55.142  1.00  0.00    -0.356 OA
HETATM   29  C   UNL     1      30.483  43.328  55.275  1.00  0.00     0.210 C 
ENDBRANCH  25  28
ENDBRANCH   6  22
TORSDOF 6
ENDMDL
MODEL 6
REMARK VINA RESULT:      -8.1     12.615     14.320
REMARK  6 active torsions:
REMARK  status: ('A' for Active; 'I' for Inactive)
REMARK    1  A    between atoms: C_3  and  N_4 
REMARK       I    between atoms: N_4  and  C_5 
REMARK    2  A    between atoms: C_5  and  C_6 
REMARK    3  A    between atoms: C_6  and  C_7 
REMARK    4  A    between atoms: C_7  and  N_8 
REMARK    5  A    between atoms: C_13  and  C_14 
REMARK    6  A    between atoms: C_17  and  O_18 
ROOT
HETATM    1  N   UNL     1      27.061  48.314  40.066  1.00  0.00    -0.305 N 
HETATM    2  C   UNL     1      26.029  47.481  39.703  1.00  0.00     0.196 A 
HETATM    3  S   UNL     1      25.887  45.837  39.839  1.00  0.00    -0.039 SA
HETATM    4  N   UNL     1      25.033  48.291  39.191  1.00  0.00    -0.251 N 
HETATM    5  N   UNL     1      25.417  49.595  39.221  1.00  0.00    -0.153 NA
HETATM    6  C   UNL     1      26.620  49.569  39.724  1.00  0.00     0.162 A 
HETATM    7  H   UNL     1      24.128  48.003  38.837  1.00  0.00     0.191 HD
ENDROOT
BRANCH   1   8
HETATM    8  C   UNL     1      28.311  47.923  40.737  1.00  0.00     0.142 C 
BRANCH   8   9
HETATM    9  C   UNL     1      29.425  47.576  39.758  1.00  0.00     0.123 C 
BRANCH   9  10
HETATM   10  C   UNL     1      30.758  48.210  40.098  1.00  0.00     0.223 C 
HETATM   11  N   UNL     1      30.713  49.584  40.226  1.00  0.00    -0.327 N 
HETATM   12  H   UNL     1      29.853  49.965  40.607  1.00  0.00     0.169 HD
HETATM   13  O   UNL     1      31.760  47.510  40.215  1.00  0.00    -0.273 OA
BRANCH  11  14
HETATM   14  C   UNL     1      31.842  50.433  40.313  1.00  0.00     0.042 A 
HETATM   15  C   UNL     1      32.419  51.108  39.219  1.00  0.00    -0.035 A 
HETATM   16  C   UNL     1      31.868  51.080  37.819  1.00  0.00     0.050 C 
HETATM   17  C   UNL     1      33.562  51.905  39.438  1.00  0.00     0.010 A 
HETATM   18  C   UNL     1      34.089  52.080  40.715  1.00  0.00     0.020 A 
HETATM   19  C   UNL     1      33.473  51.462  41.794  1.00  0.00     0.013 A 
HETATM   20  C   UNL     1      32.354  50.654  41.602  1.00  0.00     0.049 A 
HETATM   21 BR   UNL     1      34.166  51.706  43.537  1.00  0.00    -0.051 Br
ENDBRANCH  11  14
ENDBRANCH   9  10
ENDBRANCH   8   9
ENDBRANCH   1   8
BRANCH   6  22
HETATM   22  C   UNL     1      27.398  50.801  39.938  1.00  0.00     0.012 A 
HETATM   23  C   UNL     1      27.952  51.431  38.819  1.00  0.00     0.018 A 
HETATM   24  C   UNL     1      28.713  52.591  38.980  1.00  0.00     0.037 A 
HETATM   25  C   UNL     1      28.934  53.128  40.250  1.00  0.00     0.068 A 
HETATM   26  C   UNL     1      28.403  52.481  41.367  1.00  0.00     0.037 A 
HETATM   27  C   UNL     1      27.647  51.311  41.214  1.00  0.00     0.018 A 
BRANCH  25  28
HETATM   28  O   UNL     1      29.694  54.264  40.263  1.00  0.00    -0.356 OA
HETATM   29  C   UNL     1      31.006  54.159  40.802  1.00  0.00     0.210 C 
ENDBRANCH  25  28
ENDBRANCH   6  22
TORSDOF 6
ENDMDL
MODEL 7
REMARK VINA RESULT:      -8.0     12.595     15.249
REMARK  6 active torsions:
REMARK  status: ('A' for Active; 'I' for Inactive)
REMARK    1  A    between atoms: C_3  and  N_4 
REMARK       I    between atoms: N_4  and  C_5 
REMARK    2  A    between atoms: C_5  and  C_6 
REMARK    3  A    between atoms: C_6  and  C_7 
REMARK    4  A    between atoms: C_7  and  N_8 
REMARK    5  A    between atoms: C_13  and  C_14 
REMARK    6  A    between atoms: C_17  and  O_18 
ROOT
HETATM    1  N   UNL     1      34.207  51.685  40.709  1.00  0.00    -0.305 N 
HETATM    2  C   UNL     1      35.510  52.117  40.635  1.00  0.00     0.196 A 
HETATM    3  S   UNL     1      36.827  51.701  41.549  1.00  0.00    -0.039 SA
HETATM    4  N   UNL     1      35.568  53.004  39.576  1.00  0.00    -0.251 N 
HETATM    5  N   UNL     1      34.345  53.137  38.998  1.00  0.00    -0.153 NA
HETATM    6  C   UNL     1      33.566  52.362  39.701  1.00  0.00     0.162 A 
HETATM    7  H   UNL     1      36.383  53.503  39.237  1.00  0.00     0.191 HD
ENDROOT
BRANCH   1   8
HETATM    8  C   UNL     1      33.670  50.668  41.627  1.00  0.00     0.142 C 
BRANCH   8   9
HETATM    9  C   UNL     1      34.142  49.259  41.292  1.00  0.00     0.123 C 
BRANCH   9  10
HETATM   10  C   UNL     1      33.015  48.271  41.079  1.00  0.00     0.223 C 
HETATM   11  N   UNL     1      31.939  48.783  40.381  1.00  0.00    -0.327 N 
HETATM   12  H   UNL     1      32.160  49.469  39.667  1.00  0.00     0.169 HD
HETATM   13  O   UNL     1      33.101  47.131  41.529  1.00  0.00    -0.273 OA
BRANCH  11  14
HETATM   14  C   UNL     1      30.679  48.153  40.245  1.00  0.00     0.042 A 
HETATM   15  C   UNL     1      29.532  48.492  40.990  1.00  0.00    -0.035 A 
HETATM   16  C   UNL     1      29.469  49.622  41.981  1.00  0.00     0.050 C 
HETATM   17  C   UNL     1      28.342  47.766  40.776  1.00  0.00     0.010 A 
HETATM   18  C   UNL     1      28.269  46.768  39.807  1.00  0.00     0.020 A 
HETATM   19  C   UNL     1      29.386  46.487  39.034  1.00  0.00     0.013 A 
HETATM   20  C   UNL     1      30.580  47.178  39.240  1.00  0.00     0.049 A 
HETATM   21 BR   UNL     1      29.295  45.149  37.702  1.00  0.00    -0.051 Br
ENDBRANCH  11  14
ENDBRANCH   9  10
ENDBRANCH   8   9
ENDBRANCH   1   8
BRANCH   6  22
HETATM   22  C   UNL     1      32.135  52.211  39.387  1.00  0.00     0.012 A 
HETATM   23  C   UNL     1      31.209  52.824  40.236  1.00  0.00     0.018 A 
HETATM   24  C   UNL     1      29.841  52.689  39.986  1.00  0.00     0.037 A 
HETATM   25  C   UNL     1      29.386  51.941  38.899  1.00  0.00     0.068 A 
HETATM   26  C   UNL     1      30.313  51.306  38.070  1.00  0.00     0.037 A 
HETATM   27  C   UNL     1      31.686  51.429  38.321  1.00  0.00     0.018 A 
BRANCH  25  28
HETATM   28  O   UNL     1      28.026  51.892  38.770  1.00  0.00    -0.356 OA
HETATM   29  C   UNL     1      27.451  50.632  38.450  1.00  0.00     0.210 C 
ENDBRANCH  25  28
ENDBRANCH   6  22
TORSDOF 6
ENDMDL
MODEL 8
REMARK VINA RESULT:      -8.0      3.666      7.542
REMARK  6 active torsions:
REMARK  status: ('A' for Active; 'I' for Inactive)
REMARK    1  A    between atoms: C_3  and  N_4 
REMARK       I    between atoms: N_4  and  C_5 
REMARK    2  A    between atoms: C_5  and  C_6 
REMARK    3  A    between atoms: C_6  and  C_7 
REMARK    4  A    between atoms: C_7  and  N_8 
REMARK    5  A    between atoms: C_13  and  C_14 
REMARK    6  A    between atoms: C_17  and  O_18 
ROOT
HETATM    1  N   UNL     1      27.268  42.402  50.299  1.00  0.00    -0.305 N 
HETATM    2  C   UNL     1      27.457  41.173  49.711  1.00  0.00     0.196 A 
HETATM    3  S   UNL     1      28.263  39.837  50.264  1.00  0.00    -0.039 SA
HETATM    4  N   UNL     1      26.793  41.213  48.499  1.00  0.00    -0.251 N 
HETATM    5  N   UNL     1      26.206  42.425  48.317  1.00  0.00    -0.153 NA
HETATM    6  C   UNL     1      26.521  43.104  49.385  1.00  0.00     0.162 A 
HETATM    7  H   UNL     1      26.720  40.470  47.813  1.00  0.00     0.191 HD
ENDROOT
BRANCH   1   8
HETATM    8  C   UNL     1      27.717  42.812  51.639  1.00  0.00     0.142 C 
BRANCH   8   9
HETATM    9  C   UNL     1      26.567  43.230  52.546  1.00  0.00     0.123 C 
BRANCH   9  10
HETATM   10  C   UNL     1      27.010  43.719  53.909  1.00  0.00     0.223 C 
HETATM   11  N   UNL     1      28.138  44.516  53.884  1.00  0.00    -0.327 N 
HETATM   12  H   UNL     1      28.242  45.110  53.068  1.00  0.00     0.169 HD
HETATM   13  O   UNL     1      26.390  43.384  54.915  1.00  0.00    -0.273 OA
BRANCH  11  14
HETATM   14  C   UNL     1      28.883  44.911  55.020  1.00  0.00     0.042 A 
HETATM   15  C   UNL     1      28.638  46.080  55.768  1.00  0.00    -0.035 A 
HETATM   16  C   UNL     1      27.501  47.031  55.507  1.00  0.00     0.050 C 
HETATM   17  C   UNL     1      29.474  46.373  56.866  1.00  0.00     0.010 A 
HETATM   18  C   UNL     1      30.491  45.504  57.252  1.00  0.00     0.020 A 
HETATM   19  C   UNL     1      30.681  44.324  56.548  1.00  0.00     0.013 A 
HETATM   20  C   UNL     1      29.880  44.021  55.447  1.00  0.00     0.049 A 
HETATM   21 BR   UNL     1      32.045  43.125  57.074  1.00  0.00    -0.051 Br
ENDBRANCH  11  14
ENDBRANCH   9  10
ENDBRANCH   8   9
ENDBRANCH   1   8
BRANCH   6  22
HETATM   22  C   UNL     1      26.062  44.488  49.588  1.00  0.00     0.012 A 
HETATM   23  C   UNL     1      24.685  44.718  49.672  1.00  0.00     0.018 A 
HETATM   24  C   UNL     1      24.206  46.018  49.844  1.00  0.00     0.037 A 
HETATM   25  C   UNL     1      25.088  47.097  49.928  1.00  0.00     0.068 A 
HETATM   26  C   UNL     1      26.461  46.868  49.815  1.00  0.00     0.037 A 
HETATM   27  C   UNL     1      26.948  45.567  49.632  1.00  0.00     0.018 A 
BRANCH  25  28
HETATM   28  O   UNL     1      24.487  48.313  50.098  1.00  0.00    -0.356 OA
HETATM   29  C   UNL     1      23.283  48.546  49.377  1.00  0.00     0.210 C 
ENDBRANCH  25  28
ENDBRANCH   6  22
TORSDOF 6
ENDMDL
MODEL 9
REMARK VINA RESULT:      -7.8      4.466      7.268
REMARK  6 active torsions:
REMARK  status: ('A' for Active; 'I' for Inactive)
REMARK    1  A    between atoms: C_3  and  N_4 
REMARK       I    between atoms: N_4  and  C_5 
REMARK    2  A    between atoms: C_5  and  C_6 
REMARK    3  A    between atoms: C_6  and  C_7 
REMARK    4  A    between atoms: C_7  and  N_8 
REMARK    5  A    between atoms: C_13  and  C_14 
REMARK    6  A    between atoms: C_17  and  O_18 
ROOT
HETATM    1  N   UNL     1      24.813  43.859  49.251  1.00  0.00    -0.305 N 
HETATM    2  C   UNL     1      23.875  44.471  48.453  1.00  0.00     0.196 A 
HETATM    3  S   UNL     1      23.129  45.940  48.618  1.00  0.00    -0.039 SA
HETATM    4  N   UNL     1      23.651  43.619  47.388  1.00  0.00    -0.251 N 
HETATM    5  N   UNL     1      24.413  42.500  47.504  1.00  0.00    -0.153 NA
HETATM    6  C   UNL     1      25.070  42.667  48.619  1.00  0.00     0.162 A 
HETATM    7  H   UNL     1      23.022  43.765  46.607  1.00  0.00     0.191 HD
ENDROOT
BRANCH   1   8
HETATM    8  C   UNL     1      25.435  44.417  50.462  1.00  0.00     0.142 C 
BRANCH   8   9
HETATM    9  C   UNL     1      24.510  44.384  51.672  1.00  0.00     0.123 C 
BRANCH   9  10
HETATM   10  C   UNL     1      25.212  44.658  52.986  1.00  0.00     0.223 C 
HETATM   11  N   UNL     1      26.384  45.378  52.861  1.00  0.00    -0.327 N 
HETATM   12  H   UNL     1      26.402  46.068  52.117  1.00  0.00     0.169 HD
HETATM   13  O   UNL     1      24.740  44.232  54.037  1.00  0.00    -0.273 OA
BRANCH  11  14
HETATM   14  C   UNL     1      27.337  45.571  53.889  1.00  0.00     0.042 A 
HETATM   15  C   UNL     1      27.350  46.672  54.769  1.00  0.00    -0.035 A 
HETATM   16  C   UNL     1      26.305  47.755  54.787  1.00  0.00     0.050 C 
HETATM   17  C   UNL     1      28.373  46.758  55.735  1.00  0.00     0.010 A 
HETATM   18  C   UNL     1      29.329  45.754  55.869  1.00  0.00     0.020 A 
HETATM   19  C   UNL     1      29.268  44.643  55.039  1.00  0.00     0.013 A 
HETATM   20  C   UNL     1      28.276  44.543  54.063  1.00  0.00     0.049 A 
HETATM   21 BR   UNL     1      30.546  43.262  55.222  1.00  0.00    -0.051 Br
ENDBRANCH  11  14
ENDBRANCH   9  10
ENDBRANCH   8   9
ENDBRANCH   1   8
BRANCH   6  22
HETATM   22  C   UNL     1      26.033  41.666  49.109  1.00  0.00     0.012 A 
HETATM   23  C   UNL     1      27.222  41.493  48.394  1.00  0.00     0.018 A 
HETATM   24  C   UNL     1      28.153  40.541  48.813  1.00  0.00     0.037 A 
HETATM   25  C   UNL     1      27.907  39.751  49.938  1.00  0.00     0.068 A 
HETATM   26  C   UNL     1      26.707  39.907  50.634  1.00  0.00     0.037 A 
HETATM   27  C   UNL     1      25.763  40.853  50.212  1.00  0.00     0.018 A 
BRANCH  25  28
HETATM   28  O   UNL     1      28.901  38.861  50.238  1.00  0.00    -0.356 OA
HETATM   29  C   UNL     1      29.410  38.075  49.168  1.00  0.00     0.210 C 
ENDBRANCH  25  28
ENDBRANCH   6  22
TORSDOF 6
ENDMDL
MODEL 10
REMARK VINA RESULT:      -7.8      8.098     11.213
REMARK  6 active torsions:
REMARK  status: ('A' for Active; 'I' for Inactive)
REMARK    1  A    between atoms: C_3  and  N_4 
REMARK       I    between atoms: N_4  and  C_5 
REMARK    2  A    between atoms: C_5  and  C_6 
REMARK    3  A    between atoms: C_6  and  C_7 
REMARK    4  A    between atoms: C_7  and  N_8 
REMARK    5  A    between atoms: C_13  and  C_14 
REMARK    6  A    between atoms: C_17  and  O_18 
ROOT
HETATM    1  N   UNL     1      21.364  48.279  48.993  1.00  0.00    -0.305 N 
HETATM    2  C   UNL     1      22.627  47.773  49.194  1.00  0.00     0.196 A 
HETATM    3  S   UNL     1      23.227  46.255  48.916  1.00  0.00    -0.039 SA
HETATM    4  N   UNL     1      23.394  48.818  49.676  1.00  0.00    -0.251 N 
HETATM    5  N   UNL     1      22.646  49.948  49.784  1.00  0.00    -0.153 NA
HETATM    6  C   UNL     1      21.456  49.590  49.392  1.00  0.00     0.162 A 
HETATM    7  H   UNL     1      24.377  48.796  49.923  1.00  0.00     0.191 HD
ENDROOT
BRANCH   1   8
HETATM    8  C   UNL     1      20.216  47.566  48.409  1.00  0.00     0.142 C 
BRANCH   8   9
HETATM    9  C   UNL     1      20.302  47.447  46.893  1.00  0.00     0.123 C 
BRANCH   9  10
HETATM   10  C   UNL     1      19.150  48.104  46.162  1.00  0.00     0.223 C 
HETATM   11  N   UNL     1      18.757  49.314  46.699  1.00  0.00    -0.327 N 
HETATM   12  H   UNL     1      19.495  49.879  47.104  1.00  0.00     0.169 HD
HETATM   13  O   UNL     1      18.638  47.548  45.193  1.00  0.00    -0.273 OA
BRANCH  11  14
HETATM   14  C   UNL     1      17.577  50.015  46.354  1.00  0.00     0.042 A 
HETATM   15  C   UNL     1      16.319  49.805  46.953  1.00  0.00    -0.035 A 
HETATM   16  C   UNL     1      16.072  48.859  48.097  1.00  0.00     0.050 C 
HETATM   17  C   UNL     1      15.215  50.554  46.497  1.00  0.00     0.010 A 
HETATM   18  C   UNL     1      15.359  51.529  45.513  1.00  0.00     0.020 A 
HETATM   19  C   UNL     1      16.615  51.773  44.976  1.00  0.00     0.013 A 
HETATM   20  C   UNL     1      17.719  51.032  45.397  1.00  0.00     0.049 A 
HETATM   21 BR   UNL     1      16.829  53.108  43.654  1.00  0.00    -0.051 Br
ENDBRANCH  11  14
ENDBRANCH   9  10
ENDBRANCH   8   9
ENDBRANCH   1   8
BRANCH   6  22
HETATM   22  C   UNL     1      20.334  50.543  49.346  1.00  0.00     0.012 A 
HETATM   23  C   UNL     1      19.222  50.289  50.156  1.00  0.00     0.018 A 
HETATM   24  C   UNL     1      18.129  51.157  50.128  1.00  0.00     0.037 A 
HETATM   25  C   UNL     1      18.129  52.277  49.295  1.00  0.00     0.068 A 
HETATM   26  C   UNL     1      19.229  52.513  48.467  1.00  0.00     0.037 A 
HETATM   27  C   UNL     1      20.325  51.640  48.482  1.00  0.00     0.018 A 
BRANCH  25  28
HETATM   28  O   UNL     1      16.998  53.042  49.368  1.00  0.00    -0.356 OA
HETATM   29  C   UNL     1      15.788  52.376  49.706  1.00  0.00     0.210 C 
ENDBRANCH  25  28
ENDBRANCH   6  22
TORSDOF 6
ENDMDL
