MODEL 1
REMARK VINA RESULT:      -8.4      0.000      0.000
REMARK  2 active torsions:
REMARK  status: ('A' for Active; 'I' for Inactive)
REMARK    1  A    between atoms: C_5  and  O_6 
REMARK    2  A    between atoms: C_5  and  C_7 
ROOT
HETATM    1  C   UNL     1      29.589  46.013  57.259  1.00  0.00     0.050 C 
HETATM    2  C   UNL     1      29.663  44.982  56.175  1.00  0.00    -0.035 A 
HETATM    3  C   UNL     1      28.564  44.543  55.454  1.00  0.00     0.051 A 
HETATM    4  C   UNL     1      28.664  43.585  54.434  1.00  0.00     0.018 A 
HETATM    5  C   UNL     1      27.295  43.300  53.870  1.00  0.00     0.199 A 
HETATM    6  C   UNL     1      26.400  44.239  54.745  1.00  0.00     0.266 A 
HETATM    7  O   UNL     1      25.178  44.304  54.744  1.00  0.00    -0.269 OA
HETATM    8  N   UNL     1      27.238  44.934  55.609  1.00  0.00    -0.323 N 
HETATM    9  C   UNL     1      29.890  43.016  54.119  1.00  0.00     0.013 A 
HETATM   10  C   UNL     1      31.017  43.452  54.820  1.00  0.00     0.001 A 
HETATM   11  C   UNL     1      30.905  44.424  55.831  1.00  0.00     0.009 A 
HETATM   12  H   UNL     1      26.886  45.581  56.297  1.00  0.00     0.169 HD
ENDROOT
BRANCH   5  13
HETATM   13  O   UNL     1      27.006  41.928  54.119  1.00  0.00    -0.371 OA
HETATM   14  H   UNL     1      27.053  41.837  55.086  1.00  0.00     0.212 HD
ENDBRANCH   5  13
BRANCH   5  15
HETATM   15  C   UNL     1      27.218  43.675  52.399  1.00  0.00     0.025 A 
HETATM   16  C   UNL     1      26.810  44.928  51.785  1.00  0.00     0.003 A 
HETATM   17  C   UNL     1      26.899  44.771  50.400  1.00  0.00     0.043 A 
HETATM   18  C   UNL     1      26.370  46.188  52.256  1.00  0.00     0.014 A 
HETATM   19  C   UNL     1      26.599  45.787  49.484  1.00  0.00     0.030 A 
HETATM   20  N   UNL     1      27.306  43.486  50.163  1.00  0.00    -0.359 N 
HETATM   21  C   UNL     1      26.187  47.022  49.988  1.00  0.00     0.002 A 
HETATM   22  C   UNL     1      26.071  47.221  51.357  1.00  0.00     0.001 A 
HETATM   23  H   UNL     1      27.434  43.094  49.239  1.00  0.00     0.166 HD
HETATM   24  C   UNL     1      27.470  42.801  51.336  1.00  0.00     0.016 A 
HETATM   25  C   UNL     1      27.843  41.360  51.309  1.00  0.00     0.069 C 
ENDBRANCH   5  15
TORSDOF 2
ENDMDL
MODEL 2
REMARK VINA RESULT:      -8.3     12.500     14.429
REMARK  2 active torsions:
REMARK  status: ('A' for Active; 'I' for Inactive)
REMARK    1  A    between atoms: C_5  and  O_6 
REMARK    2  A    between atoms: C_5  and  C_7 
ROOT
HETATM    1  C   UNL     1      29.860  45.890  38.675  1.00  0.00     0.050 C 
HETATM    2  C   UNL     1      29.519  46.783  39.827  1.00  0.00    -0.035 A 
HETATM    3  C   UNL     1      30.439  47.598  40.468  1.00  0.00     0.051 A 
HETATM    4  C   UNL     1      30.089  48.436  41.537  1.00  0.00     0.018 A 
HETATM    5  C   UNL     1      31.313  49.164  42.033  1.00  0.00     0.199 A 
HETATM    6  C   UNL     1      32.417  48.592  41.083  1.00  0.00     0.266 A 
HETATM    7  O   UNL     1      33.621  48.798  41.145  1.00  0.00    -0.269 OA
HETATM    8  N   UNL     1      31.798  47.717  40.198  1.00  0.00    -0.323 N 
HETATM    9  C   UNL     1      28.785  48.464  42.014  1.00  0.00     0.013 A 
HETATM   10  C   UNL     1      27.835  47.664  41.376  1.00  0.00     0.001 A 
HETATM   11  C   UNL     1      28.196  46.839  40.295  1.00  0.00     0.009 A 
HETATM   12  H   UNL     1      32.314  47.197  39.505  1.00  0.00     0.169 HD
ENDROOT
BRANCH   5  13
HETATM   13  O   UNL     1      31.531  48.765  43.383  1.00  0.00    -0.371 OA
HETATM   14  H   UNL     1      32.465  48.973  43.554  1.00  0.00     0.212 HD
ENDBRANCH   5  13
BRANCH   5  15
HETATM   15  C   UNL     1      31.164  50.667  41.866  1.00  0.00     0.025 A 
HETATM   16  C   UNL     1      30.416  51.417  40.869  1.00  0.00     0.003 A 
HETATM   17  C   UNL     1      30.602  52.776  41.131  1.00  0.00     0.043 A 
HETATM   18  C   UNL     1      29.596  51.088  39.763  1.00  0.00     0.014 A 
HETATM   19  C   UNL     1      30.011  53.798  40.379  1.00  0.00     0.030 A 
HETATM   20  N   UNL     1      31.443  52.870  42.207  1.00  0.00    -0.359 N 
HETATM   21  C   UNL     1      29.193  53.434  39.308  1.00  0.00     0.002 A 
HETATM   22  C   UNL     1      28.989  52.095  39.002  1.00  0.00     0.001 A 
HETATM   23  H   UNL     1      31.764  53.744  42.600  1.00  0.00     0.166 HD
HETATM   24  C   UNL     1      31.820  51.628  42.643  1.00  0.00     0.016 A 
HETATM   25  C   UNL     1      32.792  51.497  43.763  1.00  0.00     0.069 C 
ENDBRANCH   5  15
TORSDOF 2
ENDMDL
MODEL 3
REMARK VINA RESULT:      -8.2     13.315     14.617
REMARK  2 active torsions:
REMARK  status: ('A' for Active; 'I' for Inactive)
REMARK    1  A    between atoms: C_5  and  O_6 
REMARK    2  A    between atoms: C_5  and  C_7 
ROOT
HETATM    1  C   UNL     1      35.179  50.184  41.504  1.00  0.00     0.050 C 
HETATM    2  C   UNL     1      33.860  50.782  41.883  1.00  0.00    -0.035 A 
HETATM    3  C   UNL     1      32.770  50.846  41.029  1.00  0.00     0.051 A 
HETATM    4  C   UNL     1      31.540  51.400  41.415  1.00  0.00     0.018 A 
HETATM    5  C   UNL     1      30.576  51.349  40.257  1.00  0.00     0.199 A 
HETATM    6  C   UNL     1      31.462  50.693  39.146  1.00  0.00     0.266 A 
HETATM    7  O   UNL     1      31.167  50.523  37.971  1.00  0.00    -0.269 OA
HETATM    8  N   UNL     1      32.703  50.416  39.708  1.00  0.00    -0.323 N 
HETATM    9  C   UNL     1      31.375  51.932  42.686  1.00  0.00     0.013 A 
HETATM   10  C   UNL     1      32.451  51.866  43.572  1.00  0.00     0.001 A 
HETATM   11  C   UNL     1      33.675  51.295  43.178  1.00  0.00     0.009 A 
HETATM   12  H   UNL     1      33.459  50.016  39.175  1.00  0.00     0.169 HD
ENDROOT
BRANCH   5  13
HETATM   13  O   UNL     1      30.237  52.692  39.923  1.00  0.00    -0.371 OA
HETATM   14  H   UNL     1      30.247  52.715  38.951  1.00  0.00     0.212 HD
ENDBRANCH   5  13
BRANCH   5  15
HETATM   15  C   UNL     1      29.369  50.486  40.583  1.00  0.00     0.025 A 
HETATM   16  C   UNL     1      29.184  49.054  40.416  1.00  0.00     0.003 A 
HETATM   17  C   UNL     1      27.896  48.737  40.852  1.00  0.00     0.043 A 
HETATM   18  C   UNL     1      29.976  47.983  39.936  1.00  0.00     0.014 A 
HETATM   19  C   UNL     1      27.376  47.437  40.854  1.00  0.00     0.030 A 
HETATM   20  N   UNL     1      27.299  49.907  41.238  1.00  0.00    -0.359 N 
HETATM   21  C   UNL     1      28.193  46.404  40.392  1.00  0.00     0.002 A 
HETATM   22  C   UNL     1      29.477  46.673  39.937  1.00  0.00     0.001 A 
HETATM   23  H   UNL     1      26.350  49.973  41.579  1.00  0.00     0.166 HD
HETATM   24  C   UNL     1      28.144  50.969  41.055  1.00  0.00     0.016 A 
HETATM   25  C   UNL     1      27.672  52.351  41.345  1.00  0.00     0.069 C 
ENDBRANCH   5  15
TORSDOF 2
ENDMDL
MODEL 4
REMARK VINA RESULT:      -8.2      1.533      5.795
REMARK  2 active torsions:
REMARK  status: ('A' for Active; 'I' for Inactive)
REMARK    1  A    between atoms: C_5  and  O_6 
REMARK    2  A    between atoms: C_5  and  C_7 
ROOT
HETATM    1  C   UNL     1      26.586  42.917  49.474  1.00  0.00     0.050 C 
HETATM    2  C   UNL     1      26.497  44.164  50.299  1.00  0.00    -0.035 A 
HETATM    3  C   UNL     1      26.422  44.168  51.683  1.00  0.00     0.051 A 
HETATM    4  C   UNL     1      26.353  45.352  52.431  1.00  0.00     0.018 A 
HETATM    5  C   UNL     1      26.249  45.020  53.898  1.00  0.00     0.199 A 
HETATM    6  C   UNL     1      26.253  43.455  53.860  1.00  0.00     0.266 A 
HETATM    7  O   UNL     1      26.086  42.694  54.803  1.00  0.00    -0.269 OA
HETATM    8  N   UNL     1      26.386  43.067  52.532  1.00  0.00    -0.323 N 
HETATM    9  C   UNL     1      26.338  46.587  51.797  1.00  0.00     0.013 A 
HETATM   10  C   UNL     1      26.428  46.613  50.404  1.00  0.00     0.001 A 
HETATM   11  C   UNL     1      26.511  45.418  49.666  1.00  0.00     0.009 A 
HETATM   12  H   UNL     1      26.382  42.100  52.250  1.00  0.00     0.169 HD
ENDROOT
BRANCH   5  13
HETATM   13  O   UNL     1      25.001  45.524  54.364  1.00  0.00    -0.371 OA
HETATM   14  H   UNL     1      24.472  44.732  54.560  1.00  0.00     0.212 HD
ENDBRANCH   5  13
BRANCH   5  15
HETATM   15  C   UNL     1      27.443  45.557  54.670  1.00  0.00     0.025 A 
HETATM   16  C   UNL     1      28.680  44.891  55.041  1.00  0.00     0.003 A 
HETATM   17  C   UNL     1      29.458  45.804  55.756  1.00  0.00     0.043 A 
HETATM   18  C   UNL     1      29.230  43.601  54.846  1.00  0.00     0.014 A 
HETATM   19  C   UNL     1      30.732  45.511  56.258  1.00  0.00     0.030 A 
HETATM   20  N   UNL     1      28.734  46.961  55.856  1.00  0.00    -0.359 N 
HETATM   21  C   UNL     1      31.248  44.235  56.029  1.00  0.00     0.002 A 
HETATM   22  C   UNL     1      30.507  43.289  55.333  1.00  0.00     0.001 A 
HETATM   23  H   UNL     1      29.053  47.787  56.344  1.00  0.00     0.166 HD
HETATM   24  C   UNL     1      27.515  46.830  55.247  1.00  0.00     0.016 A 
HETATM   25  C   UNL     1      26.536  47.950  55.297  1.00  0.00     0.069 C 
ENDBRANCH   5  15
TORSDOF 2
ENDMDL
MODEL 5
REMARK VINA RESULT:      -7.8     13.718     15.521
REMARK  2 active torsions:
REMARK  status: ('A' for Active; 'I' for Inactive)
REMARK    1  A    between atoms: C_5  and  O_6 
REMARK    2  A    between atoms: C_5  and  C_7 
ROOT
HETATM    1  C   UNL     1      24.494  49.622  38.604  1.00  0.00     0.050 C 
HETATM    2  C   UNL     1      25.815  49.170  39.144  1.00  0.00    -0.035 A 
HETATM    3  C   UNL     1      26.992  49.886  38.995  1.00  0.00     0.051 A 
HETATM    4  C   UNL     1      28.215  49.445  39.524  1.00  0.00     0.018 A 
HETATM    5  C   UNL     1      29.305  50.424  39.164  1.00  0.00     0.199 A 
HETATM    6  C   UNL     1      28.507  51.482  38.332  1.00  0.00     0.266 A 
HETATM    7  O   UNL     1      28.964  52.439  37.724  1.00  0.00    -0.269 OA
HETATM    8  N   UNL     1      27.173  51.089  38.321  1.00  0.00    -0.323 N 
HETATM    9  C   UNL     1      28.293  48.243  40.212  1.00  0.00     0.013 A 
HETATM   10  C   UNL     1      27.118  47.509  40.391  1.00  0.00     0.001 A 
HETATM   11  C   UNL     1      25.896  47.969  39.868  1.00  0.00     0.009 A 
HETATM   12  H   UNL     1      26.465  51.600  37.818  1.00  0.00     0.169 HD
ENDROOT
BRANCH   5  13
HETATM   13  O   UNL     1      30.251  49.733  38.354  1.00  0.00    -0.371 OA
HETATM   14  H   UNL     1      29.977  49.921  37.440  1.00  0.00     0.212 HD
ENDBRANCH   5  13
BRANCH   5  15
HETATM   15  C   UNL     1      29.917  51.046  40.408  1.00  0.00     0.025 A 
HETATM   16  C   UNL     1      31.233  50.841  40.992  1.00  0.00     0.003 A 
HETATM   17  C   UNL     1      31.316  51.631  42.141  1.00  0.00     0.043 A 
HETATM   18  C   UNL     1      32.371  50.065  40.669  1.00  0.00     0.014 A 
HETATM   19  C   UNL     1      32.455  51.701  42.953  1.00  0.00     0.030 A 
HETATM   20  N   UNL     1      30.111  52.265  42.285  1.00  0.00    -0.359 N 
HETATM   21  C   UNL     1      33.564  50.936  42.591  1.00  0.00     0.002 A 
HETATM   22  C   UNL     1      33.524  50.125  41.464  1.00  0.00     0.001 A 
HETATM   23  H   UNL     1      29.888  52.888  43.049  1.00  0.00     0.166 HD
HETATM   24  C   UNL     1      29.248  51.907  41.285  1.00  0.00     0.016 A 
HETATM   25  C   UNL     1      27.853  52.427  41.286  1.00  0.00     0.069 C 
ENDBRANCH   5  15
TORSDOF 2
ENDMDL
MODEL 6
REMARK VINA RESULT:      -7.7      1.064      2.924
REMARK  2 active torsions:
REMARK  status: ('A' for Active; 'I' for Inactive)
REMARK    1  A    between atoms: C_5  and  O_6 
REMARK    2  A    between atoms: C_5  and  C_7 
ROOT
HETATM    1  C   UNL     1      29.238  46.345  56.630  1.00  0.00     0.050 C 
HETATM    2  C   UNL     1      29.344  45.134  55.755  1.00  0.00    -0.035 A 
HETATM    3  C   UNL     1      28.265  44.561  55.101  1.00  0.00     0.051 A 
HETATM    4  C   UNL     1      28.395  43.433  54.276  1.00  0.00     0.018 A 
HETATM    5  C   UNL     1      27.042  43.037  53.741  1.00  0.00     0.199 A 
HETATM    6  C   UNL     1      26.120  44.112  54.409  1.00  0.00     0.266 A 
HETATM    7  O   UNL     1      24.899  44.164  54.368  1.00  0.00    -0.269 OA
HETATM    8  N   UNL     1      26.934  44.960  55.151  1.00  0.00    -0.323 N 
HETATM    9  C   UNL     1      29.631  42.829  54.098  1.00  0.00     0.013 A 
HETATM   10  C   UNL     1      30.738  43.396  54.733  1.00  0.00     0.001 A 
HETATM   11  C   UNL     1      30.597  44.535  55.547  1.00  0.00     0.009 A 
HETATM   12  H   UNL     1      26.562  45.719  55.701  1.00  0.00     0.169 HD
ENDROOT
BRANCH   5  13
HETATM   13  O   UNL     1      26.753  41.731  54.230  1.00  0.00    -0.371 OA
HETATM   14  H   UNL     1      26.936  41.141  53.480  1.00  0.00     0.212 HD
ENDBRANCH   5  13
BRANCH   5  15
HETATM   15  C   UNL     1      26.999  43.137  52.226  1.00  0.00     0.025 A 
HETATM   16  C   UNL     1      27.234  42.109  51.224  1.00  0.00     0.003 A 
HETATM   17  C   UNL     1      27.089  42.699  49.967  1.00  0.00     0.043 A 
HETATM   18  C   UNL     1      27.556  40.731  51.248  1.00  0.00     0.014 A 
HETATM   19  C   UNL     1      27.227  41.999  48.762  1.00  0.00     0.030 A 
HETATM   20  N   UNL     1      26.814  44.025  50.170  1.00  0.00    -0.359 N 
HETATM   21  C   UNL     1      27.526  40.638  48.827  1.00  0.00     0.002 A 
HETATM   22  C   UNL     1      27.691  40.010  50.054  1.00  0.00     0.001 A 
HETATM   23  H   UNL     1      26.682  44.696  49.426  1.00  0.00     0.166 HD
HETATM   24  C   UNL     1      26.789  44.319  51.507  1.00  0.00     0.016 A 
HETATM   25  C   UNL     1      26.576  45.723  51.954  1.00  0.00     0.069 C 
ENDBRANCH   5  15
TORSDOF 2
ENDMDL
MODEL 7
REMARK VINA RESULT:      -7.6     12.772     14.132
REMARK  2 active torsions:
REMARK  status: ('A' for Active; 'I' for Inactive)
REMARK    1  A    between atoms: C_5  and  O_6 
REMARK    2  A    between atoms: C_5  and  C_7 
ROOT
HETATM    1  C   UNL     1      31.014  53.875  40.949  1.00  0.00     0.050 C 
HETATM    2  C   UNL     1      30.943  52.473  41.469  1.00  0.00    -0.035 A 
HETATM    3  C   UNL     1      29.947  51.573  41.123  1.00  0.00     0.051 A 
HETATM    4  C   UNL     1      29.912  50.260  41.616  1.00  0.00     0.018 A 
HETATM    5  C   UNL     1      28.694  49.550  41.081  1.00  0.00     0.199 A 
HETATM    6  C   UNL     1      28.034  50.677  40.220  1.00  0.00     0.266 A 
HETATM    7  O   UNL     1      26.952  50.632  39.650  1.00  0.00    -0.269 OA
HETATM    8  N   UNL     1      28.856  51.796  40.291  1.00  0.00    -0.323 N 
HETATM    9  C   UNL     1      30.884  49.813  42.500  1.00  0.00     0.013 A 
HETATM   10  C   UNL     1      31.908  50.694  42.853  1.00  0.00     0.001 A 
HETATM   11  C   UNL     1      31.939  52.004  42.341  1.00  0.00     0.009 A 
HETATM   12  H   UNL     1      28.622  52.666  39.838  1.00  0.00     0.169 HD
ENDROOT
BRANCH   5  13
HETATM   13  O   UNL     1      27.877  49.203  42.196  1.00  0.00    -0.371 OA
HETATM   14  H   UNL     1      27.642  48.271  42.049  1.00  0.00     0.212 HD
ENDBRANCH   5  13
BRANCH   5  15
HETATM   15  C   UNL     1      29.085  48.357  40.226  1.00  0.00     0.025 A 
HETATM   16  C   UNL     1      28.571  46.997  40.246  1.00  0.00     0.003 A 
HETATM   17  C   UNL     1      29.260  46.267  39.275  1.00  0.00     0.043 A 
HETATM   18  C   UNL     1      27.589  46.299  40.990  1.00  0.00     0.014 A 
HETATM   19  C   UNL     1      29.012  44.916  39.000  1.00  0.00     0.030 A 
HETATM   20  N   UNL     1      30.173  47.112  38.705  1.00  0.00    -0.359 N 
HETATM   21  C   UNL     1      28.023  44.268  39.741  1.00  0.00     0.002 A 
HETATM   22  C   UNL     1      27.321  44.949  40.725  1.00  0.00     0.001 A 
HETATM   23  H   UNL     1      30.824  46.838  37.981  1.00  0.00     0.166 HD
HETATM   24  C   UNL     1      30.113  48.354  39.277  1.00  0.00     0.016 A 
HETATM   25  C   UNL     1      31.071  49.413  38.855  1.00  0.00     0.069 C 
ENDBRANCH   5  15
TORSDOF 2
ENDMDL
MODEL 8
REMARK VINA RESULT:      -7.6      3.102      4.947
REMARK  2 active torsions:
REMARK  status: ('A' for Active; 'I' for Inactive)
REMARK    1  A    between atoms: C_5  and  O_6 
REMARK    2  A    between atoms: C_5  and  C_7 
ROOT
HETATM    1  C   UNL     1      26.937  43.425  54.442  1.00  0.00     0.050 C 
HETATM    2  C   UNL     1      26.637  44.735  53.781  1.00  0.00    -0.035 A 
HETATM    3  C   UNL     1      26.503  44.892  52.410  1.00  0.00     0.051 A 
HETATM    4  C   UNL     1      26.208  46.129  51.818  1.00  0.00     0.018 A 
HETATM    5  C   UNL     1      26.161  45.975  50.319  1.00  0.00     0.199 A 
HETATM    6  C   UNL     1      26.493  44.455  50.155  1.00  0.00     0.266 A 
HETATM    7  O   UNL     1      26.675  43.849  49.108  1.00  0.00    -0.269 OA
HETATM    8  N   UNL     1      26.644  43.918  51.428  1.00  0.00    -0.323 N 
HETATM    9  C   UNL     1      26.057  47.267  52.599  1.00  0.00     0.013 A 
HETATM   10  C   UNL     1      26.172  47.133  53.985  1.00  0.00     0.001 A 
HETATM   11  C   UNL     1      26.453  45.884  54.567  1.00  0.00     0.009 A 
HETATM   12  H   UNL     1      26.893  42.953  51.579  1.00  0.00     0.169 HD
ENDROOT
BRANCH   5  13
HETATM   13  O   UNL     1      27.191  46.793  49.772  1.00  0.00    -0.371 OA
HETATM   14  H   UNL     1      26.750  47.630  49.549  1.00  0.00     0.212 HD
ENDBRANCH   5  13
BRANCH   5  15
HETATM   15  C   UNL     1      24.780  46.302  49.776  1.00  0.00     0.025 A 
HETATM   16  C   UNL     1      24.277  47.545  49.214  1.00  0.00     0.003 A 
HETATM   17  C   UNL     1      22.939  47.346  48.870  1.00  0.00     0.043 A 
HETATM   18  C   UNL     1      24.817  48.829  48.959  1.00  0.00     0.014 A 
HETATM   19  C   UNL     1      22.136  48.330  48.280  1.00  0.00     0.030 A 
HETATM   20  N   UNL     1      22.615  46.065  49.226  1.00  0.00    -0.359 N 
HETATM   21  C   UNL     1      22.709  49.577  48.026  1.00  0.00     0.002 A 
HETATM   22  C   UNL     1      24.033  49.826  48.363  1.00  0.00     0.001 A 
HETATM   23  H   UNL     1      21.696  45.660  49.108  1.00  0.00     0.166 HD
HETATM   24  C   UNL     1      23.684  45.432  49.800  1.00  0.00     0.016 A 
HETATM   25  C   UNL     1      23.532  44.049  50.328  1.00  0.00     0.069 C 
ENDBRANCH   5  15
TORSDOF 2
ENDMDL
MODEL 9
REMARK VINA RESULT:      -7.6      1.902      3.004
REMARK  2 active torsions:
REMARK  status: ('A' for Active; 'I' for Inactive)
REMARK    1  A    between atoms: C_5  and  O_6 
REMARK    2  A    between atoms: C_5  and  C_7 
ROOT
HETATM    1  C   UNL     1      30.377  44.915  55.706  1.00  0.00     0.050 C 
HETATM    2  C   UNL     1      29.414  44.123  54.879  1.00  0.00    -0.035 A 
HETATM    3  C   UNL     1      28.141  44.561  54.548  1.00  0.00     0.051 A 
HETATM    4  C   UNL     1      27.263  43.803  53.759  1.00  0.00     0.018 A 
HETATM    5  C   UNL     1      25.955  44.537  53.608  1.00  0.00     0.199 A 
HETATM    6  C   UNL     1      26.226  45.827  54.452  1.00  0.00     0.266 A 
HETATM    7  O   UNL     1      25.425  46.710  54.727  1.00  0.00    -0.269 OA
HETATM    8  N   UNL     1      27.531  45.751  54.927  1.00  0.00    -0.323 N 
HETATM    9  C   UNL     1      27.639  42.552  53.290  1.00  0.00     0.013 A 
HETATM   10  C   UNL     1      28.922  42.092  53.595  1.00  0.00     0.001 A 
HETATM   11  C   UNL     1      29.798  42.869  54.375  1.00  0.00     0.009 A 
HETATM   12  H   UNL     1      27.927  46.458  55.526  1.00  0.00     0.169 HD
ENDROOT
BRANCH   5  13
HETATM   13  O   UNL     1      24.941  43.732  54.202  1.00  0.00    -0.371 OA
HETATM   14  H   UNL     1      25.421  42.996  54.617  1.00  0.00     0.212 HD
ENDBRANCH   5  13
BRANCH   5  15
HETATM   15  C   UNL     1      25.680  44.876  52.153  1.00  0.00     0.025 A 
HETATM   16  C   UNL     1      25.142  44.037  51.093  1.00  0.00     0.003 A 
HETATM   17  C   UNL     1      25.090  44.805  49.928  1.00  0.00     0.043 A 
HETATM   18  C   UNL     1      24.692  42.699  50.996  1.00  0.00     0.014 A 
HETATM   19  C   UNL     1      24.605  44.325  48.705  1.00  0.00     0.030 A 
HETATM   20  N   UNL     1      25.597  46.039  50.233  1.00  0.00    -0.359 N 
HETATM   21  C   UNL     1      24.151  43.006  48.653  1.00  0.00     0.002 A 
HETATM   22  C   UNL     1      24.195  42.201  49.783  1.00  0.00     0.001 A 
HETATM   23  H   UNL     1      25.696  46.791  49.564  1.00  0.00     0.166 HD
HETATM   24  C   UNL     1      25.987  46.097  51.543  1.00  0.00     0.016 A 
HETATM   25  C   UNL     1      26.634  47.330  52.071  1.00  0.00     0.069 C 
ENDBRANCH   5  15
TORSDOF 2
ENDMDL
MODEL 10
REMARK VINA RESULT:      -7.5     14.986     16.843
REMARK  2 active torsions:
REMARK  status: ('A' for Active; 'I' for Inactive)
REMARK    1  A    between atoms: C_5  and  O_6 
REMARK    2  A    between atoms: C_5  and  C_7 
ROOT
HETATM    1  C   UNL     1      38.092  48.922  65.953  1.00  0.00     0.050 C 
HETATM    2  C   UNL     1      37.675  47.586  65.422  1.00  0.00    -0.035 A 
HETATM    3  C   UNL     1      38.553  46.673  64.858  1.00  0.00     0.051 A 
HETATM    4  C   UNL     1      38.137  45.422  64.380  1.00  0.00     0.018 A 
HETATM    5  C   UNL     1      39.317  44.682  63.802  1.00  0.00     0.199 A 
HETATM    6  C   UNL     1      40.467  45.722  64.014  1.00  0.00     0.266 A 
HETATM    7  O   UNL     1      41.621  45.637  63.617  1.00  0.00    -0.269 OA
HETATM    8  N   UNL     1      39.921  46.827  64.659  1.00  0.00    -0.323 N 
HETATM    9  C   UNL     1      36.800  45.054  64.438  1.00  0.00     0.013 A 
HETATM   10  C   UNL     1      35.896  45.948  65.016  1.00  0.00     0.001 A 
HETATM   11  C   UNL     1      36.329  47.195  65.505  1.00  0.00     0.009 A 
HETATM   12  H   UNL     1      40.465  47.646  64.876  1.00  0.00     0.169 HD
ENDROOT
BRANCH   5  13
HETATM   13  O   UNL     1      39.055  44.474  62.417  1.00  0.00    -0.371 OA
HETATM   14  H   UNL     1      38.970  45.367  62.044  1.00  0.00     0.212 HD
ENDBRANCH   5  13
BRANCH   5  15
HETATM   15  C   UNL     1      39.587  43.396  64.564  1.00  0.00     0.025 A 
HETATM   16  C   UNL     1      39.570  42.021  64.094  1.00  0.00     0.003 A 
HETATM   17  C   UNL     1      39.871  41.196  65.179  1.00  0.00     0.043 A 
HETATM   18  C   UNL     1      39.328  41.381  62.854  1.00  0.00     0.014 A 
HETATM   19  C   UNL     1      39.962  39.801  65.090  1.00  0.00     0.030 A 
HETATM   20  N   UNL     1      40.034  42.005  66.271  1.00  0.00    -0.359 N 
HETATM   21  C   UNL     1      39.736  39.208  63.847  1.00  0.00     0.002 A 
HETATM   22  C   UNL     1      39.421  39.987  62.742  1.00  0.00     0.001 A 
HETATM   23  H   UNL     1      40.241  41.666  67.201  1.00  0.00     0.166 HD
HETATM   24  C   UNL     1      39.836  43.318  65.939  1.00  0.00     0.016 A 
HETATM   25  C   UNL     1      39.895  44.367  66.994  1.00  0.00     0.069 C 
ENDBRANCH   5  15
TORSDOF 2
ENDMDL
