MODEL 1
REMARK VINA RESULT:      -7.4      0.000      0.000
REMARK  7 active torsions:
REMARK  status: ('A' for Active; 'I' for Inactive)
REMARK    1  A    between atoms: C_8  and  C_9 
REMARK    2  A    between atoms: C_9  and  C_10 
REMARK    3  A    between atoms: C_10  and  C_11 
REMARK       I    between atoms: C_11  and  N_12 
REMARK    4  A    between atoms: N_12  and  C_13 
REMARK    5  A    between atoms: C_13  and  C_14 
REMARK    6  A    between atoms: C_14  and  N_15 
REMARK    7  A    between atoms: C_14  and  C_19 
ROOT
HETATM    1  C   UNL     1      28.627  41.869  53.183  1.00  0.00     0.217 C 
HETATM    2  N   UNL     1      28.273  42.828  52.263  1.00  0.00    -0.359 N 
HETATM    3  O   UNL     1      28.515  40.671  52.925  1.00  0.00    -0.274 OA
HETATM    4  H   UNL     1      28.106  43.760  52.622  1.00  0.00     0.162 HD
ENDROOT
BRANCH   2   5
HETATM    5  C   UNL     1      27.591  42.490  51.011  1.00  0.00     0.160 C 
BRANCH   5   6
HETATM    6  C   UNL     1      26.213  43.192  50.733  1.00  0.00     0.239 C 
BRANCH   6   7
HETATM    7  N   UNL     1      25.496  42.630  49.492  1.00  0.00    -0.069 N 
HETATM    8  H   UNL     1      25.632  43.368  48.788  1.00  0.00     0.279 HD
HETATM    9  C   UNL     1      26.090  41.408  48.862  1.00  0.00     0.270 C 
HETATM   10  C   UNL     1      24.002  42.535  49.624  1.00  0.00     0.270 C 
ENDBRANCH   6   7
BRANCH   6  11
HETATM   11  C   UNL     1      26.179  44.726  50.789  1.00  0.00    -0.004 A 
HETATM   12  C   UNL     1      25.752  45.407  51.953  1.00  0.00     0.042 A 
HETATM   13 CL   UNL     1      25.262  44.557  53.380  1.00  0.00    -0.084 Cl
HETATM   14  C   UNL     1      25.701  46.804  52.009  1.00  0.00     0.024 A 
HETATM   15  C   UNL     1      26.099  47.562  50.914  1.00  0.00     0.002 A 
HETATM   16  C   UNL     1      26.558  46.923  49.770  1.00  0.00     0.001 A 
HETATM   17  C   UNL     1      26.603  45.526  49.710  1.00  0.00     0.011 A 
ENDBRANCH   6  11
ENDBRANCH   5   6
ENDBRANCH   2   5
BRANCH   1  18
HETATM   18  C   UNL     1      29.269  42.330  54.481  1.00  0.00     0.107 C 
BRANCH  18  19
HETATM   19  C   UNL     1      30.225  43.514  54.393  1.00  0.00     0.052 C 
BRANCH  19  20
HETATM   20  C   UNL     1      30.161  44.391  55.597  1.00  0.00    -0.008 A 
HETATM   21  C   UNL     1      30.913  44.309  56.755  1.00  0.00     0.032 A 
HETATM   22  C   UNL     1      31.984  43.378  57.182  1.00  0.00     0.070 C 
HETATM   23  N   UNL     1      30.483  45.331  57.555  1.00  0.00    -0.282 N 
HETATM   24  H   UNL     1      30.806  45.584  58.484  1.00  0.00     0.189 HD
HETATM   25  N   UNL     1      29.510  46.069  57.004  1.00  0.00    -0.179 NA
HETATM   26  C   UNL     1      29.300  45.504  55.813  1.00  0.00     0.059 A 
HETATM   27  C   UNL     1      28.267  46.058  54.904  1.00  0.00     0.073 C 
ENDBRANCH  19  20
ENDBRANCH  18  19
ENDBRANCH   1  18
TORSDOF 7
ENDMDL
MODEL 2
REMARK VINA RESULT:      -7.0      6.779      9.288
REMARK  7 active torsions:
REMARK  status: ('A' for Active; 'I' for Inactive)
REMARK    1  A    between atoms: C_8  and  C_9 
REMARK    2  A    between atoms: C_9  and  C_10 
REMARK    3  A    between atoms: C_10  and  C_11 
REMARK       I    between atoms: C_11  and  N_12 
REMARK    4  A    between atoms: N_12  and  C_13 
REMARK    5  A    between atoms: C_13  and  C_14 
REMARK    6  A    between atoms: C_14  and  N_15 
REMARK    7  A    between atoms: C_14  and  C_19 
ROOT
HETATM    1  C   UNL     1      22.291  46.356  48.629  1.00  0.00     0.217 C 
HETATM    2  N   UNL     1      21.728  47.319  47.824  1.00  0.00    -0.359 N 
HETATM    3  O   UNL     1      21.739  45.269  48.798  1.00  0.00    -0.274 OA
HETATM    4  H   UNL     1      22.057  48.267  47.956  1.00  0.00     0.162 HD
ENDROOT
BRANCH   2   5
HETATM    5  C   UNL     1      20.379  47.177  47.271  1.00  0.00     0.160 C 
BRANCH   5   6
HETATM    6  C   UNL     1      19.189  47.741  48.128  1.00  0.00     0.239 C 
BRANCH   6   7
HETATM    7  N   UNL     1      17.813  47.269  47.624  1.00  0.00    -0.069 N 
HETATM    8  H   UNL     1      17.154  47.844  48.166  1.00  0.00     0.279 HD
HETATM    9  C   UNL     1      17.475  47.569  46.196  1.00  0.00     0.270 C 
HETATM   10  C   UNL     1      17.457  45.860  48.010  1.00  0.00     0.270 C 
ENDBRANCH   6   7
BRANCH   6  11
HETATM   11  C   UNL     1      19.210  49.239  48.465  1.00  0.00    -0.004 A 
HETATM   12  C   UNL     1      18.959  49.697  49.779  1.00  0.00     0.042 A 
HETATM   13 CL   UNL     1      18.633  48.603  51.082  1.00  0.00    -0.084 Cl
HETATM   14  C   UNL     1      18.960  51.060  50.094  1.00  0.00     0.024 A 
HETATM   15  C   UNL     1      19.235  52.004  49.111  1.00  0.00     0.002 A 
HETATM   16  C   UNL     1      19.521  51.583  47.819  1.00  0.00     0.001 A 
HETATM   17  C   UNL     1      19.515  50.221  47.502  1.00  0.00     0.011 A 
ENDBRANCH   6  11
ENDBRANCH   5   6
ENDBRANCH   2   5
BRANCH   1  18
HETATM   18  C   UNL     1      23.669  46.629  49.209  1.00  0.00     0.107 C 
BRANCH  18  19
HETATM   19  C   UNL     1      23.904  48.014  49.802  1.00  0.00     0.052 C 
BRANCH  19  20
HETATM   20  C   UNL     1      24.848  48.832  48.989  1.00  0.00    -0.008 A 
HETATM   21  C   UNL     1      26.227  48.748  48.940  1.00  0.00     0.032 A 
HETATM   22  C   UNL     1      27.196  47.869  49.636  1.00  0.00     0.070 C 
HETATM   23  N   UNL     1      26.630  49.708  48.052  1.00  0.00    -0.282 N 
HETATM   24  H   UNL     1      27.574  49.940  47.761  1.00  0.00     0.189 HD
HETATM   25  N   UNL     1      25.617  50.405  47.522  1.00  0.00    -0.179 NA
HETATM   26  C   UNL     1      24.525  49.886  48.088  1.00  0.00     0.059 A 
HETATM   27  C   UNL     1      23.186  50.422  47.741  1.00  0.00     0.073 C 
ENDBRANCH  19  20
ENDBRANCH  18  19
ENDBRANCH   1  18
TORSDOF 7
ENDMDL
MODEL 3
REMARK VINA RESULT:      -7.0      2.192      4.108
REMARK  7 active torsions:
REMARK  status: ('A' for Active; 'I' for Inactive)
REMARK    1  A    between atoms: C_8  and  C_9 
REMARK    2  A    between atoms: C_9  and  C_10 
REMARK    3  A    between atoms: C_10  and  C_11 
REMARK       I    between atoms: C_11  and  N_12 
REMARK    4  A    between atoms: N_12  and  C_13 
REMARK    5  A    between atoms: C_13  and  C_14 
REMARK    6  A    between atoms: C_14  and  N_15 
REMARK    7  A    between atoms: C_14  and  C_19 
ROOT
HETATM    1  C   UNL     1      27.082  45.718  54.570  1.00  0.00     0.217 C 
HETATM    2  N   UNL     1      26.403  44.541  54.356  1.00  0.00    -0.359 N 
HETATM    3  O   UNL     1      26.932  46.682  53.822  1.00  0.00    -0.274 OA
HETATM    4  H   UNL     1      26.777  43.714  54.804  1.00  0.00     0.162 HD
ENDROOT
BRANCH   2   5
HETATM    5  C   UNL     1      25.609  44.313  53.147  1.00  0.00     0.160 C 
BRANCH   5   6
HETATM    6  C   UNL     1      26.390  44.164  51.792  1.00  0.00     0.239 C 
BRANCH   6   7
HETATM    7  N   UNL     1      25.870  45.110  50.694  1.00  0.00    -0.069 N 
HETATM    8  H   UNL     1      25.294  44.493  50.105  1.00  0.00     0.279 HD
HETATM    9  C   UNL     1      24.927  46.192  51.124  1.00  0.00     0.270 C 
HETATM   10  C   UNL     1      26.927  45.616  49.753  1.00  0.00     0.270 C 
ENDBRANCH   6   7
BRANCH   6  11
HETATM   11  C   UNL     1      26.638  42.740  51.273  1.00  0.00    -0.004 A 
HETATM   12  C   UNL     1      25.603  41.995  50.660  1.00  0.00     0.042 A 
HETATM   13 CL   UNL     1      24.013  42.646  50.444  1.00  0.00    -0.084 Cl
HETATM   14  C   UNL     1      25.813  40.691  50.198  1.00  0.00     0.024 A 
HETATM   15  C   UNL     1      27.067  40.103  50.313  1.00  0.00     0.002 A 
HETATM   16  C   UNL     1      28.111  40.822  50.877  1.00  0.00     0.001 A 
HETATM   17  C   UNL     1      27.902  42.124  51.344  1.00  0.00     0.011 A 
ENDBRANCH   6  11
ENDBRANCH   5   6
ENDBRANCH   2   5
BRANCH   1  18
HETATM   18  C   UNL     1      27.934  45.830  55.825  1.00  0.00     0.107 C 
BRANCH  18  19
HETATM   19  C   UNL     1      29.430  46.039  55.624  1.00  0.00     0.052 C 
BRANCH  19  20
HETATM   20  C   UNL     1      30.245  44.928  56.192  1.00  0.00    -0.008 A 
HETATM   21  C   UNL     1      30.578  43.723  55.600  1.00  0.00     0.032 A 
HETATM   22  C   UNL     1      30.263  43.146  54.272  1.00  0.00     0.070 C 
HETATM   23  N   UNL     1      31.332  43.049  56.520  1.00  0.00    -0.282 N 
HETATM   24  H   UNL     1      31.754  42.129  56.438  1.00  0.00     0.189 HD
HETATM   25  N   UNL     1      31.513  43.725  57.663  1.00  0.00    -0.179 NA
HETATM   26  C   UNL     1      30.852  44.870  57.479  1.00  0.00     0.059 A 
HETATM   27  C   UNL     1      30.823  45.888  58.557  1.00  0.00     0.073 C 
ENDBRANCH  19  20
ENDBRANCH  18  19
ENDBRANCH   1  18
TORSDOF 7
ENDMDL
MODEL 4
REMARK VINA RESULT:      -7.0      5.505      7.440
REMARK  7 active torsions:
REMARK  status: ('A' for Active; 'I' for Inactive)
REMARK    1  A    between atoms: C_8  and  C_9 
REMARK    2  A    between atoms: C_9  and  C_10 
REMARK    3  A    between atoms: C_10  and  C_11 
REMARK       I    between atoms: C_11  and  N_12 
REMARK    4  A    between atoms: N_12  and  C_13 
REMARK    5  A    between atoms: C_13  and  C_14 
REMARK    6  A    between atoms: C_14  and  N_15 
REMARK    7  A    between atoms: C_14  and  C_19 
ROOT
HETATM    1  C   UNL     1      24.799  47.796  49.862  1.00  0.00     0.217 C 
HETATM    2  N   UNL     1      23.435  47.648  49.755  1.00  0.00    -0.359 N 
HETATM    3  O   UNL     1      25.363  48.799  49.426  1.00  0.00    -0.274 OA
HETATM    4  H   UNL     1      23.074  46.707  49.853  1.00  0.00     0.162 HD
ENDROOT
BRANCH   2   5
HETATM    5  C   UNL     1      22.612  48.575  48.976  1.00  0.00     0.160 C 
BRANCH   5   6
HETATM    6  C   UNL     1      21.053  48.449  49.124  1.00  0.00     0.239 C 
BRANCH   6   7
HETATM    7  N   UNL     1      20.443  47.412  48.163  1.00  0.00    -0.069 N 
HETATM    8  H   UNL     1      19.560  47.851  47.872  1.00  0.00     0.279 HD
HETATM    9  C   UNL     1      21.173  47.168  46.878  1.00  0.00     0.270 C 
HETATM   10  C   UNL     1      20.004  46.133  48.822  1.00  0.00     0.270 C 
ENDBRANCH   6   7
BRANCH   6  11
HETATM   11  C   UNL     1      20.242  49.752  49.175  1.00  0.00    -0.004 A 
HETATM   12  C   UNL     1      19.132  49.890  50.041  1.00  0.00     0.042 A 
HETATM   13 CL   UNL     1      18.637  48.612  51.101  1.00  0.00    -0.084 Cl
HETATM   14  C   UNL     1      18.377  51.066  50.084  1.00  0.00     0.024 A 
HETATM   15  C   UNL     1      18.721  52.147  49.282  1.00  0.00     0.002 A 
HETATM   16  C   UNL     1      19.827  52.056  48.448  1.00  0.00     0.001 A 
HETATM   17  C   UNL     1      20.580  50.878  48.399  1.00  0.00     0.011 A 
ENDBRANCH   6  11
ENDBRANCH   5   6
ENDBRANCH   2   5
BRANCH   1  18
HETATM   18  C   UNL     1      25.571  46.741  50.637  1.00  0.00     0.107 C 
BRANCH  18  19
HETATM   19  C   UNL     1      24.760  45.823  51.545  1.00  0.00     0.052 C 
BRANCH  19  20
HETATM   20  C   UNL     1      25.558  44.671  52.053  1.00  0.00    -0.008 A 
HETATM   21  C   UNL     1      25.538  43.359  51.616  1.00  0.00     0.032 A 
HETATM   22  C   UNL     1      24.765  42.676  50.553  1.00  0.00     0.070 C 
HETATM   23  N   UNL     1      26.442  42.691  52.396  1.00  0.00    -0.282 N 
HETATM   24  H   UNL     1      26.697  41.709  52.364  1.00  0.00     0.189 HD
HETATM   25  N   UNL     1      27.045  43.470  53.303  1.00  0.00    -0.179 NA
HETATM   26  C   UNL     1      26.512  44.678  53.110  1.00  0.00     0.059 A 
HETATM   27  C   UNL     1      26.942  45.820  53.954  1.00  0.00     0.073 C 
ENDBRANCH  19  20
ENDBRANCH  18  19
ENDBRANCH   1  18
TORSDOF 7
ENDMDL
MODEL 5
REMARK VINA RESULT:      -6.9      5.605      7.261
REMARK  7 active torsions:
REMARK  status: ('A' for Active; 'I' for Inactive)
REMARK    1  A    between atoms: C_8  and  C_9 
REMARK    2  A    between atoms: C_9  and  C_10 
REMARK    3  A    between atoms: C_10  and  C_11 
REMARK       I    between atoms: C_11  and  N_12 
REMARK    4  A    between atoms: N_12  and  C_13 
REMARK    5  A    between atoms: C_13  and  C_14 
REMARK    6  A    between atoms: C_14  and  N_15 
REMARK    7  A    between atoms: C_14  and  C_19 
ROOT
HETATM    1  C   UNL     1      24.742  47.756  49.797  1.00  0.00     0.217 C 
HETATM    2  N   UNL     1      23.380  47.613  49.660  1.00  0.00    -0.359 N 
HETATM    3  O   UNL     1      25.301  48.812  49.505  1.00  0.00    -0.274 OA
HETATM    4  H   UNL     1      23.026  46.665  49.627  1.00  0.00     0.162 HD
ENDROOT
BRANCH   2   5
HETATM    5  C   UNL     1      22.554  48.631  49.008  1.00  0.00     0.160 C 
BRANCH   5   6
HETATM    6  C   UNL     1      20.996  48.484  49.142  1.00  0.00     0.239 C 
BRANCH   6   7
HETATM    7  N   UNL     1      20.406  47.450  48.165  1.00  0.00    -0.069 N 
HETATM    8  H   UNL     1      19.519  47.880  47.873  1.00  0.00     0.279 HD
HETATM    9  C   UNL     1      21.148  47.230  46.882  1.00  0.00     0.270 C 
HETATM   10  C   UNL     1      19.981  46.158  48.806  1.00  0.00     0.270 C 
ENDBRANCH   6   7
BRANCH   6  11
HETATM   11  C   UNL     1      20.168  49.776  49.200  1.00  0.00    -0.004 A 
HETATM   12  C   UNL     1      19.055  49.894  50.064  1.00  0.00     0.042 A 
HETATM   13 CL   UNL     1      18.573  48.603  51.114  1.00  0.00    -0.084 Cl
HETATM   14  C   UNL     1      18.285  51.061  50.114  1.00  0.00     0.024 A 
HETATM   15  C   UNL     1      18.617  52.152  49.320  1.00  0.00     0.002 A 
HETATM   16  C   UNL     1      19.727  52.080  48.488  1.00  0.00     0.001 A 
HETATM   17  C   UNL     1      20.495  50.912  48.433  1.00  0.00     0.011 A 
ENDBRANCH   6  11
ENDBRANCH   5   6
ENDBRANCH   2   5
BRANCH   1  18
HETATM   18  C   UNL     1      25.518  46.611  50.427  1.00  0.00     0.107 C 
BRANCH  18  19
HETATM   19  C   UNL     1      24.859  45.897  51.602  1.00  0.00     0.052 C 
BRANCH  19  20
HETATM   20  C   UNL     1      25.844  45.463  52.633  1.00  0.00    -0.008 A 
HETATM   21  C   UNL     1      26.313  46.177  53.720  1.00  0.00     0.032 A 
HETATM   22  C   UNL     1      26.021  47.542  54.215  1.00  0.00     0.070 C 
HETATM   23  N   UNL     1      27.196  45.350  54.359  1.00  0.00    -0.282 N 
HETATM   24  H   UNL     1      27.737  45.533  55.198  1.00  0.00     0.189 HD
HETATM   25  N   UNL     1      27.334  44.155  53.769  1.00  0.00    -0.179 NA
HETATM   26  C   UNL     1      26.519  44.212  52.713  1.00  0.00     0.059 A 
HETATM   27  C   UNL     1      26.410  43.047  51.799  1.00  0.00     0.073 C 
ENDBRANCH  19  20
ENDBRANCH  18  19
ENDBRANCH   1  18
TORSDOF 7
ENDMDL
MODEL 6
REMARK VINA RESULT:      -6.9      1.059      2.099
REMARK  7 active torsions:
REMARK  status: ('A' for Active; 'I' for Inactive)
REMARK    1  A    between atoms: C_8  and  C_9 
REMARK    2  A    between atoms: C_9  and  C_10 
REMARK    3  A    between atoms: C_10  and  C_11 
REMARK       I    between atoms: C_11  and  N_12 
REMARK    4  A    between atoms: N_12  and  C_13 
REMARK    5  A    between atoms: C_13  and  C_14 
REMARK    6  A    between atoms: C_14  and  N_15 
REMARK    7  A    between atoms: C_14  and  C_19 
ROOT
HETATM    1  C   UNL     1      29.146  43.012  52.286  1.00  0.00     0.217 C 
HETATM    2  N   UNL     1      28.236  42.011  52.035  1.00  0.00    -0.359 N 
HETATM    3  O   UNL     1      29.091  44.085  51.687  1.00  0.00    -0.274 OA
HETATM    4  H   UNL     1      28.500  41.077  52.323  1.00  0.00     0.162 HD
ENDROOT
BRANCH   2   5
HETATM    5  C   UNL     1      27.273  42.096  50.935  1.00  0.00     0.160 C 
BRANCH   5   6
HETATM    6  C   UNL     1      25.907  42.813  51.232  1.00  0.00     0.239 C 
BRANCH   6   7
HETATM    7  N   UNL     1      24.712  42.136  50.535  1.00  0.00    -0.069 N 
HETATM    8  H   UNL     1      24.387  41.455  51.234  1.00  0.00     0.279 HD
HETATM    9  C   UNL     1      23.511  42.990  50.268  1.00  0.00     0.270 C 
HETATM   10  C   UNL     1      25.081  41.284  49.352  1.00  0.00     0.270 C 
ENDBRANCH   6   7
BRANCH   6  11
HETATM   11  C   UNL     1      25.871  44.343  51.105  1.00  0.00    -0.004 A 
HETATM   12  C   UNL     1      25.469  45.158  52.189  1.00  0.00     0.042 A 
HETATM   13 CL   UNL     1      25.011  44.484  53.718  1.00  0.00    -0.084 Cl
HETATM   14  C   UNL     1      25.417  46.552  52.080  1.00  0.00     0.024 A 
HETATM   15  C   UNL     1      25.790  47.174  50.895  1.00  0.00     0.002 A 
HETATM   16  C   UNL     1      26.225  46.403  49.825  1.00  0.00     0.001 A 
HETATM   17  C   UNL     1      26.271  45.009  49.930  1.00  0.00     0.011 A 
ENDBRANCH   6  11
ENDBRANCH   5   6
ENDBRANCH   2   5
BRANCH   1  18
HETATM   18  C   UNL     1      30.149  42.797  53.409  1.00  0.00     0.107 C 
BRANCH  18  19
HETATM   19  C   UNL     1      29.596  42.763  54.829  1.00  0.00     0.052 C 
BRANCH  19  20
HETATM   20  C   UNL     1      29.895  44.010  55.588  1.00  0.00    -0.008 A 
HETATM   21  C   UNL     1      29.270  45.240  55.492  1.00  0.00     0.032 A 
HETATM   22  C   UNL     1      28.150  45.725  54.650  1.00  0.00     0.070 C 
HETATM   23  N   UNL     1      29.904  46.055  56.389  1.00  0.00    -0.282 N 
HETATM   24  H   UNL     1      29.717  47.031  56.596  1.00  0.00     0.189 HD
HETATM   25  N   UNL     1      30.891  45.446  57.060  1.00  0.00    -0.179 NA
HETATM   26  C   UNL     1      30.900  44.201  56.578  1.00  0.00     0.059 A 
HETATM   27  C   UNL     1      31.885  43.217  57.091  1.00  0.00     0.073 C 
ENDBRANCH  19  20
ENDBRANCH  18  19
ENDBRANCH   1  18
TORSDOF 7
ENDMDL
MODEL 7
REMARK VINA RESULT:      -6.9      3.380      5.511
REMARK  7 active torsions:
REMARK  status: ('A' for Active; 'I' for Inactive)
REMARK    1  A    between atoms: C_8  and  C_9 
REMARK    2  A    between atoms: C_9  and  C_10 
REMARK    3  A    between atoms: C_10  and  C_11 
REMARK       I    between atoms: C_11  and  N_12 
REMARK    4  A    between atoms: N_12  and  C_13 
REMARK    5  A    between atoms: C_13  and  C_14 
REMARK    6  A    between atoms: C_14  and  N_15 
REMARK    7  A    between atoms: C_14  and  C_19 
ROOT
HETATM    1  C   UNL     1      28.637  42.118  52.742  1.00  0.00     0.217 C 
HETATM    2  N   UNL     1      28.828  40.953  52.035  1.00  0.00    -0.359 N 
HETATM    3  O   UNL     1      27.903  43.007  52.313  1.00  0.00    -0.274 OA
HETATM    4  H   UNL     1      29.646  40.407  52.277  1.00  0.00     0.162 HD
ENDROOT
BRANCH   2   5
HETATM    5  C   UNL     1      28.318  40.779  50.674  1.00  0.00     0.160 C 
BRANCH   5   6
HETATM    6  C   UNL     1      28.415  39.340  50.050  1.00  0.00     0.239 C 
BRANCH   6   7
HETATM    7  N   UNL     1      29.769  38.660  50.325  1.00  0.00    -0.069 N 
HETATM    8  H   UNL     1      30.324  39.408  50.761  1.00  0.00     0.279 HD
HETATM    9  C   UNL     1      29.779  37.556  51.338  1.00  0.00     0.270 C 
HETATM   10  C   UNL     1      30.553  38.308  49.091  1.00  0.00     0.270 C 
ENDBRANCH   6   7
BRANCH   6  11
HETATM   11  C   UNL     1      27.956  39.170  48.595  1.00  0.00    -0.004 A 
HETATM   12  C   UNL     1      27.246  38.019  48.181  1.00  0.00     0.042 A 
HETATM   13 CL   UNL     1      26.839  36.750  49.287  1.00  0.00    -0.084 Cl
HETATM   14  C   UNL     1      26.837  37.847  46.854  1.00  0.00     0.024 A 
HETATM   15  C   UNL     1      27.104  38.829  45.907  1.00  0.00     0.002 A 
HETATM   16  C   UNL     1      27.767  39.986  46.291  1.00  0.00     0.001 A 
HETATM   17  C   UNL     1      28.182  40.158  47.616  1.00  0.00     0.011 A 
ENDBRANCH   6  11
ENDBRANCH   5   6
ENDBRANCH   2   5
BRANCH   1  18
HETATM   18  C   UNL     1      29.266  42.225  54.122  1.00  0.00     0.107 C 
BRANCH  18  19
HETATM   19  C   UNL     1      30.405  43.226  54.283  1.00  0.00     0.052 C 
BRANCH  19  20
HETATM   20  C   UNL     1      30.185  44.163  55.421  1.00  0.00    -0.008 A 
HETATM   21  C   UNL     1      29.256  45.182  55.522  1.00  0.00     0.032 A 
HETATM   22  C   UNL     1      28.212  45.673  54.591  1.00  0.00     0.070 C 
HETATM   23  N   UNL     1      29.453  45.749  56.751  1.00  0.00    -0.282 N 
HETATM   24  H   UNL     1      28.955  46.526  57.174  1.00  0.00     0.189 HD
HETATM   25  N   UNL     1      30.438  45.175  57.453  1.00  0.00    -0.179 NA
HETATM   26  C   UNL     1      30.897  44.210  56.653  1.00  0.00     0.059 A 
HETATM   27  C   UNL     1      32.019  43.349  57.102  1.00  0.00     0.073 C 
ENDBRANCH  19  20
ENDBRANCH  18  19
ENDBRANCH   1  18
TORSDOF 7
ENDMDL
MODEL 8
REMARK VINA RESULT:      -6.7     13.265     14.808
REMARK  7 active torsions:
REMARK  status: ('A' for Active; 'I' for Inactive)
REMARK    1  A    between atoms: C_8  and  C_9 
REMARK    2  A    between atoms: C_9  and  C_10 
REMARK    3  A    between atoms: C_10  and  C_11 
REMARK       I    between atoms: C_11  and  N_12 
REMARK    4  A    between atoms: N_12  and  C_13 
REMARK    5  A    between atoms: C_13  and  C_14 
REMARK    6  A    between atoms: C_14  and  N_15 
REMARK    7  A    between atoms: C_14  and  C_19 
ROOT
HETATM    1  C   UNL     1      31.289  49.667  38.959  1.00  0.00     0.217 C 
HETATM    2  N   UNL     1      31.232  48.391  39.468  1.00  0.00    -0.359 N 
HETATM    3  O   UNL     1      30.563  50.011  38.027  1.00  0.00    -0.274 OA
HETATM    4  H   UNL     1      32.031  48.084  40.009  1.00  0.00     0.162 HD
ENDROOT
BRANCH   2   5
HETATM    5  C   UNL     1      30.442  47.335  38.831  1.00  0.00     0.160 C 
BRANCH   5   6
HETATM    6  C   UNL     1      28.999  47.077  39.396  1.00  0.00     0.239 C 
BRANCH   6   7
HETATM    7  N   UNL     1      28.529  45.625  39.195  1.00  0.00    -0.069 N 
HETATM    8  H   UNL     1      27.815  45.709  38.458  1.00  0.00     0.279 HD
HETATM    9  C   UNL     1      29.528  44.661  38.630  1.00  0.00     0.270 C 
HETATM   10  C   UNL     1      27.773  45.046  40.358  1.00  0.00     0.270 C 
ENDBRANCH   6   7
BRANCH   6  11
HETATM   11  C   UNL     1      27.911  48.102  39.046  1.00  0.00    -0.004 A 
HETATM   12  C   UNL     1      27.587  49.157  39.930  1.00  0.00     0.042 A 
HETATM   13 CL   UNL     1      28.406  49.364  41.443  1.00  0.00    -0.084 Cl
HETATM   14  C   UNL     1      26.587  50.087  39.628  1.00  0.00     0.024 A 
HETATM   15  C   UNL     1      25.897  50.005  38.425  1.00  0.00     0.002 A 
HETATM   16  C   UNL     1      26.218  49.003  37.519  1.00  0.00     0.001 A 
HETATM   17  C   UNL     1      27.214  48.068  37.822  1.00  0.00     0.011 A 
ENDBRANCH   6  11
ENDBRANCH   5   6
ENDBRANCH   2   5
BRANCH   1  18
HETATM   18  C   UNL     1      32.192  50.672  39.656  1.00  0.00     0.107 C 
BRANCH  18  19
HETATM   19  C   UNL     1      31.759  52.133  39.610  1.00  0.00     0.052 C 
BRANCH  19  20
HETATM   20  C   UNL     1      30.557  52.400  40.449  1.00  0.00    -0.008 A 
HETATM   21  C   UNL     1      30.458  52.387  41.829  1.00  0.00     0.032 A 
HETATM   22  C   UNL     1      31.451  52.121  42.895  1.00  0.00     0.070 C 
HETATM   23  N   UNL     1      29.155  52.691  42.114  1.00  0.00    -0.282 N 
HETATM   24  H   UNL     1      28.712  52.774  43.024  1.00  0.00     0.189 HD
HETATM   25  N   UNL     1      28.404  52.901  41.025  1.00  0.00    -0.179 NA
HETATM   26  C   UNL     1      29.243  52.722  40.003  1.00  0.00     0.059 A 
HETATM   27  C   UNL     1      28.755  52.867  38.610  1.00  0.00     0.073 C 
ENDBRANCH  19  20
ENDBRANCH  18  19
ENDBRANCH   1  18
TORSDOF 7
ENDMDL
MODEL 9
REMARK VINA RESULT:      -6.6     12.679     14.243
REMARK  7 active torsions:
REMARK  status: ('A' for Active; 'I' for Inactive)
REMARK    1  A    between atoms: C_8  and  C_9 
REMARK    2  A    between atoms: C_9  and  C_10 
REMARK    3  A    between atoms: C_10  and  C_11 
REMARK       I    between atoms: C_11  and  N_12 
REMARK    4  A    between atoms: N_12  and  C_13 
REMARK    5  A    between atoms: C_13  and  C_14 
REMARK    6  A    between atoms: C_14  and  N_15 
REMARK    7  A    between atoms: C_14  and  C_19 
ROOT
HETATM    1  C   UNL     1      30.948  48.332  41.488  1.00  0.00     0.217 C 
HETATM    2  N   UNL     1      29.633  48.468  41.866  1.00  0.00    -0.359 N 
HETATM    3  O   UNL     1      31.248  48.016  40.337  1.00  0.00    -0.274 OA
HETATM    4  H   UNL     1      29.442  48.433  42.860  1.00  0.00     0.162 HD
ENDROOT
BRANCH   2   5
HETATM    5  C   UNL     1      28.528  48.082  40.985  1.00  0.00     0.160 C 
BRANCH   5   6
HETATM    6  C   UNL     1      27.634  49.238  40.408  1.00  0.00     0.239 C 
BRANCH   6   7
HETATM    7  N   UNL     1      26.402  48.716  39.646  1.00  0.00    -0.069 N 
HETATM    8  H   UNL     1      25.794  48.360  40.396  1.00  0.00     0.279 HD
HETATM    9  C   UNL     1      25.559  49.736  38.943  1.00  0.00     0.270 C 
HETATM   10  C   UNL     1      26.661  47.506  38.793  1.00  0.00     0.270 C 
ENDBRANCH   6   7
BRANCH   6  11
HETATM   11  C   UNL     1      28.347  50.376  39.664  1.00  0.00    -0.004 A 
HETATM   12  C   UNL     1      28.138  51.728  40.023  1.00  0.00     0.042 A 
HETATM   13 CL   UNL     1      27.086  52.176  41.325  1.00  0.00    -0.084 Cl
HETATM   14  C   UNL     1      28.770  52.774  39.342  1.00  0.00     0.024 A 
HETATM   15  C   UNL     1      29.647  52.500  38.300  1.00  0.00     0.002 A 
HETATM   16  C   UNL     1      29.902  51.181  37.949  1.00  0.00     0.001 A 
HETATM   17  C   UNL     1      29.266  50.134  38.624  1.00  0.00     0.011 A 
ENDBRANCH   6  11
ENDBRANCH   5   6
ENDBRANCH   2   5
BRANCH   1  18
HETATM   18  C   UNL     1      32.022  48.697  42.501  1.00  0.00     0.107 C 
BRANCH  18  19
HETATM   19  C   UNL     1      31.944  50.090  43.114  1.00  0.00     0.052 C 
BRANCH  19  20
HETATM   20  C   UNL     1      32.246  51.166  42.127  1.00  0.00    -0.008 A 
HETATM   21  C   UNL     1      33.296  51.233  41.230  1.00  0.00     0.032 A 
HETATM   22  C   UNL     1      34.425  50.314  40.949  1.00  0.00     0.070 C 
HETATM   23  N   UNL     1      33.136  52.409  40.551  1.00  0.00    -0.282 N 
HETATM   24  H   UNL     1      33.717  52.796  39.814  1.00  0.00     0.189 HD
HETATM   25  N   UNL     1      32.062  53.109  40.940  1.00  0.00    -0.179 NA
HETATM   26  C   UNL     1      31.513  52.366  41.903  1.00  0.00     0.059 A 
HETATM   27  C   UNL     1      30.283  52.835  42.589  1.00  0.00     0.073 C 
ENDBRANCH  19  20
ENDBRANCH  18  19
ENDBRANCH   1  18
TORSDOF 7
ENDMDL
MODEL 10
REMARK VINA RESULT:      -6.5     13.201     15.755
REMARK  7 active torsions:
REMARK  status: ('A' for Active; 'I' for Inactive)
REMARK    1  A    between atoms: C_8  and  C_9 
REMARK    2  A    between atoms: C_9  and  C_10 
REMARK    3  A    between atoms: C_10  and  C_11 
REMARK       I    between atoms: C_11  and  N_12 
REMARK    4  A    between atoms: N_12  and  C_13 
REMARK    5  A    between atoms: C_13  and  C_14 
REMARK    6  A    between atoms: C_14  and  N_15 
REMARK    7  A    between atoms: C_14  and  C_19 
ROOT
HETATM    1  C   UNL     1      31.025  50.270  38.369  1.00  0.00     0.217 C 
HETATM    2  N   UNL     1      32.341  50.347  38.761  1.00  0.00    -0.359 N 
HETATM    3  O   UNL     1      30.533  51.122  37.631  1.00  0.00    -0.274 OA
HETATM    4  H   UNL     1      32.601  49.809  39.579  1.00  0.00     0.162 HD
ENDROOT
BRANCH   2   5
HETATM    5  C   UNL     1      33.171  51.518  38.471  1.00  0.00     0.160 C 
BRANCH   5   6
HETATM    6  C   UNL     1      33.395  52.546  39.638  1.00  0.00     0.239 C 
BRANCH   6   7
HETATM    7  N   UNL     1      34.833  53.093  39.684  1.00  0.00    -0.069 N 
HETATM    8  H   UNL     1      35.028  53.157  40.692  1.00  0.00     0.279 HD
HETATM    9  C   UNL     1      35.915  52.201  39.156  1.00  0.00     0.270 C 
HETATM   10  C   UNL     1      34.977  54.510  39.204  1.00  0.00     0.270 C 
ENDBRANCH   6   7
BRANCH   6  11
HETATM   11  C   UNL     1      32.867  52.161  41.027  1.00  0.00    -0.004 A 
HETATM   12  C   UNL     1      31.550  52.488  41.426  1.00  0.00     0.042 A 
HETATM   13 CL   UNL     1      30.457  53.321  40.371  1.00  0.00    -0.084 Cl
HETATM   14  C   UNL     1      31.064  52.156  42.695  1.00  0.00     0.024 A 
HETATM   15  C   UNL     1      31.869  51.468  43.594  1.00  0.00     0.002 A 
HETATM   16  C   UNL     1      33.154  51.100  43.218  1.00  0.00     0.001 A 
HETATM   17  C   UNL     1      33.644  51.436  41.952  1.00  0.00     0.011 A 
ENDBRANCH   6  11
ENDBRANCH   5   6
ENDBRANCH   2   5
BRANCH   1  18
HETATM   18  C   UNL     1      30.230  49.040  38.780  1.00  0.00     0.107 C 
BRANCH  18  19
HETATM   19  C   UNL     1      30.007  48.833  40.274  1.00  0.00     0.052 C 
BRANCH  19  20
HETATM   20  C   UNL     1      28.576  48.584  40.609  1.00  0.00    -0.008 A 
HETATM   21  C   UNL     1      27.632  49.492  41.054  1.00  0.00     0.032 A 
HETATM   22  C   UNL     1      27.705  50.945  41.337  1.00  0.00     0.070 C 
HETATM   23  N   UNL     1      26.476  48.780  41.219  1.00  0.00    -0.282 N 
HETATM   24  H   UNL     1      25.570  49.113  41.534  1.00  0.00     0.189 HD
HETATM   25  N   UNL     1      26.599  47.481  40.914  1.00  0.00    -0.179 NA
HETATM   26  C   UNL     1      27.875  47.347  40.546  1.00  0.00     0.059 A 
HETATM   27  C   UNL     1      28.390  46.017  40.137  1.00  0.00     0.073 C 
ENDBRANCH  19  20
ENDBRANCH  18  19
ENDBRANCH   1  18
TORSDOF 7
ENDMDL
