MODEL 1
REMARK VINA RESULT:      -9.0      0.000      0.000
REMARK  3 active torsions:
REMARK  status: ('A' for Active; 'I' for Inactive)
REMARK    1  A    between atoms: C_9  and  C_10 
REMARK       I    between atoms: C_10  and  N_11 
REMARK    2  A    between atoms: N_11  and  C_12 
REMARK    3  A    between atoms: C_13  and  O_14 
ROOT
HETATM    1  C   UNL     1      23.557  46.868  49.230  1.00  0.00     0.268 C 
HETATM    2  N   UNL     1      23.316  48.214  49.175  1.00  0.00    -0.344 N 
HETATM    3  O   UNL     1      23.072  46.093  48.407  1.00  0.00    -0.266 OA
HETATM    4  H   UNL     1      23.775  48.834  49.824  1.00  0.00     0.163 HD
ENDROOT
BRANCH   1   5
HETATM    5  C   UNL     1      24.392  46.427  50.321  1.00  0.00     0.102 A 
HETATM    6  N   UNL     1      24.643  47.236  51.406  1.00  0.00    -0.351 N 
HETATM    7  C   UNL     1      25.530  46.644  52.273  1.00  0.00     0.043 A 
HETATM    8  H   UNL     1      24.251  48.162  51.517  1.00  0.00     0.166 HD
HETATM    9  C   UNL     1      25.826  45.381  51.767  1.00  0.00    -0.001 A 
HETATM   10  C   UNL     1      26.082  47.135  53.456  1.00  0.00     0.031 A 
HETATM   11  C   UNL     1      26.722  44.533  52.470  1.00  0.00    -0.043 A 
HETATM   12  C   UNL     1      25.092  45.256  50.546  1.00  0.00     0.049 A 
HETATM   13  C   UNL     1      27.316  45.036  53.659  1.00  0.00    -0.055 A 
HETATM   14  C   UNL     1      27.073  43.154  51.973  1.00  0.00     0.049 C 
HETATM   15  C   UNL     1      28.296  44.206  54.449  1.00  0.00     0.049 C 
HETATM   16  C   UNL     1      26.982  46.312  54.134  1.00  0.00     0.009 A 
ENDBRANCH   1   5
BRANCH   2  17
HETATM   17  C   UNL     1      22.370  48.785  48.238  1.00  0.00     0.147 C 
HETATM   18  C   UNL     1      22.834  50.115  47.563  1.00  0.00     0.149 C 
HETATM   19  C   UNL     1      22.301  51.260  48.449  1.00  0.00     0.073 C 
HETATM   20  C   UNL     1      21.101  50.630  49.085  1.00  0.00    -0.047 A 
HETATM   21  C   UNL     1      21.134  49.237  48.962  1.00  0.00    -0.027 A 
HETATM   22  C   UNL     1      20.074  51.260  49.767  1.00  0.00     0.008 A 
HETATM   23  C   UNL     1      20.141  48.446  49.520  1.00  0.00     0.010 A 
HETATM   24  C   UNL     1      19.097  49.073  50.201  1.00  0.00     0.001 A 
HETATM   25  C   UNL     1      19.065  50.472  50.324  1.00  0.00     0.001 A 
BRANCH  18  26
HETATM   26  O   UNL     1      24.242  50.234  47.386  1.00  0.00    -0.393 OA
HETATM   27  H   UNL     1      24.631  50.341  48.279  1.00  0.00     0.210 HD
ENDBRANCH  18  26
ENDBRANCH   2  17
TORSDOF 3
ENDMDL
MODEL 2
REMARK VINA RESULT:      -8.6      1.544      7.875
REMARK  3 active torsions:
REMARK  status: ('A' for Active; 'I' for Inactive)
REMARK    1  A    between atoms: C_9  and  C_10 
REMARK       I    between atoms: C_10  and  N_11 
REMARK    2  A    between atoms: N_11  and  C_12 
REMARK    3  A    between atoms: C_13  and  O_14 
ROOT
HETATM    1  C   UNL     1      23.715  48.148  49.279  1.00  0.00     0.268 C 
HETATM    2  N   UNL     1      23.869  46.865  49.731  1.00  0.00    -0.344 N 
HETATM    3  O   UNL     1      24.681  48.835  48.949  1.00  0.00    -0.266 OA
HETATM    4  H   UNL     1      23.056  46.303  49.936  1.00  0.00     0.163 HD
ENDROOT
BRANCH   1   5
HETATM    5  C   UNL     1      22.358  48.637  49.239  1.00  0.00     0.102 A 
HETATM    6  N   UNL     1      21.284  47.794  49.421  1.00  0.00    -0.351 N 
HETATM    7  C   UNL     1      20.095  48.462  49.255  1.00  0.00     0.043 A 
HETATM    8  H   UNL     1      21.375  46.805  49.611  1.00  0.00     0.166 HD
HETATM    9  C   UNL     1      20.399  49.799  49.011  1.00  0.00    -0.001 A 
HETATM   10  C   UNL     1      18.787  47.978  49.303  1.00  0.00     0.031 A 
HETATM   11  C   UNL     1      19.349  50.733  48.806  1.00  0.00    -0.043 A 
HETATM   12  C   UNL     1      21.825  49.894  49.018  1.00  0.00     0.049 A 
HETATM   13  C   UNL     1      18.014  50.246  48.820  1.00  0.00    -0.055 A 
HETATM   14  C   UNL     1      19.619  52.193  48.546  1.00  0.00     0.049 C 
HETATM   15  C   UNL     1      16.847  51.170  48.586  1.00  0.00     0.049 C 
HETATM   16  C   UNL     1      17.757  48.891  49.077  1.00  0.00     0.009 A 
ENDBRANCH   1   5
BRANCH   2  17
HETATM   17  C   UNL     1      25.176  46.292  49.980  1.00  0.00     0.147 C 
HETATM   18  C   UNL     1      25.344  44.810  49.515  1.00  0.00     0.149 C 
HETATM   19  C   UNL     1      24.978  43.931  50.727  1.00  0.00     0.073 C 
HETATM   20  C   UNL     1      25.295  44.837  51.877  1.00  0.00    -0.047 A 
HETATM   21  C   UNL     1      25.412  46.167  51.457  1.00  0.00    -0.027 A 
HETATM   22  C   UNL     1      25.421  44.499  53.213  1.00  0.00     0.008 A 
HETATM   23  C   UNL     1      25.658  47.184  52.367  1.00  0.00     0.010 A 
HETATM   24  C   UNL     1      25.797  46.850  53.715  1.00  0.00     0.001 A 
HETATM   25  C   UNL     1      25.678  45.516  54.135  1.00  0.00     0.001 A 
BRANCH  18  26
HETATM   26  O   UNL     1      24.561  44.450  48.381  1.00  0.00    -0.393 OA
HETATM   27  H   UNL     1      23.639  44.349  48.695  1.00  0.00     0.210 HD
ENDBRANCH  18  26
ENDBRANCH   2  17
TORSDOF 3
ENDMDL
MODEL 3
REMARK VINA RESULT:      -8.6      1.387      2.238
REMARK  3 active torsions:
REMARK  status: ('A' for Active; 'I' for Inactive)
REMARK    1  A    between atoms: C_9  and  C_10 
REMARK       I    between atoms: C_10  and  N_11 
REMARK    2  A    between atoms: N_11  and  C_12 
REMARK    3  A    between atoms: C_13  and  O_14 
ROOT
HETATM    1  C   UNL     1      24.361  48.333  49.443  1.00  0.00     0.268 C 
HETATM    2  N   UNL     1      23.022  48.412  49.715  1.00  0.00    -0.344 N 
HETATM    3  O   UNL     1      24.882  49.026  48.570  1.00  0.00    -0.266 OA
HETATM    4  H   UNL     1      22.631  47.878  50.477  1.00  0.00     0.163 HD
ENDROOT
BRANCH   1   5
HETATM    5  C   UNL     1      25.102  47.376  50.229  1.00  0.00     0.102 A 
HETATM    6  N   UNL     1      25.914  46.434  49.636  1.00  0.00    -0.351 N 
HETATM    7  C   UNL     1      26.447  45.580  50.571  1.00  0.00     0.043 A 
HETATM    8  H   UNL     1      26.056  46.366  48.637  1.00  0.00     0.166 HD
HETATM    9  C   UNL     1      26.016  46.011  51.823  1.00  0.00    -0.001 A 
HETATM   10  C   UNL     1      27.271  44.469  50.395  1.00  0.00     0.031 A 
HETATM   11  C   UNL     1      26.425  45.310  52.988  1.00  0.00    -0.043 A 
HETATM   12  C   UNL     1      25.183  47.149  51.591  1.00  0.00     0.049 A 
HETATM   13  C   UNL     1      27.238  44.157  52.818  1.00  0.00    -0.055 A 
HETATM   14  C   UNL     1      25.996  45.736  54.369  1.00  0.00     0.049 C 
HETATM   15  C   UNL     1      27.693  43.345  54.004  1.00  0.00     0.049 C 
HETATM   16  C   UNL     1      27.653  43.765  51.537  1.00  0.00     0.009 A 
ENDBRANCH   1   5
BRANCH   2  17
HETATM   17  C   UNL     1      22.121  49.205  48.904  1.00  0.00     0.147 C 
HETATM   18  C   UNL     1      22.031  50.713  49.303  1.00  0.00     0.149 C 
HETATM   19  C   UNL     1      20.867  50.828  50.307  1.00  0.00     0.073 C 
HETATM   20  C   UNL     1      20.001  49.671  49.915  1.00  0.00    -0.047 A 
HETATM   21  C   UNL     1      20.704  48.759  49.120  1.00  0.00    -0.027 A 
HETATM   22  C   UNL     1      18.689  49.430  50.285  1.00  0.00     0.008 A 
HETATM   23  C   UNL     1      20.106  47.587  48.680  1.00  0.00     0.010 A 
HETATM   24  C   UNL     1      18.781  47.341  49.040  1.00  0.00     0.001 A 
HETATM   25  C   UNL     1      18.077  48.257  49.838  1.00  0.00     0.001 A 
BRANCH  18  26
HETATM   26  O   UNL     1      23.226  51.253  49.859  1.00  0.00    -0.393 OA
HETATM   27  H   UNL     1      23.972  50.876  49.348  1.00  0.00     0.210 HD
ENDBRANCH  18  26
ENDBRANCH   2  17
TORSDOF 3
ENDMDL
MODEL 4
REMARK VINA RESULT:      -8.2      6.283      8.365
REMARK  3 active torsions:
REMARK  status: ('A' for Active; 'I' for Inactive)
REMARK    1  A    between atoms: C_9  and  C_10 
REMARK       I    between atoms: C_10  and  N_11 
REMARK    2  A    between atoms: N_11  and  C_12 
REMARK    3  A    between atoms: C_13  and  O_14 
ROOT
HETATM    1  C   UNL     1      27.414  43.739  50.599  1.00  0.00     0.268 C 
HETATM    2  N   UNL     1      27.368  42.398  50.331  1.00  0.00    -0.344 N 
HETATM    3  O   UNL     1      27.161  44.578  49.735  1.00  0.00    -0.266 OA
HETATM    4  H   UNL     1      27.519  41.731  51.073  1.00  0.00     0.163 HD
ENDROOT
BRANCH   1   5
HETATM    5  C   UNL     1      27.796  44.094  51.945  1.00  0.00     0.102 A 
HETATM    6  N   UNL     1      27.137  45.081  52.643  1.00  0.00    -0.351 N 
HETATM    7  C   UNL     1      27.727  45.304  53.864  1.00  0.00     0.043 A 
HETATM    8  H   UNL     1      26.348  45.596  52.274  1.00  0.00     0.166 HD
HETATM    9  C   UNL     1      28.772  44.394  53.993  1.00  0.00    -0.001 A 
HETATM   10  C   UNL     1      27.409  46.239  54.849  1.00  0.00     0.031 A 
HETATM   11  C   UNL     1      29.561  44.392  55.174  1.00  0.00    -0.043 A 
HETATM   12  C   UNL     1      28.793  43.632  52.784  1.00  0.00     0.049 A 
HETATM   13  C   UNL     1      29.267  45.361  56.171  1.00  0.00    -0.055 A 
HETATM   14  C   UNL     1      30.700  43.424  55.372  1.00  0.00     0.049 C 
HETATM   15  C   UNL     1      30.075  45.439  57.441  1.00  0.00     0.049 C 
HETATM   16  C   UNL     1      28.199  46.254  55.998  1.00  0.00     0.009 A 
ENDBRANCH   1   5
BRANCH   2  17
HETATM   17  C   UNL     1      27.160  41.892  48.990  1.00  0.00     0.147 C 
HETATM   18  C   UNL     1      25.663  41.761  48.561  1.00  0.00     0.149 C 
HETATM   19  C   UNL     1      25.231  40.327  48.926  1.00  0.00     0.073 C 
HETATM   20  C   UNL     1      26.531  39.585  48.869  1.00  0.00    -0.047 A 
HETATM   21  C   UNL     1      27.618  40.465  48.899  1.00  0.00    -0.027 A 
HETATM   22  C   UNL     1      26.724  38.214  48.841  1.00  0.00     0.008 A 
HETATM   23  C   UNL     1      28.921  39.990  48.901  1.00  0.00     0.010 A 
HETATM   24  C   UNL     1      29.126  38.611  48.863  1.00  0.00     0.001 A 
HETATM   25  C   UNL     1      28.034  37.729  48.833  1.00  0.00     0.001 A 
BRANCH  18  26
HETATM   26  O   UNL     1      24.788  42.713  49.157  1.00  0.00    -0.393 OA
HETATM   27  H   UNL     1      24.648  42.428  50.083  1.00  0.00     0.210 HD
ENDBRANCH  18  26
ENDBRANCH   2  17
TORSDOF 3
ENDMDL
MODEL 5
REMARK VINA RESULT:      -8.2      6.805     10.354
REMARK  3 active torsions:
REMARK  status: ('A' for Active; 'I' for Inactive)
REMARK    1  A    between atoms: C_9  and  C_10 
REMARK       I    between atoms: C_10  and  N_11 
REMARK    2  A    between atoms: N_11  and  C_12 
REMARK    3  A    between atoms: C_13  and  O_14 
ROOT
HETATM    1  C   UNL     1      15.352  53.448  49.754  1.00  0.00     0.268 C 
HETATM    2  N   UNL     1      15.272  54.805  49.592  1.00  0.00    -0.344 N 
HETATM    3  O   UNL     1      14.450  52.811  50.296  1.00  0.00    -0.266 OA
HETATM    4  H   UNL     1      15.997  55.295  49.090  1.00  0.00     0.163 HD
ENDROOT
BRANCH   1   5
HETATM    5  C   UNL     1      16.564  52.832  49.271  1.00  0.00     0.102 A 
HETATM    6  N   UNL     1      16.710  52.473  47.949  1.00  0.00    -0.351 N 
HETATM    7  C   UNL     1      17.906  51.828  47.740  1.00  0.00     0.043 A 
HETATM    8  H   UNL     1      16.003  52.632  47.244  1.00  0.00     0.166 HD
HETATM    9  C   UNL     1      18.589  51.814  48.952  1.00  0.00    -0.001 A 
HETATM   10  C   UNL     1      18.420  51.263  46.573  1.00  0.00     0.031 A 
HETATM   11  C   UNL     1      19.873  51.211  49.030  1.00  0.00    -0.043 A 
HETATM   12  C   UNL     1      17.738  52.462  49.901  1.00  0.00     0.049 A 
HETATM   13  C   UNL     1      20.393  50.603  47.855  1.00  0.00    -0.055 A 
HETATM   14  C   UNL     1      20.662  51.174  50.313  1.00  0.00     0.049 C 
HETATM   15  C   UNL     1      21.736  49.920  47.863  1.00  0.00     0.049 C 
HETATM   16  C   UNL     1      19.669  50.648  46.654  1.00  0.00     0.009 A 
ENDBRANCH   1   5
BRANCH   2  17
HETATM   17  C   UNL     1      14.195  55.583  50.168  1.00  0.00     0.147 C 
HETATM   18  C   UNL     1      13.753  56.821  49.324  1.00  0.00     0.149 C 
HETATM   19  C   UNL     1      14.585  58.015  49.835  1.00  0.00     0.073 C 
HETATM   20  C   UNL     1      14.879  57.609  51.247  1.00  0.00    -0.047 A 
HETATM   21  C   UNL     1      14.655  56.241  51.438  1.00  0.00    -0.027 A 
HETATM   22  C   UNL     1      15.360  58.402  52.274  1.00  0.00     0.008 A 
HETATM   23  C   UNL     1      14.907  55.640  52.662  1.00  0.00     0.010 A 
HETATM   24  C   UNL     1      15.383  56.434  53.706  1.00  0.00     0.001 A 
HETATM   25  C   UNL     1      15.608  57.806  53.513  1.00  0.00     0.001 A 
BRANCH  18  26
HETATM   26  O   UNL     1      13.909  56.669  47.917  1.00  0.00    -0.393 OA
HETATM   27  H   UNL     1      13.350  55.910  47.651  1.00  0.00     0.210 HD
ENDBRANCH  18  26
ENDBRANCH   2  17
TORSDOF 3
ENDMDL
MODEL 6
REMARK VINA RESULT:      -8.2      1.806      2.584
REMARK  3 active torsions:
REMARK  status: ('A' for Active; 'I' for Inactive)
REMARK    1  A    between atoms: C_9  and  C_10 
REMARK       I    between atoms: C_10  and  N_11 
REMARK    2  A    between atoms: N_11  and  C_12 
REMARK    3  A    between atoms: C_13  and  O_14 
ROOT
HETATM    1  C   UNL     1      24.644  47.802  50.023  1.00  0.00     0.268 C 
HETATM    2  N   UNL     1      23.353  47.458  49.724  1.00  0.00    -0.344 N 
HETATM    3  O   UNL     1      25.186  48.778  49.505  1.00  0.00    -0.266 OA
HETATM    4  H   UNL     1      22.912  46.690  50.209  1.00  0.00     0.163 HD
ENDROOT
BRANCH   1   5
HETATM    5  C   UNL     1      25.320  46.936  50.958  1.00  0.00     0.102 A 
HETATM    6  N   UNL     1      25.358  47.222  52.304  1.00  0.00    -0.351 N 
HETATM    7  C   UNL     1      26.128  46.309  52.985  1.00  0.00     0.043 A 
HETATM    8  H   UNL     1      24.908  48.028  52.719  1.00  0.00     0.166 HD
HETATM    9  C   UNL     1      26.562  45.361  52.062  1.00  0.00    -0.001 A 
HETATM   10  C   UNL     1      26.465  46.260  54.337  1.00  0.00     0.031 A 
HETATM   11  C   UNL     1      27.379  44.282  52.492  1.00  0.00    -0.043 A 
HETATM   12  C   UNL     1      26.034  45.762  50.796  1.00  0.00     0.049 A 
HETATM   13  C   UNL     1      27.755  44.240  53.862  1.00  0.00    -0.055 A 
HETATM   14  C   UNL     1      27.870  43.223  51.539  1.00  0.00     0.049 C 
HETATM   15  C   UNL     1      28.640  43.140  54.391  1.00  0.00     0.049 C 
HETATM   16  C   UNL     1      27.287  45.214  54.756  1.00  0.00     0.009 A 
ENDBRANCH   1   5
BRANCH   2  17
HETATM   17  C   UNL     1      22.601  48.132  48.686  1.00  0.00     0.147 C 
HETATM   18  C   UNL     1      21.780  49.371  49.167  1.00  0.00     0.149 C 
HETATM   19  C   UNL     1      20.376  48.847  49.529  1.00  0.00     0.073 C 
HETATM   20  C   UNL     1      20.259  47.637  48.655  1.00  0.00    -0.047 A 
HETATM   21  C   UNL     1      21.510  47.236  48.174  1.00  0.00    -0.027 A 
HETATM   22  C   UNL     1      19.115  46.918  48.351  1.00  0.00     0.008 A 
HETATM   23  C   UNL     1      21.642  46.108  47.379  1.00  0.00     0.010 A 
HETATM   24  C   UNL     1      20.493  45.383  47.060  1.00  0.00     0.001 A 
HETATM   25  C   UNL     1      19.238  45.786  47.543  1.00  0.00     0.001 A 
BRANCH  18  26
HETATM   26  O   UNL     1      22.351  50.073  50.267  1.00  0.00    -0.393 OA
HETATM   27  H   UNL     1      23.008  49.472  50.676  1.00  0.00     0.210 HD
ENDBRANCH  18  26
ENDBRANCH   2  17
TORSDOF 3
ENDMDL
MODEL 7
REMARK VINA RESULT:      -7.9     19.756     21.105
REMARK  3 active torsions:
REMARK  status: ('A' for Active; 'I' for Inactive)
REMARK    1  A    between atoms: C_9  and  C_10 
REMARK       I    between atoms: C_10  and  N_11 
REMARK    2  A    between atoms: N_11  and  C_12 
REMARK    3  A    between atoms: C_13  and  O_14 
ROOT
HETATM    1  C   UNL     1      37.636  45.487  63.940  1.00  0.00     0.268 C 
HETATM    2  N   UNL     1      38.239  46.559  64.542  1.00  0.00    -0.344 N 
HETATM    3  O   UNL     1      36.607  45.616  63.278  1.00  0.00    -0.266 OA
HETATM    4  H   UNL     1      39.115  46.436  65.027  1.00  0.00     0.163 HD
ENDROOT
BRANCH   1   5
HETATM    5  C   UNL     1      38.274  44.211  64.153  1.00  0.00     0.102 A 
HETATM    6  N   UNL     1      38.952  43.932  65.319  1.00  0.00    -0.351 N 
HETATM    7  C   UNL     1      39.548  42.695  65.263  1.00  0.00     0.043 A 
HETATM    8  H   UNL     1      39.028  44.580  66.092  1.00  0.00     0.166 HD
HETATM    9  C   UNL     1      39.202  42.121  64.043  1.00  0.00    -0.001 A 
HETATM   10  C   UNL     1      40.360  42.054  66.199  1.00  0.00     0.031 A 
HETATM   11  C   UNL     1      39.679  40.824  63.714  1.00  0.00    -0.043 A 
HETATM   12  C   UNL     1      38.390  43.081  63.363  1.00  0.00     0.049 A 
HETATM   13  C   UNL     1      40.533  40.175  64.646  1.00  0.00    -0.055 A 
HETATM   14  C   UNL     1      39.330  40.151  62.412  1.00  0.00     0.049 C 
HETATM   15  C   UNL     1      41.099  38.808  64.360  1.00  0.00     0.049 C 
HETATM   16  C   UNL     1      40.848  40.790  65.867  1.00  0.00     0.009 A 
ENDBRANCH   1   5
BRANCH   2  17
HETATM   17  C   UNL     1      37.631  47.873  64.553  1.00  0.00     0.147 C 
HETATM   18  C   UNL     1      38.640  49.065  64.532  1.00  0.00     0.149 C 
HETATM   19  C   UNL     1      38.914  49.428  66.005  1.00  0.00     0.073 C 
HETATM   20  C   UNL     1      37.655  48.977  66.678  1.00  0.00    -0.047 A 
HETATM   21  C   UNL     1      36.927  48.105  65.859  1.00  0.00    -0.027 A 
HETATM   22  C   UNL     1      37.216  49.288  67.953  1.00  0.00     0.008 A 
HETATM   23  C   UNL     1      35.746  47.529  66.302  1.00  0.00     0.010 A 
HETATM   24  C   UNL     1      35.292  47.845  67.582  1.00  0.00     0.001 A 
HETATM   25  C   UNL     1      36.022  48.719  68.403  1.00  0.00     0.001 A 
BRANCH  18  26
HETATM   26  O   UNL     1      39.860  48.801  63.847  1.00  0.00    -0.393 OA
HETATM   27  H   UNL     1      40.538  49.389  64.239  1.00  0.00     0.210 HD
ENDBRANCH  18  26
ENDBRANCH   2  17
TORSDOF 3
ENDMDL
MODEL 8
REMARK VINA RESULT:      -7.8     12.904     14.261
REMARK  3 active torsions:
REMARK  status: ('A' for Active; 'I' for Inactive)
REMARK    1  A    between atoms: C_9  and  C_10 
REMARK       I    between atoms: C_10  and  N_11 
REMARK    2  A    between atoms: N_11  and  C_12 
REMARK    3  A    between atoms: C_13  and  O_14 
ROOT
HETATM    1  C   UNL     1      32.792  50.637  42.774  1.00  0.00     0.268 C 
HETATM    2  N   UNL     1      32.379  50.270  41.521  1.00  0.00    -0.344 N 
HETATM    3  O   UNL     1      32.045  50.555  43.748  1.00  0.00    -0.266 OA
HETATM    4  H   UNL     1      33.030  50.289  40.751  1.00  0.00     0.163 HD
ENDROOT
BRANCH   1   5
HETATM    5  C   UNL     1      34.142  51.139  42.863  1.00  0.00     0.102 A 
HETATM    6  N   UNL     1      34.529  51.984  43.879  1.00  0.00    -0.351 N 
HETATM    7  C   UNL     1      35.828  52.400  43.712  1.00  0.00     0.043 A 
HETATM    8  H   UNL     1      33.913  52.284  44.623  1.00  0.00     0.166 HD
HETATM    9  C   UNL     1      36.327  51.762  42.579  1.00  0.00    -0.001 A 
HETATM   10  C   UNL     1      36.585  53.287  44.477  1.00  0.00     0.031 A 
HETATM   11  C   UNL     1      37.664  52.002  42.168  1.00  0.00    -0.043 A 
HETATM   12  C   UNL     1      35.259  50.963  42.066  1.00  0.00     0.049 A 
HETATM   13  C   UNL     1      38.435  52.929  42.921  1.00  0.00    -0.055 A 
HETATM   14  C   UNL     1      38.259  51.333  40.955  1.00  0.00     0.049 C 
HETATM   15  C   UNL     1      39.854  53.256  42.534  1.00  0.00     0.049 C 
HETATM   16  C   UNL     1      37.891  53.542  44.060  1.00  0.00     0.009 A 
ENDBRANCH   1   5
BRANCH   2  17
HETATM   17  C   UNL     1      31.005  49.901  41.245  1.00  0.00     0.147 C 
HETATM   18  C   UNL     1      30.828  48.777  40.175  1.00  0.00     0.149 C 
HETATM   19  C   UNL     1      30.671  49.491  38.818  1.00  0.00     0.073 C 
HETATM   20  C   UNL     1      30.102  50.815  39.225  1.00  0.00    -0.047 A 
HETATM   21  C   UNL     1      30.284  51.045  40.593  1.00  0.00    -0.027 A 
HETATM   22  C   UNL     1      29.506  51.766  38.415  1.00  0.00     0.008 A 
HETATM   23  C   UNL     1      29.873  52.234  41.178  1.00  0.00     0.010 A 
HETATM   24  C   UNL     1      29.262  53.194  40.371  1.00  0.00     0.001 A 
HETATM   25  C   UNL     1      29.080  52.962  38.999  1.00  0.00     0.001 A 
BRANCH  18  26
HETATM   26  O   UNL     1      31.893  47.832  40.123  1.00  0.00    -0.393 OA
HETATM   27  H   UNL     1      32.718  48.343  39.993  1.00  0.00     0.210 HD
ENDBRANCH  18  26
ENDBRANCH   2  17
TORSDOF 3
ENDMDL
MODEL 9
REMARK VINA RESULT:      -7.8      7.099      8.329
REMARK  3 active torsions:
REMARK  status: ('A' for Active; 'I' for Inactive)
REMARK    1  A    between atoms: C_9  and  C_10 
REMARK       I    between atoms: C_10  and  N_11 
REMARK    2  A    between atoms: N_11  and  C_12 
REMARK    3  A    between atoms: C_13  and  O_14 
ROOT
HETATM    1  C   UNL     1      28.472  40.667  51.397  1.00  0.00     0.268 C 
HETATM    2  N   UNL     1      27.699  40.956  50.305  1.00  0.00    -0.344 N 
HETATM    3  O   UNL     1      29.017  39.572  51.529  1.00  0.00    -0.266 OA
HETATM    4  H   UNL     1      27.314  41.882  50.191  1.00  0.00     0.163 HD
ENDROOT
BRANCH   1   5
HETATM    5  C   UNL     1      28.580  41.718  52.380  1.00  0.00     0.102 A 
HETATM    6  N   UNL     1      27.702  42.778  52.400  1.00  0.00    -0.351 N 
HETATM    7  C   UNL     1      28.051  43.695  53.362  1.00  0.00     0.043 A 
HETATM    8  H   UNL     1      26.929  42.877  51.754  1.00  0.00     0.166 HD
HETATM    9  C   UNL     1      29.161  43.191  54.033  1.00  0.00    -0.001 A 
HETATM   10  C   UNL     1      27.465  44.920  53.679  1.00  0.00     0.031 A 
HETATM   11  C   UNL     1      29.739  43.935  55.097  1.00  0.00    -0.043 A 
HETATM   12  C   UNL     1      29.473  41.942  53.413  1.00  0.00     0.049 A 
HETATM   13  C   UNL     1      29.170  45.200  55.407  1.00  0.00    -0.055 A 
HETATM   14  C   UNL     1      30.936  43.435  55.864  1.00  0.00     0.049 C 
HETATM   15  C   UNL     1      29.741  46.060  56.505  1.00  0.00     0.049 C 
HETATM   16  C   UNL     1      28.046  45.663  54.707  1.00  0.00     0.009 A 
ENDBRANCH   1   5
BRANCH   2  17
HETATM   17  C   UNL     1      27.365  39.951  49.316  1.00  0.00     0.147 C 
HETATM   18  C   UNL     1      28.472  39.688  48.246  1.00  0.00     0.149 C 
HETATM   19  C   UNL     1      28.164  40.629  47.063  1.00  0.00     0.073 C 
HETATM   20  C   UNL     1      26.684  40.817  47.190  1.00  0.00    -0.047 A 
HETATM   21  C   UNL     1      26.231  40.430  48.456  1.00  0.00    -0.027 A 
HETATM   22  C   UNL     1      25.813  41.342  46.251  1.00  0.00     0.008 A 
HETATM   23  C   UNL     1      24.896  40.562  48.808  1.00  0.00     0.010 A 
HETATM   24  C   UNL     1      24.009  41.082  47.865  1.00  0.00     0.001 A 
HETATM   25  C   UNL     1      24.465  41.470  46.594  1.00  0.00     0.001 A 
BRANCH  18  26
HETATM   26  O   UNL     1      29.805  39.884  48.707  1.00  0.00    -0.393 OA
HETATM   27  H   UNL     1      29.740  40.280  49.601  1.00  0.00     0.210 HD
ENDBRANCH  18  26
ENDBRANCH   2  17
TORSDOF 3
ENDMDL
MODEL 10
REMARK VINA RESULT:      -7.7     11.025     12.798
REMARK  3 active torsions:
REMARK  status: ('A' for Active; 'I' for Inactive)
REMARK    1  A    between atoms: C_9  and  C_10 
REMARK       I    between atoms: C_10  and  N_11 
REMARK    2  A    between atoms: N_11  and  C_12 
REMARK    3  A    between atoms: C_13  and  O_14 
ROOT
HETATM    1  C   UNL     1      30.541  49.988  39.584  1.00  0.00     0.268 C 
HETATM    2  N   UNL     1      29.317  49.628  40.082  1.00  0.00    -0.344 N 
HETATM    3  O   UNL     1      30.781  49.953  38.378  1.00  0.00    -0.266 OA
HETATM    4  H   UNL     1      29.127  49.725  41.068  1.00  0.00     0.163 HD
ENDROOT
BRANCH   1   5
HETATM    5  C   UNL     1      31.521  50.387  40.566  1.00  0.00     0.102 A 
HETATM    6  N   UNL     1      31.159  50.702  41.856  1.00  0.00    -0.351 N 
HETATM    7  C   UNL     1      32.241  51.135  42.584  1.00  0.00     0.043 A 
HETATM    8  H   UNL     1      30.208  50.657  42.198  1.00  0.00     0.166 HD
HETATM    9  C   UNL     1      33.359  51.047  41.759  1.00  0.00    -0.001 A 
HETATM   10  C   UNL     1      32.304  51.594  43.900  1.00  0.00     0.031 A 
HETATM   11  C   UNL     1      34.633  51.427  42.258  1.00  0.00    -0.043 A 
HETATM   12  C   UNL     1      32.891  50.562  40.499  1.00  0.00     0.049 A 
HETATM   13  C   UNL     1      34.705  51.926  43.586  1.00  0.00    -0.055 A 
HETATM   14  C   UNL     1      35.879  51.344  41.413  1.00  0.00     0.049 C 
HETATM   15  C   UNL     1      36.016  52.373  44.179  1.00  0.00     0.049 C 
HETATM   16  C   UNL     1      33.551  51.991  44.382  1.00  0.00     0.009 A 
ENDBRANCH   1   5
BRANCH   2  17
HETATM   17  C   UNL     1      28.288  49.053  39.240  1.00  0.00     0.147 C 
HETATM   18  C   UNL     1      26.827  49.453  39.622  1.00  0.00     0.149 C 
HETATM   19  C   UNL     1      26.320  48.369  40.594  1.00  0.00     0.073 C 
HETATM   20  C   UNL     1      27.137  47.181  40.191  1.00  0.00    -0.047 A 
HETATM   21  C   UNL     1      28.243  47.564  39.423  1.00  0.00    -0.027 A 
HETATM   22  C   UNL     1      26.929  45.855  40.529  1.00  0.00     0.008 A 
HETATM   23  C   UNL     1      29.162  46.626  38.979  1.00  0.00     0.010 A 
HETATM   24  C   UNL     1      28.955  45.286  39.307  1.00  0.00     0.001 A 
HETATM   25  C   UNL     1      27.846  44.903  40.077  1.00  0.00     0.001 A 
BRANCH  18  26
HETATM   26  O   UNL     1      26.697  50.747  40.204  1.00  0.00    -0.393 OA
HETATM   27  H   UNL     1      27.597  51.131  40.243  1.00  0.00     0.210 HD
ENDBRANCH  18  26
ENDBRANCH   2  17
TORSDOF 3
ENDMDL
