MODEL 1
REMARK VINA RESULT:      -9.3      0.000      0.000
REMARK  3 active torsions:
REMARK  status: ('A' for Active; 'I' for Inactive)
REMARK    1  A    between atoms: N_1  and  C_2 
REMARK    2  A    between atoms: C_6  and  C_8 
REMARK    3  A    between atoms: C_13  and  C_17 
ROOT
HETATM    1  C   UNL     1      29.214  44.085  54.896  1.00  0.00    -0.006 A 
HETATM    2  C   UNL     1      28.432  45.202  54.562  1.00  0.00     0.016 A 
HETATM    3  C   UNL     1      27.498  45.164  53.516  1.00  0.00     0.034 A 
HETATM    4  C   UNL     1      27.327  43.982  52.774  1.00  0.00     0.074 A 
HETATM    5  N   UNL     1      26.436  43.800  51.734  1.00  0.00    -0.244 NA
HETATM    6  C   UNL     1      26.496  42.562  51.289  1.00  0.00     0.083 A 
HETATM    7  S   UNL     1      27.714  41.588  52.022  1.00  0.00    -0.072 SA
HETATM    8  C   UNL     1      28.113  42.877  53.089  1.00  0.00     0.036 A 
HETATM    9  C   UNL     1      29.057  42.910  54.131  1.00  0.00     0.035 A 
ENDROOT
BRANCH   6  10
HETATM   10  C   UNL     1      25.634  42.007  50.172  1.00  0.00     0.074 C 
HETATM   11  C   UNL     1      26.097  42.459  48.786  1.00  0.00     0.187 C 
HETATM   12  O   UNL     1      27.403  41.996  48.431  1.00  0.00    -0.350 OA
HETATM   13  C   UNL     1      27.637  40.673  48.694  1.00  0.00     0.075 A 
HETATM   14  C   UNL     1      28.784  40.130  48.116  1.00  0.00     0.037 A 
HETATM   15  C   UNL     1      26.823  39.890  49.518  1.00  0.00    -0.024 A 
HETATM   16  C   UNL     1      29.114  38.793  48.336  1.00  0.00     0.003 A 
HETATM   17  C   UNL     1      28.296  37.999  49.138  1.00  0.00     0.001 A 
HETATM   18  C   UNL     1      27.154  38.544  49.726  1.00  0.00     0.010 A 
HETATM   19  C   UNL     1      25.598  40.474  50.170  1.00  0.00     0.055 C 
ENDBRANCH   6  10
BRANCH   1  20
HETATM   20  C   UNL     1      30.183  44.118  56.013  1.00  0.00     0.071 A 
HETATM   21  C   UNL     1      31.132  43.134  56.211  1.00  0.00     0.052 A 
HETATM   22  C   UNL     1      31.966  43.305  57.290  1.00  0.00     0.122 A 
HETATM   23  N   UNL     1      31.893  44.355  58.124  1.00  0.00    -0.231 NA
HETATM   24  C   UNL     1      30.962  45.269  57.843  1.00  0.00     0.199 A 
HETATM   25  N   UNL     1      30.093  45.190  56.833  1.00  0.00    -0.218 NA
BRANCH  24  26
HETATM   26  N   UNL     1      30.858  46.352  58.690  1.00  0.00    -0.271 NA
HETATM   27  H   UNL     1      31.684  46.405  59.269  1.00  0.00     0.127 HD
HETATM   28  H   UNL     1      29.963  46.327  59.160  1.00  0.00     0.127 HD
ENDBRANCH  24  26
ENDBRANCH   1  20
TORSDOF 3
ENDMDL
MODEL 2
REMARK VINA RESULT:      -9.1      6.031      8.149
REMARK  3 active torsions:
REMARK  status: ('A' for Active; 'I' for Inactive)
REMARK    1  A    between atoms: N_1  and  C_2 
REMARK    2  A    between atoms: C_6  and  C_8 
REMARK    3  A    between atoms: C_13  and  C_17 
ROOT
HETATM    1  C   UNL     1      26.062  45.718  52.525  1.00  0.00    -0.006 A 
HETATM    2  C   UNL     1      25.423  44.518  52.176  1.00  0.00     0.016 A 
HETATM    3  C   UNL     1      24.468  44.461  51.149  1.00  0.00     0.034 A 
HETATM    4  C   UNL     1      24.134  45.628  50.441  1.00  0.00     0.074 A 
HETATM    5  N   UNL     1      23.228  45.713  49.401  1.00  0.00    -0.244 NA
HETATM    6  C   UNL     1      23.187  46.940  48.926  1.00  0.00     0.083 A 
HETATM    7  S   UNL     1      24.148  48.082  49.787  1.00  0.00    -0.072 SA
HETATM    8  C   UNL     1      24.751  46.825  50.795  1.00  0.00     0.036 A 
HETATM    9  C   UNL     1      25.703  46.891  51.828  1.00  0.00     0.035 A 
ENDROOT
BRANCH   6  10
HETATM   10  C   UNL     1      22.323  47.384  47.762  1.00  0.00     0.074 C 
HETATM   11  C   UNL     1      20.957  46.695  47.740  1.00  0.00     0.187 C 
HETATM   12  O   UNL     1      20.136  47.000  48.871  1.00  0.00    -0.350 OA
HETATM   13  C   UNL     1      20.087  48.326  49.208  1.00  0.00     0.075 A 
HETATM   14  C   UNL     1      19.094  48.688  50.118  1.00  0.00     0.037 A 
HETATM   15  C   UNL     1      20.984  49.282  48.723  1.00  0.00    -0.024 A 
HETATM   16  C   UNL     1      18.972  50.014  50.531  1.00  0.00     0.003 A 
HETATM   17  C   UNL     1      19.847  50.979  50.035  1.00  0.00     0.001 A 
HETATM   18  C   UNL     1      20.849  50.616  49.133  1.00  0.00     0.010 A 
HETATM   19  C   UNL     1      22.077  48.897  47.762  1.00  0.00     0.055 C 
ENDBRANCH   6  10
BRANCH   1  20
HETATM   20  C   UNL     1      27.085  45.774  53.592  1.00  0.00     0.071 A 
HETATM   21  C   UNL     1      27.230  46.859  54.435  1.00  0.00     0.052 A 
HETATM   22  C   UNL     1      28.222  46.762  55.381  1.00  0.00     0.122 A 
HETATM   23  N   UNL     1      29.021  45.691  55.510  1.00  0.00    -0.231 NA
HETATM   24  C   UNL     1      28.794  44.680  54.670  1.00  0.00     0.199 A 
HETATM   25  N   UNL     1      27.870  44.679  53.707  1.00  0.00    -0.218 NA
BRANCH  24  26
HETATM   26  N   UNL     1      29.608  43.572  54.773  1.00  0.00    -0.271 NA
HETATM   27  H   UNL     1      29.351  42.899  54.065  1.00  0.00     0.127 HD
HETATM   28  H   UNL     1      29.622  43.253  55.732  1.00  0.00     0.127 HD
ENDBRANCH  24  26
ENDBRANCH   1  20
TORSDOF 3
ENDMDL
MODEL 3
REMARK VINA RESULT:      -9.0     13.821     14.917
REMARK  3 active torsions:
REMARK  status: ('A' for Active; 'I' for Inactive)
REMARK    1  A    between atoms: N_1  and  C_2 
REMARK    2  A    between atoms: C_6  and  C_8 
REMARK    3  A    between atoms: C_13  and  C_17 
ROOT
HETATM    1  C   UNL     1      35.347  52.173  43.952  1.00  0.00    -0.006 A 
HETATM    2  C   UNL     1      34.259  52.375  44.815  1.00  0.00     0.016 A 
HETATM    3  C   UNL     1      32.996  51.823  44.554  1.00  0.00     0.034 A 
HETATM    4  C   UNL     1      32.799  51.043  43.402  1.00  0.00     0.074 A 
HETATM    5  N   UNL     1      31.618  50.428  43.032  1.00  0.00    -0.244 NA
HETATM    6  C   UNL     1      31.788  49.734  41.926  1.00  0.00     0.083 A 
HETATM    7  S   UNL     1      33.349  49.885  41.210  1.00  0.00    -0.072 SA
HETATM    8  C   UNL     1      33.870  50.854  42.532  1.00  0.00     0.036 A 
HETATM    9  C   UNL     1      35.137  51.410  42.783  1.00  0.00     0.035 A 
ENDROOT
BRANCH   6  10
HETATM   10  C   UNL     1      30.709  48.910  41.253  1.00  0.00     0.074 C 
HETATM   11  C   UNL     1      29.308  49.219  41.785  1.00  0.00     0.187 C 
HETATM   12  O   UNL     1      28.876  50.560  41.535  1.00  0.00    -0.350 OA
HETATM   13  C   UNL     1      29.103  51.011  40.263  1.00  0.00     0.075 A 
HETATM   14  C   UNL     1      28.455  52.195  39.911  1.00  0.00     0.037 A 
HETATM   15  C   UNL     1      29.956  50.376  39.355  1.00  0.00    -0.024 A 
HETATM   16  C   UNL     1      28.634  52.741  38.641  1.00  0.00     0.003 A 
HETATM   17  C   UNL     1      29.464  52.102  37.721  1.00  0.00     0.001 A 
HETATM   18  C   UNL     1      30.122  50.923  38.075  1.00  0.00     0.010 A 
HETATM   19  C   UNL     1      30.682  49.112  39.733  1.00  0.00     0.055 C 
ENDBRANCH   6  10
BRANCH   1  20
HETATM   20  C   UNL     1      36.685  52.736  44.238  1.00  0.00     0.071 A 
HETATM   21  C   UNL     1      37.325  53.617  43.389  1.00  0.00     0.052 A 
HETATM   22  C   UNL     1      38.562  54.058  43.793  1.00  0.00     0.122 A 
HETATM   23  N   UNL     1      39.145  53.678  44.942  1.00  0.00    -0.231 NA
HETATM   24  C   UNL     1      38.444  52.843  45.712  1.00  0.00     0.199 A 
HETATM   25  N   UNL     1      37.245  52.344  45.405  1.00  0.00    -0.218 NA
BRANCH  24  26
HETATM   26  N   UNL     1      39.025  52.428  46.892  1.00  0.00    -0.271 NA
HETATM   27  H   UNL     1      39.441  53.222  47.358  1.00  0.00     0.127 HD
HETATM   28  H   UNL     1      39.620  51.632  46.712  1.00  0.00     0.127 HD
ENDBRANCH  24  26
ENDBRANCH   1  20
TORSDOF 3
ENDMDL
MODEL 4
REMARK VINA RESULT:      -8.7      8.331     11.556
REMARK  3 active torsions:
REMARK  status: ('A' for Active; 'I' for Inactive)
REMARK    1  A    between atoms: N_1  and  C_2 
REMARK    2  A    between atoms: C_6  and  C_8 
REMARK    3  A    between atoms: C_13  and  C_17 
ROOT
HETATM    1  C   UNL     1      19.945  50.123  49.177  1.00  0.00    -0.006 A 
HETATM    2  C   UNL     1      20.888  51.061  49.625  1.00  0.00     0.016 A 
HETATM    3  C   UNL     1      22.241  50.727  49.790  1.00  0.00     0.034 A 
HETATM    4  C   UNL     1      22.679  49.423  49.502  1.00  0.00     0.074 A 
HETATM    5  N   UNL     1      23.979  48.964  49.603  1.00  0.00    -0.244 NA
HETATM    6  C   UNL     1      24.055  47.709  49.210  1.00  0.00     0.083 A 
HETATM    7  S   UNL     1      22.543  46.982  48.814  1.00  0.00    -0.072 SA
HETATM    8  C   UNL     1      21.745  48.484  49.074  1.00  0.00     0.036 A 
HETATM    9  C   UNL     1      20.386  48.809  48.914  1.00  0.00     0.035 A 
ENDROOT
BRANCH   6  10
HETATM   10  C   UNL     1      25.335  46.899  49.163  1.00  0.00     0.074 C 
HETATM   11  C   UNL     1      26.541  47.662  49.714  1.00  0.00     0.187 C 
HETATM   12  O   UNL     1      26.433  47.991  51.103  1.00  0.00    -0.350 OA
HETATM   13  C   UNL     1      26.003  46.969  51.906  1.00  0.00     0.075 A 
HETATM   14  C   UNL     1      26.149  47.170  53.278  1.00  0.00     0.037 A 
HETATM   15  C   UNL     1      25.411  45.799  51.422  1.00  0.00    -0.024 A 
HETATM   16  C   UNL     1      25.730  46.191  54.178  1.00  0.00     0.003 A 
HETATM   17  C   UNL     1      25.159  45.010  53.704  1.00  0.00     0.001 A 
HETATM   18  C   UNL     1      25.002  44.813  52.331  1.00  0.00     0.010 A 
HETATM   19  C   UNL     1      25.223  45.584  49.943  1.00  0.00     0.055 C 
ENDBRANCH   6  10
BRANCH   1  20
HETATM   20  C   UNL     1      18.523  50.481  48.981  1.00  0.00     0.071 A 
HETATM   21  C   UNL     1      17.588  49.592  48.489  1.00  0.00     0.052 A 
HETATM   22  C   UNL     1      16.305  50.068  48.367  1.00  0.00     0.122 A 
HETATM   23  N   UNL     1      15.943  51.318  48.700  1.00  0.00    -0.231 NA
HETATM   24  C   UNL     1      16.906  52.100  49.191  1.00  0.00     0.199 A 
HETATM   25  N   UNL     1      18.184  51.742  49.333  1.00  0.00    -0.218 NA
BRANCH  24  26
HETATM   26  N   UNL     1      16.565  53.392  49.530  1.00  0.00    -0.271 NA
HETATM   27  H   UNL     1      15.567  53.448  49.675  1.00  0.00     0.127 HD
HETATM   28  H   UNL     1      16.974  54.034  48.865  1.00  0.00     0.127 HD
ENDBRANCH  24  26
ENDBRANCH   1  20
TORSDOF 3
ENDMDL
MODEL 5
REMARK VINA RESULT:      -8.6      8.155     10.700
REMARK  3 active torsions:
REMARK  status: ('A' for Active; 'I' for Inactive)
REMARK    1  A    between atoms: N_1  and  C_2 
REMARK    2  A    between atoms: C_6  and  C_8 
REMARK    3  A    between atoms: C_13  and  C_17 
ROOT
HETATM    1  C   UNL     1      24.258  46.423  49.754  1.00  0.00    -0.006 A 
HETATM    2  C   UNL     1      24.455  47.812  49.699  1.00  0.00     0.016 A 
HETATM    3  C   UNL     1      23.558  48.659  49.029  1.00  0.00     0.034 A 
HETATM    4  C   UNL     1      22.427  48.118  48.395  1.00  0.00     0.074 A 
HETATM    5  N   UNL     1      21.458  48.833  47.718  1.00  0.00    -0.244 NA
HETATM    6  C   UNL     1      20.510  48.028  47.286  1.00  0.00     0.083 A 
HETATM    7  S   UNL     1      20.798  46.353  47.570  1.00  0.00    -0.072 SA
HETATM    8  C   UNL     1      22.236  46.739  48.432  1.00  0.00     0.036 A 
HETATM    9  C   UNL     1      23.134  45.883  49.094  1.00  0.00     0.035 A 
ENDROOT
BRANCH   6  10
HETATM   10  C   UNL     1      19.276  48.479  46.529  1.00  0.00     0.074 C 
HETATM   11  C   UNL     1      17.974  48.038  47.201  1.00  0.00     0.187 C 
HETATM   12  O   UNL     1      17.769  48.608  48.498  1.00  0.00    -0.350 OA
HETATM   13  C   UNL     1      18.014  49.952  48.582  1.00  0.00     0.075 A 
HETATM   14  C   UNL     1      17.566  50.583  49.742  1.00  0.00     0.037 A 
HETATM   15  C   UNL     1      18.704  50.677  47.606  1.00  0.00    -0.024 A 
HETATM   16  C   UNL     1      17.780  51.948  49.926  1.00  0.00     0.003 A 
HETATM   17  C   UNL     1      18.447  52.684  48.947  1.00  0.00     0.001 A 
HETATM   18  C   UNL     1      18.906  52.052  47.790  1.00  0.00     0.010 A 
HETATM   19  C   UNL     1      19.218  50.002  46.362  1.00  0.00     0.055 C 
ENDBRANCH   6  10
BRANCH   1  20
HETATM   20  C   UNL     1      25.191  45.533  50.479  1.00  0.00     0.071 A 
HETATM   21  C   UNL     1      26.458  45.237  50.016  1.00  0.00     0.052 A 
HETATM   22  C   UNL     1      27.211  44.399  50.801  1.00  0.00     0.122 A 
HETATM   23  N   UNL     1      26.774  43.879  51.960  1.00  0.00    -0.231 NA
HETATM   24  C   UNL     1      25.547  44.237  52.343  1.00  0.00     0.199 A 
HETATM   25  N   UNL     1      24.730  45.030  51.647  1.00  0.00    -0.218 NA
BRANCH  24  26
HETATM   26  N   UNL     1      25.069  43.708  53.523  1.00  0.00    -0.271 NA
HETATM   27  H   UNL     1      24.066  43.818  53.559  1.00  0.00     0.127 HD
HETATM   28  H   UNL     1      25.604  44.077  54.298  1.00  0.00     0.127 HD
ENDBRANCH  24  26
ENDBRANCH   1  20
TORSDOF 3
ENDMDL
MODEL 6
REMARK VINA RESULT:      -8.3     14.159     16.558
REMARK  3 active torsions:
REMARK  status: ('A' for Active; 'I' for Inactive)
REMARK    1  A    between atoms: N_1  and  C_2 
REMARK    2  A    between atoms: C_6  and  C_8 
REMARK    3  A    between atoms: C_13  and  C_17 
ROOT
HETATM    1  C   UNL     1      31.757  50.719  42.590  1.00  0.00    -0.006 A 
HETATM    2  C   UNL     1      31.975  51.358  43.820  1.00  0.00     0.016 A 
HETATM    3  C   UNL     1      33.236  51.859  44.178  1.00  0.00     0.034 A 
HETATM    4  C   UNL     1      34.318  51.727  43.291  1.00  0.00     0.074 A 
HETATM    5  N   UNL     1      35.604  52.186  43.507  1.00  0.00    -0.244 NA
HETATM    6  C   UNL     1      36.361  51.943  42.457  1.00  0.00     0.083 A 
HETATM    7  S   UNL     1      35.594  51.041  41.205  1.00  0.00    -0.072 SA
HETATM    8  C   UNL     1      34.111  51.077  42.077  1.00  0.00     0.036 A 
HETATM    9  C   UNL     1      32.852  50.566  41.714  1.00  0.00     0.035 A 
ENDROOT
BRANCH   6  10
HETATM   10  C   UNL     1      37.819  52.338  42.338  1.00  0.00     0.074 C 
HETATM   11  C   UNL     1      38.013  53.848  42.185  1.00  0.00     0.187 C 
HETATM   12  O   UNL     1      37.577  54.607  43.318  1.00  0.00    -0.350 OA
HETATM   13  C   UNL     1      37.975  54.112  44.531  1.00  0.00     0.075 A 
HETATM   14  C   UNL     1      37.805  54.964  45.622  1.00  0.00     0.037 A 
HETATM   15  C   UNL     1      38.486  52.824  44.713  1.00  0.00    -0.024 A 
HETATM   16  C   UNL     1      38.169  54.545  46.901  1.00  0.00     0.003 A 
HETATM   17  C   UNL     1      38.702  53.270  47.089  1.00  0.00     0.001 A 
HETATM   18  C   UNL     1      38.862  52.413  45.999  1.00  0.00     0.010 A 
HETATM   19  C   UNL     1      38.648  51.886  43.546  1.00  0.00     0.055 C 
ENDBRANCH   6  10
BRANCH   1  20
HETATM   20  C   UNL     1      30.422  50.211  42.202  1.00  0.00     0.071 A 
HETATM   21  C   UNL     1      30.102  48.867  42.205  1.00  0.00     0.052 A 
HETATM   22  C   UNL     1      28.820  48.549  41.826  1.00  0.00     0.122 A 
HETATM   23  N   UNL     1      27.905  49.464  41.468  1.00  0.00    -0.231 NA
HETATM   24  C   UNL     1      28.293  50.739  41.518  1.00  0.00     0.199 A 
HETATM   25  N   UNL     1      29.516  51.153  41.856  1.00  0.00    -0.218 NA
BRANCH  24  26
HETATM   26  N   UNL     1      27.376  51.699  41.145  1.00  0.00    -0.271 NA
HETATM   27  H   UNL     1      26.456  51.422  41.456  1.00  0.00     0.127 HD
HETATM   28  H   UNL     1      27.489  51.909  40.163  1.00  0.00     0.127 HD
ENDBRANCH  24  26
ENDBRANCH   1  20
TORSDOF 3
ENDMDL
MODEL 7
REMARK VINA RESULT:      -8.3     13.048     15.617
REMARK  3 active torsions:
REMARK  status: ('A' for Active; 'I' for Inactive)
REMARK    1  A    between atoms: N_1  and  C_2 
REMARK    2  A    between atoms: C_6  and  C_8 
REMARK    3  A    between atoms: C_13  and  C_17 
ROOT
HETATM    1  C   UNL     1      28.433  45.886  40.041  1.00  0.00    -0.006 A 
HETATM    2  C   UNL     1      27.448  46.609  40.730  1.00  0.00     0.016 A 
HETATM    3  C   UNL     1      27.551  47.995  40.927  1.00  0.00     0.034 A 
HETATM    4  C   UNL     1      28.663  48.691  40.424  1.00  0.00     0.074 A 
HETATM    5  N   UNL     1      28.883  50.051  40.530  1.00  0.00    -0.244 NA
HETATM    6  C   UNL     1      29.994  50.387  39.909  1.00  0.00     0.083 A 
HETATM    7  S   UNL     1      30.894  49.063  39.269  1.00  0.00    -0.072 SA
HETATM    8  C   UNL     1      29.653  47.976  39.755  1.00  0.00     0.036 A 
HETATM    9  C   UNL     1      29.560  46.586  39.561  1.00  0.00     0.035 A 
ENDROOT
BRANCH   6  10
HETATM   10  C   UNL     1      30.525  51.802  39.800  1.00  0.00     0.074 C 
HETATM   11  C   UNL     1      29.928  52.742  40.849  1.00  0.00     0.187 C 
HETATM   12  O   UNL     1      30.256  52.390  42.197  1.00  0.00    -0.350 OA
HETATM   13  C   UNL     1      31.573  52.082  42.408  1.00  0.00     0.075 A 
HETATM   14  C   UNL     1      31.975  52.005  43.741  1.00  0.00     0.037 A 
HETATM   15  C   UNL     1      32.481  51.814  41.379  1.00  0.00    -0.024 A 
HETATM   16  C   UNL     1      33.294  51.685  44.058  1.00  0.00     0.003 A 
HETATM   17  C   UNL     1      34.213  51.438  43.039  1.00  0.00     0.001 A 
HETATM   18  C   UNL     1      33.809  51.504  41.704  1.00  0.00     0.010 A 
HETATM   19  C   UNL     1      32.051  51.866  39.938  1.00  0.00     0.055 C 
ENDBRANCH   6  10
BRANCH   1  20
HETATM   20  C   UNL     1      28.314  44.429  39.813  1.00  0.00     0.071 A 
HETATM   21  C   UNL     1      27.342  43.653  40.413  1.00  0.00     0.052 A 
HETATM   22  C   UNL     1      27.354  42.316  40.100  1.00  0.00     0.122 A 
HETATM   23  N   UNL     1      28.244  41.759  39.262  1.00  0.00    -0.231 NA
HETATM   24  C   UNL     1      29.132  42.587  38.709  1.00  0.00     0.199 A 
HETATM   25  N   UNL     1      29.216  43.895  38.958  1.00  0.00    -0.218 NA
BRANCH  24  26
HETATM   26  N   UNL     1      30.064  42.039  37.853  1.00  0.00    -0.271 NA
HETATM   27  H   UNL     1      29.794  42.226  36.898  1.00  0.00     0.127 HD
HETATM   28  H   UNL     1      30.230  41.076  38.108  1.00  0.00     0.127 HD
ENDBRANCH  24  26
ENDBRANCH   1  20
TORSDOF 3
ENDMDL
MODEL 8
REMARK VINA RESULT:      -8.3     14.671     17.117
REMARK  3 active torsions:
REMARK  status: ('A' for Active; 'I' for Inactive)
REMARK    1  A    between atoms: N_1  and  C_2 
REMARK    2  A    between atoms: C_6  and  C_8 
REMARK    3  A    between atoms: C_13  and  C_17 
ROOT
HETATM    1  C   UNL     1      31.608  51.622  41.995  1.00  0.00    -0.006 A 
HETATM    2  C   UNL     1      31.807  51.790  43.374  1.00  0.00     0.016 A 
HETATM    3  C   UNL     1      33.092  51.794  43.940  1.00  0.00     0.034 A 
HETATM    4  C   UNL     1      34.219  51.630  43.116  1.00  0.00     0.074 A 
HETATM    5  N   UNL     1      35.535  51.631  43.535  1.00  0.00    -0.244 NA
HETATM    6  C   UNL     1      36.346  51.502  42.506  1.00  0.00     0.083 A 
HETATM    7  S   UNL     1      35.559  51.252  40.993  1.00  0.00    -0.072 SA
HETATM    8  C   UNL     1      34.026  51.444  41.750  1.00  0.00     0.036 A 
HETATM    9  C   UNL     1      32.742  51.431  41.177  1.00  0.00     0.035 A 
ENDROOT
BRANCH   6  10
HETATM   10  C   UNL     1      37.858  51.493  42.597  1.00  0.00     0.074 C 
HETATM   11  C   UNL     1      38.509  52.600  41.763  1.00  0.00     0.187 C 
HETATM   12  O   UNL     1      38.179  53.923  42.197  1.00  0.00    -0.350 OA
HETATM   13  C   UNL     1      38.257  54.122  43.549  1.00  0.00     0.075 A 
HETATM   14  C   UNL     1      38.212  55.450  43.972  1.00  0.00     0.037 A 
HETATM   15  C   UNL     1      38.337  53.085  44.483  1.00  0.00    -0.024 A 
HETATM   16  C   UNL     1      38.272  55.755  45.332  1.00  0.00     0.003 A 
HETATM   17  C   UNL     1      38.375  54.728  46.269  1.00  0.00     0.001 A 
HETATM   18  C   UNL     1      38.409  53.398  45.847  1.00  0.00     0.010 A 
HETATM   19  C   UNL     1      38.358  51.647  44.038  1.00  0.00     0.055 C 
ENDBRANCH   6  10
BRANCH   1  20
HETATM   20  C   UNL     1      30.256  51.640  41.395  1.00  0.00     0.071 A 
HETATM   21  C   UNL     1      29.898  52.506  40.381  1.00  0.00     0.052 A 
HETATM   22  C   UNL     1      28.607  52.400  39.921  1.00  0.00     0.122 A 
HETATM   23  N   UNL     1      27.718  51.517  40.405  1.00  0.00    -0.231 NA
HETATM   24  C   UNL     1      28.158  50.703  41.367  1.00  0.00     0.199 A 
HETATM   25  N   UNL     1      29.384  50.734  41.894  1.00  0.00    -0.218 NA
BRANCH  24  26
HETATM   26  N   UNL     1      27.262  49.794  41.889  1.00  0.00    -0.271 NA
HETATM   27  H   UNL     1      27.768  49.017  42.288  1.00  0.00     0.127 HD
HETATM   28  H   UNL     1      26.556  49.582  41.198  1.00  0.00     0.127 HD
ENDBRANCH  24  26
ENDBRANCH   1  20
TORSDOF 3
ENDMDL
MODEL 9
REMARK VINA RESULT:      -8.1     13.934     15.263
REMARK  3 active torsions:
REMARK  status: ('A' for Active; 'I' for Inactive)
REMARK    1  A    between atoms: N_1  and  C_2 
REMARK    2  A    between atoms: C_6  and  C_8 
REMARK    3  A    between atoms: C_13  and  C_17 
ROOT
HETATM    1  C   UNL     1      34.406  51.678  41.406  1.00  0.00    -0.006 A 
HETATM    2  C   UNL     1      34.441  51.997  40.039  1.00  0.00     0.016 A 
HETATM    3  C   UNL     1      33.266  52.159  39.289  1.00  0.00     0.034 A 
HETATM    4  C   UNL     1      32.014  52.003  39.908  1.00  0.00     0.074 A 
HETATM    5  N   UNL     1      30.784  52.150  39.297  1.00  0.00    -0.244 NA
HETATM    6  C   UNL     1      29.813  51.985  40.171  1.00  0.00     0.083 A 
HETATM    7  S   UNL     1      30.331  51.525  41.749  1.00  0.00    -0.072 SA
HETATM    8  C   UNL     1      31.974  51.669  41.259  1.00  0.00     0.036 A 
HETATM    9  C   UNL     1      33.147  51.498  42.016  1.00  0.00     0.035 A 
ENDROOT
BRANCH   6  10
HETATM   10  C   UNL     1      28.337  52.105  39.850  1.00  0.00     0.074 C 
HETATM   11  C   UNL     1      28.024  51.820  38.380  1.00  0.00     0.187 C 
HETATM   12  O   UNL     1      28.322  50.480  37.973  1.00  0.00    -0.350 OA
HETATM   13  C   UNL     1      27.893  49.507  38.835  1.00  0.00     0.075 A 
HETATM   14  C   UNL     1      27.921  48.202  38.344  1.00  0.00     0.037 A 
HETATM   15  C   UNL     1      27.483  49.759  40.148  1.00  0.00    -0.024 A 
HETATM   16  C   UNL     1      27.515  47.141  39.151  1.00  0.00     0.003 A 
HETATM   17  C   UNL     1      27.083  47.385  40.454  1.00  0.00     0.001 A 
HETATM   18  C   UNL     1      27.065  48.689  40.951  1.00  0.00     0.010 A 
HETATM   19  C   UNL     1      27.476  51.161  40.698  1.00  0.00     0.055 C 
ENDBRANCH   6  10
BRANCH   1  20
HETATM   20  C   UNL     1      35.644  51.529  42.202  1.00  0.00     0.071 A 
HETATM   21  C   UNL     1      36.537  50.492  42.014  1.00  0.00     0.052 A 
HETATM   22  C   UNL     1      37.644  50.491  42.827  1.00  0.00     0.122 A 
HETATM   23  N   UNL     1      37.879  51.428  43.760  1.00  0.00    -0.231 NA
HETATM   24  C   UNL     1      36.977  52.405  43.857  1.00  0.00     0.199 A 
HETATM   25  N   UNL     1      35.861  52.491  43.129  1.00  0.00    -0.218 NA
BRANCH  24  26
HETATM   26  N   UNL     1      37.188  53.374  44.815  1.00  0.00    -0.271 NA
HETATM   27  H   UNL     1      37.159  54.286  44.382  1.00  0.00     0.127 HD
HETATM   28  H   UNL     1      38.012  53.142  45.352  1.00  0.00     0.127 HD
ENDBRANCH  24  26
ENDBRANCH   1  20
TORSDOF 3
ENDMDL
MODEL 10
REMARK VINA RESULT:      -7.8     14.776     17.190
REMARK  3 active torsions:
REMARK  status: ('A' for Active; 'I' for Inactive)
REMARK    1  A    between atoms: N_1  and  C_2 
REMARK    2  A    between atoms: C_6  and  C_8 
REMARK    3  A    between atoms: C_13  and  C_17 
ROOT
HETATM    1  C   UNL     1      31.625  51.203  41.076  1.00  0.00    -0.006 A 
HETATM    2  C   UNL     1      31.839  52.123  40.038  1.00  0.00     0.016 A 
HETATM    3  C   UNL     1      33.116  52.630  39.752  1.00  0.00     0.034 A 
HETATM    4  C   UNL     1      34.220  52.213  40.514  1.00  0.00     0.074 A 
HETATM    5  N   UNL     1      35.530  52.617  40.332  1.00  0.00    -0.244 NA
HETATM    6  C   UNL     1      36.323  52.000  41.183  1.00  0.00     0.083 A 
HETATM    7  S   UNL     1      35.517  50.993  42.326  1.00  0.00    -0.072 SA
HETATM    8  C   UNL     1      34.011  51.314  41.557  1.00  0.00     0.036 A 
HETATM    9  C   UNL     1      32.734  50.807  41.854  1.00  0.00     0.035 A 
ENDROOT
BRANCH   6  10
HETATM   10  C   UNL     1      37.827  52.182  41.244  1.00  0.00     0.074 C 
HETATM   11  C   UNL     1      38.257  53.637  41.049  1.00  0.00     0.187 C 
HETATM   12  O   UNL     1      37.795  54.521  42.075  1.00  0.00    -0.350 OA
HETATM   13  C   UNL     1      37.958  54.056  43.353  1.00  0.00     0.075 A 
HETATM   14  C   UNL     1      37.777  54.992  44.370  1.00  0.00     0.037 A 
HETATM   15  C   UNL     1      38.250  52.724  43.662  1.00  0.00    -0.024 A 
HETATM   16  C   UNL     1      37.910  54.612  45.705  1.00  0.00     0.003 A 
HETATM   17  C   UNL     1      38.223  53.291  46.022  1.00  0.00     0.001 A 
HETATM   18  C   UNL     1      38.394  52.350  45.005  1.00  0.00     0.010 A 
HETATM   19  C   UNL     1      38.420  51.699  42.572  1.00  0.00     0.055 C 
ENDBRANCH   6  10
BRANCH   1  20
HETATM   20  C   UNL     1      30.283  50.651  41.363  1.00  0.00     0.071 A 
HETATM   21  C   UNL     1      30.087  49.371  41.846  1.00  0.00     0.052 A 
HETATM   22  C   UNL     1      28.783  49.002  42.070  1.00  0.00     0.122 A 
HETATM   23  N   UNL     1      27.735  49.811  41.846  1.00  0.00    -0.231 NA
HETATM   24  C   UNL     1      28.019  51.037  41.403  1.00  0.00     0.199 A 
HETATM   25  N   UNL     1      29.246  51.489  41.138  1.00  0.00    -0.218 NA
BRANCH  24  26
HETATM   26  N   UNL     1      26.960  51.884  41.154  1.00  0.00    -0.271 NA
HETATM   27  H   UNL     1      26.389  51.961  41.984  1.00  0.00     0.127 HD
HETATM   28  H   UNL     1      26.499  51.605  40.299  1.00  0.00     0.127 HD
ENDBRANCH  24  26
ENDBRANCH   1  20
TORSDOF 3
ENDMDL
