MODEL 1
REMARK VINA RESULT:      -9.1      0.000      0.000
REMARK  5 active torsions:
REMARK  status: ('A' for Active; 'I' for Inactive)
REMARK    1  A    between atoms: C_18  and  C_19 
REMARK       I    between atoms: C_19  and  N_20 
REMARK    2  A    between atoms: N_20  and  C_21 
REMARK    3  A    between atoms: C_21  and  C_22 
REMARK    4  A    between atoms: C_22  and  C_23 
REMARK    5  A    between atoms: C_26  and  O_27 
ROOT
HETATM    1  C   UNL     1      27.733  46.403  49.488  1.00  0.00     0.016 C 
HETATM    2  C   UNL     1      26.616  45.451  49.828  1.00  0.00    -0.028 C 
HETATM    3  C   UNL     1      27.190  43.774  50.125  1.00  0.00     0.058 C 
HETATM    4  C   UNL     1      25.991  42.847  51.256  1.00  0.00     0.095 C 
HETATM    5  N   UNL     1      26.436  42.697  52.627  1.00  0.00    -0.334 N 
HETATM    6  C   UNL     1      27.534  41.952  52.959  1.00  0.00     0.255 C 
HETATM    7  O   UNL     1      28.111  42.089  54.030  1.00  0.00    -0.268 OA
HETATM    8  C   UNL     1      27.960  40.964  51.951  1.00  0.00     0.053 A 
HETATM    9  C   UNL     1      27.119  40.764  50.846  1.00  0.00     0.026 A 
HETATM   10  N   UNL     1      25.903  41.472  50.729  1.00  0.00    -0.265 NA
HETATM   11  C   UNL     1      29.142  40.239  52.113  1.00  0.00     0.019 A 
HETATM   12  C   UNL     1      29.496  39.290  51.159  1.00  0.00     0.001 A 
HETATM   13  C   UNL     1      28.654  39.053  50.072  1.00  0.00     0.002 A 
HETATM   14  C   UNL     1      27.461  39.769  49.927  1.00  0.00     0.024 A 
HETATM   15  C   UNL     1      24.413  43.607  51.237  1.00  0.00     0.030 C 
HETATM   16  C   UNL     1      23.853  45.258  50.997  1.00  0.00     0.009 C 
HETATM   17  C   UNL     1      24.991  46.211  49.803  1.00  0.00     0.010 C 
HETATM   18  C   UNL     1      26.118  45.225  51.136  1.00  0.00     0.086 C 
HETATM   19  C   UNL     1      24.981  44.085  50.046  1.00  0.00     0.023 C 
HETATM   20  H   UNL     1      26.152  43.367  53.329  1.00  0.00     0.164 HD
HETATM   21  H   UNL     1      25.522  41.415  49.790  1.00  0.00     0.130 HD
ENDROOT
BRANCH  18  22
HETATM   22  C   UNL     1      26.129  46.528  52.088  1.00  0.00     0.222 C 
HETATM   23  N   UNL     1      27.001  46.322  53.144  1.00  0.00    -0.360 N 
HETATM   24  H   UNL     1      27.548  45.470  53.152  1.00  0.00     0.162 HD
HETATM   25  O   UNL     1      25.458  47.545  52.003  1.00  0.00    -0.273 OA
BRANCH  23  26
HETATM   26  C   UNL     1      27.343  47.296  54.162  1.00  0.00     0.127 C 
BRANCH  26  27
HETATM   27  C   UNL     1      27.130  46.745  55.582  1.00  0.00     0.058 C 
BRANCH  27  28
HETATM   28  C   UNL     1      28.385  46.165  56.201  1.00  0.00    -0.057 A 
HETATM   29  C   UNL     1      29.217  45.299  55.484  1.00  0.00     0.010 A 
HETATM   30  C   UNL     1      30.304  44.685  56.115  1.00  0.00     0.037 A 
HETATM   31  C   UNL     1      30.588  44.936  57.459  1.00  0.00     0.068 A 
HETATM   32  C   UNL     1      29.768  45.805  58.175  1.00  0.00     0.037 A 
HETATM   33  C   UNL     1      28.676  46.416  57.549  1.00  0.00     0.010 A 
BRANCH  31  34
HETATM   34  O   UNL     1      31.670  44.263  57.957  1.00  0.00    -0.356 OA
HETATM   35  C   UNL     1      32.109  43.133  57.212  1.00  0.00     0.210 C 
ENDBRANCH  31  34
ENDBRANCH  27  28
ENDBRANCH  26  27
ENDBRANCH  23  26
ENDBRANCH  18  22
TORSDOF 5
ENDMDL
MODEL 2
REMARK VINA RESULT:      -9.0      2.560      7.352
REMARK  5 active torsions:
REMARK  status: ('A' for Active; 'I' for Inactive)
REMARK    1  A    between atoms: C_18  and  C_19 
REMARK       I    between atoms: C_19  and  N_20 
REMARK    2  A    between atoms: N_20  and  C_21 
REMARK    3  A    between atoms: C_21  and  C_22 
REMARK    4  A    between atoms: C_22  and  C_23 
REMARK    5  A    between atoms: C_26  and  O_27 
ROOT
HETATM    1  C   UNL     1      26.917  47.120  54.968  1.00  0.00     0.016 C 
HETATM    2  C   UNL     1      26.123  46.361  53.936  1.00  0.00    -0.028 C 
HETATM    3  C   UNL     1      25.887  47.286  52.414  1.00  0.00     0.058 C 
HETATM    4  C   UNL     1      25.620  46.114  50.954  1.00  0.00     0.095 C 
HETATM    5  N   UNL     1      26.765  45.955  50.079  1.00  0.00    -0.334 N 
HETATM    6  C   UNL     1      27.258  46.988  49.331  1.00  0.00     0.255 C 
HETATM    7  O   UNL     1      28.392  46.971  48.870  1.00  0.00    -0.268 OA
HETATM    8  C   UNL     1      26.328  48.109  49.105  1.00  0.00     0.053 A 
HETATM    9  C   UNL     1      24.999  47.941  49.521  1.00  0.00     0.026 A 
HETATM   10  N   UNL     1      24.577  46.730  50.112  1.00  0.00    -0.265 NA
HETATM   11  C   UNL     1      26.756  49.279  48.472  1.00  0.00     0.019 A 
HETATM   12  C   UNL     1      25.842  50.303  48.244  1.00  0.00     0.001 A 
HETATM   13  C   UNL     1      24.508  50.140  48.620  1.00  0.00     0.002 A 
HETATM   14  C   UNL     1      24.083  48.956  49.235  1.00  0.00     0.024 A 
HETATM   15  C   UNL     1      25.095  44.540  51.515  1.00  0.00     0.030 C 
HETATM   16  C   UNL     1      25.367  43.611  52.985  1.00  0.00     0.009 C 
HETATM   17  C   UNL     1      25.568  44.750  54.499  1.00  0.00     0.010 C 
HETATM   18  C   UNL     1      26.678  45.464  52.990  1.00  0.00     0.086 C 
HETATM   19  C   UNL     1      24.774  45.360  52.608  1.00  0.00     0.023 C 
HETATM   20  H   UNL     1      27.411  45.191  50.223  1.00  0.00     0.164 HD
HETATM   21  H   UNL     1      23.679  46.829  50.575  1.00  0.00     0.130 HD
ENDROOT
BRANCH  18  22
HETATM   22  C   UNL     1      27.948  44.627  53.529  1.00  0.00     0.222 C 
HETATM   23  N   UNL     1      28.328  43.698  52.575  1.00  0.00    -0.360 N 
HETATM   24  H   UNL     1      27.849  43.705  51.684  1.00  0.00     0.162 HD
HETATM   25  O   UNL     1      28.501  44.690  54.616  1.00  0.00    -0.273 OA
BRANCH  23  26
HETATM   26  C   UNL     1      29.478  42.818  52.662  1.00  0.00     0.127 C 
BRANCH  26  27
HETATM   27  C   UNL     1      29.068  41.355  52.904  1.00  0.00     0.058 C 
BRANCH  27  28
HETATM   28  C   UNL     1      28.426  40.700  51.699  1.00  0.00    -0.057 A 
HETATM   29  C   UNL     1      27.125  41.025  51.300  1.00  0.00     0.010 A 
HETATM   30  C   UNL     1      26.512  40.322  50.258  1.00  0.00     0.037 A 
HETATM   31  C   UNL     1      27.188  39.300  49.588  1.00  0.00     0.068 A 
HETATM   32  C   UNL     1      28.487  38.978  49.975  1.00  0.00     0.037 A 
HETATM   33  C   UNL     1      29.101  39.674  51.022  1.00  0.00     0.010 A 
BRANCH  31  34
HETATM   34  O   UNL     1      26.471  38.684  48.599  1.00  0.00    -0.356 OA
HETATM   35  C   UNL     1      25.758  39.536  47.711  1.00  0.00     0.210 C 
ENDBRANCH  31  34
ENDBRANCH  27  28
ENDBRANCH  26  27
ENDBRANCH  23  26
ENDBRANCH  18  22
TORSDOF 5
ENDMDL
MODEL 3
REMARK VINA RESULT:      -8.8      9.524     13.803
REMARK  5 active torsions:
REMARK  status: ('A' for Active; 'I' for Inactive)
REMARK    1  A    between atoms: C_18  and  C_19 
REMARK       I    between atoms: C_19  and  N_20 
REMARK    2  A    between atoms: N_20  and  C_21 
REMARK    3  A    between atoms: C_21  and  C_22 
REMARK    4  A    between atoms: C_22  and  C_23 
REMARK    5  A    between atoms: C_26  and  O_27 
ROOT
HETATM    1  C   UNL     1      18.523  47.253  44.745  1.00  0.00     0.016 C 
HETATM    2  C   UNL     1      18.554  47.183  46.250  1.00  0.00    -0.028 C 
HETATM    3  C   UNL     1      20.039  47.909  46.955  1.00  0.00     0.058 C 
HETATM    4  C   UNL     1      19.719  48.503  48.722  1.00  0.00     0.095 C 
HETATM    5  N   UNL     1      19.565  49.937  48.867  1.00  0.00    -0.334 N 
HETATM    6  C   UNL     1      20.589  50.808  48.617  1.00  0.00     0.255 C 
HETATM    7  O   UNL     1      20.391  51.997  48.404  1.00  0.00    -0.268 OA
HETATM    8  C   UNL     1      21.941  50.223  48.643  1.00  0.00     0.053 A 
HETATM    9  C   UNL     1      22.064  48.895  49.080  1.00  0.00     0.026 A 
HETATM   10  N   UNL     1      20.928  48.167  49.497  1.00  0.00    -0.265 NA
HETATM   11  C   UNL     1      23.056  50.978  48.273  1.00  0.00     0.019 A 
HETATM   12  C   UNL     1      24.322  50.404  48.342  1.00  0.00     0.001 A 
HETATM   13  C   UNL     1      24.466  49.096  48.807  1.00  0.00     0.002 A 
HETATM   14  C   UNL     1      23.345  48.353  49.195  1.00  0.00     0.024 A 
HETATM   15  C   UNL     1      18.320  47.696  49.399  1.00  0.00     0.030 C 
HETATM   16  C   UNL     1      16.841  47.029  48.716  1.00  0.00     0.009 C 
HETATM   17  C   UNL     1      17.132  46.350  46.960  1.00  0.00     0.010 C 
HETATM   18  C   UNL     1      17.992  48.154  47.115  1.00  0.00     0.086 C 
HETATM   19  C   UNL     1      18.681  46.827  48.358  1.00  0.00     0.023 C 
HETATM   20  H   UNL     1      18.643  50.352  48.851  1.00  0.00     0.164 HD
HETATM   21  H   UNL     1      21.118  47.172  49.554  1.00  0.00     0.130 HD
ENDROOT
BRANCH  18  22
HETATM   22  C   UNL     1      16.643  48.843  46.558  1.00  0.00     0.222 C 
HETATM   23  N   UNL     1      16.445  50.056  47.196  1.00  0.00    -0.360 N 
HETATM   24  H   UNL     1      17.159  50.381  47.836  1.00  0.00     0.162 HD
HETATM   25  O   UNL     1      15.833  48.403  45.755  1.00  0.00    -0.273 OA
BRANCH  23  26
HETATM   26  C   UNL     1      15.385  51.003  46.905  1.00  0.00     0.127 C 
BRANCH  26  27
HETATM   27  C   UNL     1      15.807  52.451  47.207  1.00  0.00     0.058 C 
BRANCH  27  28
HETATM   28  C   UNL     1      15.018  53.090  48.331  1.00  0.00    -0.057 A 
HETATM   29  C   UNL     1      15.049  52.570  49.629  1.00  0.00     0.010 A 
HETATM   30  C   UNL     1      14.221  53.104  50.621  1.00  0.00     0.037 A 
HETATM   31  C   UNL     1      13.365  54.172  50.341  1.00  0.00     0.068 A 
HETATM   32  C   UNL     1      13.337  54.699  49.052  1.00  0.00     0.037 A 
HETATM   33  C   UNL     1      14.159  54.162  48.055  1.00  0.00     0.010 A 
BRANCH  31  34
HETATM   34  O   UNL     1      12.600  54.591  51.395  1.00  0.00    -0.356 OA
HETATM   35  C   UNL     1      11.827  55.767  51.187  1.00  0.00     0.210 C 
ENDBRANCH  31  34
ENDBRANCH  27  28
ENDBRANCH  26  27
ENDBRANCH  23  26
ENDBRANCH  18  22
TORSDOF 5
ENDMDL
MODEL 4
REMARK VINA RESULT:      -8.5      7.431     11.887
REMARK  5 active torsions:
REMARK  status: ('A' for Active; 'I' for Inactive)
REMARK    1  A    between atoms: C_18  and  C_19 
REMARK       I    between atoms: C_19  and  N_20 
REMARK    2  A    between atoms: N_20  and  C_21 
REMARK    3  A    between atoms: C_21  and  C_22 
REMARK    4  A    between atoms: C_22  and  C_23 
REMARK    5  A    between atoms: C_26  and  O_27 
ROOT
HETATM    1  C   UNL     1      21.157  45.285  45.149  1.00  0.00     0.016 C 
HETATM    2  C   UNL     1      20.839  45.811  46.525  1.00  0.00    -0.028 C 
HETATM    3  C   UNL     1      22.238  46.626  47.305  1.00  0.00     0.058 C 
HETATM    4  C   UNL     1      21.648  47.892  48.579  1.00  0.00     0.095 C 
HETATM    5  N   UNL     1      21.734  49.275  48.153  1.00  0.00    -0.334 N 
HETATM    6  C   UNL     1      22.931  49.887  47.902  1.00  0.00     0.255 C 
HETATM    7  O   UNL     1      23.009  50.908  47.231  1.00  0.00    -0.268 OA
HETATM    8  C   UNL     1      24.111  49.245  48.509  1.00  0.00     0.053 A 
HETATM    9  C   UNL     1      23.885  48.192  49.408  1.00  0.00     0.026 A 
HETATM   10  N   UNL     1      22.570  47.787  49.726  1.00  0.00    -0.265 NA
HETATM   11  C   UNL     1      25.400  49.696  48.218  1.00  0.00     0.019 A 
HETATM   12  C   UNL     1      26.490  49.089  48.835  1.00  0.00     0.001 A 
HETATM   13  C   UNL     1      26.282  48.063  49.758  1.00  0.00     0.002 A 
HETATM   14  C   UNL     1      24.985  47.631  50.060  1.00  0.00     0.024 A 
HETATM   15  C   UNL     1      20.008  47.541  49.084  1.00  0.00     0.030 C 
HETATM   16  C   UNL     1      18.621  46.788  48.304  1.00  0.00     0.009 C 
HETATM   17  C   UNL     1      19.165  45.450  47.063  1.00  0.00     0.010 C 
HETATM   18  C   UNL     1      20.288  47.089  46.793  1.00  0.00     0.086 C 
HETATM   19  C   UNL     1      20.424  46.305  48.567  1.00  0.00     0.023 C 
HETATM   20  H   UNL     1      20.932  49.728  47.735  1.00  0.00     0.164 HD
HETATM   21  H   UNL     1      22.554  46.882  50.185  1.00  0.00     0.130 HD
ENDROOT
BRANCH  18  22
HETATM   22  C   UNL     1      19.249  47.615  45.675  1.00  0.00     0.222 C 
HETATM   23  N   UNL     1      18.878  48.917  45.966  1.00  0.00    -0.360 N 
HETATM   24  H   UNL     1      19.329  49.380  46.745  1.00  0.00     0.162 HD
HETATM   25  O   UNL     1      18.763  47.007  44.734  1.00  0.00    -0.273 OA
BRANCH  23  26
HETATM   26  C   UNL     1      18.023  49.756  45.147  1.00  0.00     0.127 C 
BRANCH  26  27
HETATM   27  C   UNL     1      18.170  51.246  45.501  1.00  0.00     0.058 C 
BRANCH  27  28
HETATM   28  C   UNL     1      17.605  51.604  46.860  1.00  0.00    -0.057 A 
HETATM   29  C   UNL     1      16.236  51.497  47.131  1.00  0.00     0.010 A 
HETATM   30  C   UNL     1      15.724  51.945  48.352  1.00  0.00     0.037 A 
HETATM   31  C   UNL     1      16.565  52.488  49.326  1.00  0.00     0.068 A 
HETATM   32  C   UNL     1      17.929  52.587  49.066  1.00  0.00     0.037 A 
HETATM   33  C   UNL     1      18.445  52.147  47.842  1.00  0.00     0.010 A 
BRANCH  31  34
HETATM   34  O   UNL     1      15.936  52.899  50.470  1.00  0.00    -0.356 OA
HETATM   35  C   UNL     1      14.517  52.988  50.414  1.00  0.00     0.210 C 
ENDBRANCH  31  34
ENDBRANCH  27  28
ENDBRANCH  26  27
ENDBRANCH  23  26
ENDBRANCH  18  22
TORSDOF 5
ENDMDL
MODEL 5
REMARK VINA RESULT:      -8.5     13.064     14.651
REMARK  5 active torsions:
REMARK  status: ('A' for Active; 'I' for Inactive)
REMARK    1  A    between atoms: C_18  and  C_19 
REMARK       I    between atoms: C_19  and  N_20 
REMARK    2  A    between atoms: N_20  and  C_21 
REMARK    3  A    between atoms: C_21  and  C_22 
REMARK    4  A    between atoms: C_22  and  C_23 
REMARK    5  A    between atoms: C_26  and  O_27 
ROOT
HETATM    1  C   UNL     1      30.709  51.544  37.751  1.00  0.00     0.016 C 
HETATM    2  C   UNL     1      29.606  51.711  38.764  1.00  0.00    -0.028 C 
HETATM    3  C   UNL     1      28.266  50.534  38.542  1.00  0.00     0.058 C 
HETATM    4  C   UNL     1      27.357  50.241  40.174  1.00  0.00     0.095 C 
HETATM    5  N   UNL     1      27.667  48.987  40.831  1.00  0.00    -0.334 N 
HETATM    6  C   UNL     1      27.345  47.777  40.280  1.00  0.00     0.255 C 
HETATM    7  O   UNL     1      27.886  46.738  40.635  1.00  0.00    -0.268 OA
HETATM    8  C   UNL     1      26.292  47.810  39.249  1.00  0.00     0.053 A 
HETATM    9  C   UNL     1      25.613  49.022  39.055  1.00  0.00     0.026 A 
HETATM   10  N   UNL     1      25.923  50.154  39.841  1.00  0.00    -0.265 NA
HETATM   11  C   UNL     1      25.968  46.664  38.519  1.00  0.00     0.019 A 
HETATM   12  C   UNL     1      24.945  46.722  37.578  1.00  0.00     0.001 A 
HETATM   13  C   UNL     1      24.236  47.910  37.396  1.00  0.00     0.002 A 
HETATM   14  C   UNL     1      24.553  49.049  38.146  1.00  0.00     0.024 A 
HETATM   15  C   UNL     1      27.643  51.565  41.285  1.00  0.00     0.030 C 
HETATM   16  C   UNL     1      28.976  52.686  41.537  1.00  0.00     0.009 C 
HETATM   17  C   UNL     1      29.878  53.070  39.904  1.00  0.00     0.010 C 
HETATM   18  C   UNL     1      29.580  51.092  40.039  1.00  0.00     0.086 C 
HETATM   19  C   UNL     1      27.950  52.152  40.049  1.00  0.00     0.023 C 
HETATM   20  H   UNL     1      28.388  48.950  41.540  1.00  0.00     0.164 HD
HETATM   21  H   UNL     1      25.540  51.006  39.442  1.00  0.00     0.130 HD
ENDROOT
BRANCH  18  22
HETATM   22  C   UNL     1      31.031  50.922  40.727  1.00  0.00     0.222 C 
HETATM   23  N   UNL     1      30.884  50.341  41.975  1.00  0.00    -0.360 N 
HETATM   24  H   UNL     1      29.960  50.041  42.257  1.00  0.00     0.162 HD
HETATM   25  O   UNL     1      32.122  51.284  40.314  1.00  0.00    -0.273 OA
BRANCH  23  26
HETATM   26  C   UNL     1      31.967  49.954  42.861  1.00  0.00     0.127 C 
BRANCH  26  27
HETATM   27  C   UNL     1      32.544  51.158  43.625  1.00  0.00     0.058 C 
BRANCH  27  28
HETATM   28  C   UNL     1      34.008  51.415  43.333  1.00  0.00    -0.057 A 
HETATM   29  C   UNL     1      34.682  50.719  42.322  1.00  0.00     0.010 A 
HETATM   30  C   UNL     1      36.059  50.887  42.151  1.00  0.00     0.037 A 
HETATM   31  C   UNL     1      36.782  51.759  42.968  1.00  0.00     0.068 A 
HETATM   32  C   UNL     1      36.115  52.461  43.969  1.00  0.00     0.037 A 
HETATM   33  C   UNL     1      34.738  52.291  44.148  1.00  0.00     0.010 A 
BRANCH  31  34
HETATM   34  O   UNL     1      38.123  51.822  42.704  1.00  0.00    -0.356 OA
HETATM   35  C   UNL     1      38.491  52.019  41.344  1.00  0.00     0.210 C 
ENDBRANCH  31  34
ENDBRANCH  27  28
ENDBRANCH  26  27
ENDBRANCH  23  26
ENDBRANCH  18  22
TORSDOF 5
ENDMDL
MODEL 6
REMARK VINA RESULT:      -8.4     13.565     16.299
REMARK  5 active torsions:
REMARK  status: ('A' for Active; 'I' for Inactive)
REMARK    1  A    between atoms: C_18  and  C_19 
REMARK       I    between atoms: C_19  and  N_20 
REMARK    2  A    between atoms: N_20  and  C_21 
REMARK    3  A    between atoms: C_21  and  C_22 
REMARK    4  A    between atoms: C_22  and  C_23 
REMARK    5  A    between atoms: C_26  and  O_27 
ROOT
HETATM    1  C   UNL     1      32.151  47.541  40.693  1.00  0.00     0.016 C 
HETATM    2  C   UNL     1      32.172  48.869  41.405  1.00  0.00    -0.028 C 
HETATM    3  C   UNL     1      33.823  49.566  41.540  1.00  0.00     0.058 C 
HETATM    4  C   UNL     1      33.743  51.450  41.692  1.00  0.00     0.095 C 
HETATM    5  N   UNL     1      34.088  52.176  40.487  1.00  0.00    -0.334 N 
HETATM    6  C   UNL     1      35.345  52.140  39.949  1.00  0.00     0.255 C 
HETATM    7  O   UNL     1      35.561  52.452  38.786  1.00  0.00    -0.268 OA
HETATM    8  C   UNL     1      36.417  51.721  40.870  1.00  0.00     0.053 A 
HETATM    9  C   UNL     1      36.084  51.568  42.224  1.00  0.00     0.026 A 
HETATM   10  N   UNL     1      34.772  51.830  42.677  1.00  0.00    -0.265 NA
HETATM   11  C   UNL     1      37.719  51.516  40.408  1.00  0.00     0.019 A 
HETATM   12  C   UNL     1      38.713  51.154  41.311  1.00  0.00     0.001 A 
HETATM   13  C   UNL     1      38.408  51.031  42.667  1.00  0.00     0.002 A 
HETATM   14  C   UNL     1      37.105  51.258  43.126  1.00  0.00     0.024 A 
HETATM   15  C   UNL     1      32.159  51.956  42.243  1.00  0.00     0.030 C 
HETATM   16  C   UNL     1      30.534  51.301  42.069  1.00  0.00     0.009 C 
HETATM   17  C   UNL     1      30.559  49.398  41.986  1.00  0.00     0.010 C 
HETATM   18  C   UNL     1      31.983  50.125  40.777  1.00  0.00     0.086 C 
HETATM   19  C   UNL     1      32.191  50.613  42.648  1.00  0.00     0.023 C 
HETATM   20  H   UNL     1      33.362  52.470  39.846  1.00  0.00     0.164 HD
HETATM   21  H   UNL     1      34.612  51.455  43.607  1.00  0.00     0.130 HD
ENDROOT
BRANCH  18  22
HETATM   22  C   UNL     1      30.944  50.104  39.542  1.00  0.00     0.222 C 
HETATM   23  N   UNL     1      30.747  51.395  39.082  1.00  0.00    -0.360 N 
HETATM   24  H   UNL     1      31.297  52.138  39.494  1.00  0.00     0.162 HD
HETATM   25  O   UNL     1      30.333  49.157  39.072  1.00  0.00    -0.273 OA
BRANCH  23  26
HETATM   26  C   UNL     1      29.946  51.770  37.932  1.00  0.00     0.127 C 
BRANCH  26  27
HETATM   27  C   UNL     1      28.551  52.274  38.341  1.00  0.00     0.058 C 
BRANCH  27  28
HETATM   28  C   UNL     1      27.633  51.177  38.840  1.00  0.00    -0.057 A 
HETATM   29  C   UNL     1      27.522  50.885  40.204  1.00  0.00     0.010 A 
HETATM   30  C   UNL     1      26.761  49.793  40.630  1.00  0.00     0.037 A 
HETATM   31  C   UNL     1      26.087  48.987  39.710  1.00  0.00     0.068 A 
HETATM   32  C   UNL     1      26.186  49.279  38.351  1.00  0.00     0.037 A 
HETATM   33  C   UNL     1      26.953  50.367  37.921  1.00  0.00     0.010 A 
BRANCH  31  34
HETATM   34  O   UNL     1      25.389  47.944  40.256  1.00  0.00    -0.356 OA
HETATM   35  C   UNL     1      23.982  47.944  40.044  1.00  0.00     0.210 C 
ENDBRANCH  31  34
ENDBRANCH  27  28
ENDBRANCH  26  27
ENDBRANCH  23  26
ENDBRANCH  18  22
TORSDOF 5
ENDMDL
MODEL 7
REMARK VINA RESULT:      -8.2     15.258     18.905
REMARK  5 active torsions:
REMARK  status: ('A' for Active; 'I' for Inactive)
REMARK    1  A    between atoms: C_18  and  C_19 
REMARK       I    between atoms: C_19  and  N_20 
REMARK    2  A    between atoms: N_20  and  C_21 
REMARK    3  A    between atoms: C_21  and  C_22 
REMARK    4  A    between atoms: C_22  and  C_23 
REMARK    5  A    between atoms: C_26  and  O_27 
ROOT
HETATM    1  C   UNL     1      42.789  46.734  64.945  1.00  0.00     0.016 C 
HETATM    2  C   UNL     1      41.692  46.427  65.931  1.00  0.00    -0.028 C 
HETATM    3  C   UNL     1      40.692  47.863  66.338  1.00  0.00     0.058 C 
HETATM    4  C   UNL     1      38.963  47.338  66.894  1.00  0.00     0.095 C 
HETATM    5  N   UNL     1      37.919  47.528  65.906  1.00  0.00    -0.334 N 
HETATM    6  C   UNL     1      37.546  48.769  65.470  1.00  0.00     0.255 C 
HETATM    7  O   UNL     1      36.934  48.931  64.422  1.00  0.00    -0.268 OA
HETATM    8  C   UNL     1      37.915  49.890  66.353  1.00  0.00     0.053 A 
HETATM    9  C   UNL     1      38.448  49.574  67.612  1.00  0.00     0.026 A 
HETATM   10  N   UNL     1      38.598  48.228  68.013  1.00  0.00    -0.265 NA
HETATM   11  C   UNL     1      37.710  51.213  65.955  1.00  0.00     0.019 A 
HETATM   12  C   UNL     1      38.038  52.246  66.829  1.00  0.00     0.001 A 
HETATM   13  C   UNL     1      38.537  51.949  68.098  1.00  0.00     0.002 A 
HETATM   14  C   UNL     1      38.720  50.620  68.497  1.00  0.00     0.024 A 
HETATM   15  C   UNL     1      38.966  45.668  67.423  1.00  0.00     0.030 C 
HETATM   16  C   UNL     1      39.910  44.248  66.989  1.00  0.00     0.009 C 
HETATM   17  C   UNL     1      41.687  44.722  66.492  1.00  0.00     0.010 C 
HETATM   18  C   UNL     1      40.400  45.960  65.582  1.00  0.00     0.086 C 
HETATM   19  C   UNL     1      40.323  46.008  67.524  1.00  0.00     0.023 C 
HETATM   20  H   UNL     1      37.656  46.768  65.294  1.00  0.00     0.164 HD
HETATM   21  H   UNL     1      39.204  48.141  68.822  1.00  0.00     0.130 HD
ENDROOT
BRANCH  18  22
HETATM   22  C   UNL     1      40.368  44.982  64.298  1.00  0.00     0.222 C 
HETATM   23  N   UNL     1      39.058  44.801  63.887  1.00  0.00    -0.360 N 
HETATM   24  H   UNL     1      38.333  45.327  64.358  1.00  0.00     0.162 HD
HETATM   25  O   UNL     1      41.295  44.398  63.757  1.00  0.00    -0.273 OA
BRANCH  23  26
HETATM   26  C   UNL     1      38.634  44.055  62.718  1.00  0.00     0.127 C 
BRANCH  26  27
HETATM   27  C   UNL     1      37.802  42.817  63.095  1.00  0.00     0.058 C 
BRANCH  27  28
HETATM   28  C   UNL     1      38.641  41.596  63.409  1.00  0.00    -0.057 A 
HETATM   29  C   UNL     1      39.058  40.720  62.401  1.00  0.00     0.010 A 
HETATM   30  C   UNL     1      39.730  39.538  62.729  1.00  0.00     0.037 A 
HETATM   31  C   UNL     1      40.011  39.220  64.059  1.00  0.00     0.068 A 
HETATM   32  C   UNL     1      39.607  40.093  65.066  1.00  0.00     0.037 A 
HETATM   33  C   UNL     1      38.929  41.273  64.743  1.00  0.00     0.010 A 
BRANCH  31  34
HETATM   34  O   UNL     1      40.661  38.030  64.244  1.00  0.00    -0.356 OA
HETATM   35  C   UNL     1      41.705  38.023  65.210  1.00  0.00     0.210 C 
ENDBRANCH  31  34
ENDBRANCH  27  28
ENDBRANCH  26  27
ENDBRANCH  23  26
ENDBRANCH  18  22
TORSDOF 5
ENDMDL
MODEL 8
REMARK VINA RESULT:      -8.2      2.604      3.797
REMARK  5 active torsions:
REMARK  status: ('A' for Active; 'I' for Inactive)
REMARK    1  A    between atoms: C_18  and  C_19 
REMARK       I    between atoms: C_19  and  N_20 
REMARK    2  A    between atoms: N_20  and  C_21 
REMARK    3  A    between atoms: C_21  and  C_22 
REMARK    4  A    between atoms: C_22  and  C_23 
REMARK    5  A    between atoms: C_26  and  O_27 
ROOT
HETATM    1  C   UNL     1      27.288  44.902  49.913  1.00  0.00     0.016 C 
HETATM    2  C   UNL     1      26.055  44.077  49.651  1.00  0.00    -0.028 C 
HETATM    3  C   UNL     1      26.338  42.746  48.477  1.00  0.00     0.058 C 
HETATM    4  C   UNL     1      25.107  41.337  48.755  1.00  0.00     0.095 C 
HETATM    5  N   UNL     1      25.650  40.174  49.427  1.00  0.00    -0.334 N 
HETATM    6  C   UNL     1      26.619  39.393  48.861  1.00  0.00     0.255 C 
HETATM    7  O   UNL     1      27.315  38.638  49.528  1.00  0.00    -0.268 OA
HETATM    8  C   UNL     1      26.755  39.508  47.398  1.00  0.00     0.053 A 
HETATM    9  C   UNL     1      25.786  40.260  46.716  1.00  0.00     0.026 A 
HETATM   10  N   UNL     1      24.715  40.859  47.416  1.00  0.00    -0.265 NA
HETATM   11  C   UNL     1      27.794  38.866  46.722  1.00  0.00     0.019 A 
HETATM   12  C   UNL     1      27.871  38.968  45.336  1.00  0.00     0.001 A 
HETATM   13  C   UNL     1      26.896  39.683  44.638  1.00  0.00     0.002 A 
HETATM   14  C   UNL     1      25.846  40.307  45.322  1.00  0.00     0.024 A 
HETATM   15  C   UNL     1      23.701  41.910  49.630  1.00  0.00     0.030 C 
HETATM   16  C   UNL     1      23.432  43.181  50.817  1.00  0.00     0.009 C 
HETATM   17  C   UNL     1      24.602  44.657  50.531  1.00  0.00     0.010 C 
HETATM   18  C   UNL     1      25.655  42.955  50.419  1.00  0.00     0.086 C 
HETATM   19  C   UNL     1      24.226  43.103  49.109  1.00  0.00     0.023 C 
HETATM   20  H   UNL     1      25.564  40.081  50.430  1.00  0.00     0.164 HD
HETATM   21  H   UNL     1      24.239  41.556  46.852  1.00  0.00     0.130 HD
ENDROOT
BRANCH  18  22
HETATM   22  C   UNL     1      26.000  43.066  51.992  1.00  0.00     0.222 C 
HETATM   23  N   UNL     1      26.890  42.064  52.342  1.00  0.00    -0.360 N 
HETATM   24  H   UNL     1      27.254  41.470  51.607  1.00  0.00     0.162 HD
HETATM   25  O   UNL     1      25.543  43.834  52.824  1.00  0.00    -0.273 OA
BRANCH  23  26
HETATM   26  C   UNL     1      27.496  41.889  53.648  1.00  0.00     0.127 C 
BRANCH  26  27
HETATM   27  C   UNL     1      29.017  42.119  53.612  1.00  0.00     0.058 C 
BRANCH  27  28
HETATM   28  C   UNL     1      29.476  43.273  54.479  1.00  0.00    -0.057 A 
HETATM   29  C   UNL     1      30.594  43.159  55.312  1.00  0.00     0.010 A 
HETATM   30  C   UNL     1      30.927  44.196  56.189  1.00  0.00     0.037 A 
HETATM   31  C   UNL     1      30.164  45.365  56.239  1.00  0.00     0.068 A 
HETATM   32  C   UNL     1      29.055  45.487  55.406  1.00  0.00     0.037 A 
HETATM   33  C   UNL     1      28.715  44.449  54.532  1.00  0.00     0.010 A 
BRANCH  31  34
HETATM   34  O   UNL     1      30.589  46.294  57.149  1.00  0.00    -0.356 OA
HETATM   35  C   UNL     1      30.606  45.884  58.511  1.00  0.00     0.210 C 
ENDBRANCH  31  34
ENDBRANCH  27  28
ENDBRANCH  26  27
ENDBRANCH  23  26
ENDBRANCH  18  22
TORSDOF 5
ENDMDL
MODEL 9
REMARK VINA RESULT:      -8.2     15.332     17.769
REMARK  5 active torsions:
REMARK  status: ('A' for Active; 'I' for Inactive)
REMARK    1  A    between atoms: C_18  and  C_19 
REMARK       I    between atoms: C_19  and  N_20 
REMARK    2  A    between atoms: N_20  and  C_21 
REMARK    3  A    between atoms: C_21  and  C_22 
REMARK    4  A    between atoms: C_22  and  C_23 
REMARK    5  A    between atoms: C_26  and  O_27 
ROOT
HETATM    1  C   UNL     1      38.699  45.703  68.461  1.00  0.00     0.016 C 
HETATM    2  C   UNL     1      39.984  45.498  67.702  1.00  0.00    -0.028 C 
HETATM    3  C   UNL     1      39.937  44.065  66.617  1.00  0.00     0.058 C 
HETATM    4  C   UNL     1      41.151  44.273  65.182  1.00  0.00     0.095 C 
HETATM    5  N   UNL     1      40.543  44.616  63.912  1.00  0.00    -0.334 N 
HETATM    6  C   UNL     1      39.703  43.762  63.252  1.00  0.00     0.255 C 
HETATM    7  O   UNL     1      38.933  44.152  62.385  1.00  0.00    -0.268 OA
HETATM    8  C   UNL     1      39.803  42.344  63.644  1.00  0.00     0.053 A 
HETATM    9  C   UNL     1      40.845  41.985  64.512  1.00  0.00     0.026 A 
HETATM   10  N   UNL     1      41.769  42.951  64.967  1.00  0.00    -0.265 NA
HETATM   11  C   UNL     1      38.908  41.398  63.142  1.00  0.00     0.019 A 
HETATM   12  C   UNL     1      39.053  40.062  63.506  1.00  0.00     0.001 A 
HETATM   13  C   UNL     1      40.104  39.681  64.341  1.00  0.00     0.002 A 
HETATM   14  C   UNL     1      41.009  40.633  64.824  1.00  0.00     0.024 A 
HETATM   15  C   UNL     1      42.377  45.459  65.579  1.00  0.00     0.030 C 
HETATM   16  C   UNL     1      42.410  46.892  66.601  1.00  0.00     0.009 C 
HETATM   17  C   UNL     1      41.256  46.698  68.104  1.00  0.00     0.010 C 
HETATM   18  C   UNL     1      40.289  46.097  66.454  1.00  0.00     0.086 C 
HETATM   19  C   UNL     1      41.906  45.092  66.849  1.00  0.00     0.023 C 
HETATM   20  H   UNL     1      40.468  45.584  63.631  1.00  0.00     0.164 HD
HETATM   21  H   UNL     1      42.307  42.614  65.759  1.00  0.00     0.130 HD
ENDROOT
BRANCH  18  22
HETATM   22  C   UNL     1      39.691  47.584  66.264  1.00  0.00     0.222 C 
HETATM   23  N   UNL     1      39.149  47.706  64.995  1.00  0.00    -0.360 N 
HETATM   24  H   UNL     1      39.124  46.883  64.405  1.00  0.00     0.162 HD
HETATM   25  O   UNL     1      39.730  48.530  67.036  1.00  0.00    -0.273 OA
BRANCH  23  26
HETATM   26  C   UNL     1      38.446  48.866  64.483  1.00  0.00     0.127 C 
BRANCH  26  27
HETATM   27  C   UNL     1      36.973  48.554  64.167  1.00  0.00     0.058 C 
BRANCH  27  28
HETATM   28  C   UNL     1      36.459  47.304  64.850  1.00  0.00    -0.057 A 
HETATM   29  C   UNL     1      35.952  47.342  66.154  1.00  0.00     0.010 A 
HETATM   30  C   UNL     1      35.595  46.158  66.805  1.00  0.00     0.037 A 
HETATM   31  C   UNL     1      35.720  44.923  66.165  1.00  0.00     0.068 A 
HETATM   32  C   UNL     1      36.215  44.879  64.864  1.00  0.00     0.037 A 
HETATM   33  C   UNL     1      36.580  46.062  64.212  1.00  0.00     0.010 A 
BRANCH  31  34
HETATM   34  O   UNL     1      35.348  43.842  66.917  1.00  0.00    -0.356 OA
HETATM   35  C   UNL     1      34.269  43.063  66.415  1.00  0.00     0.210 C 
ENDBRANCH  31  34
ENDBRANCH  27  28
ENDBRANCH  26  27
ENDBRANCH  23  26
ENDBRANCH  18  22
TORSDOF 5
ENDMDL
MODEL 10
REMARK VINA RESULT:      -8.1      9.003     13.854
REMARK  5 active torsions:
REMARK  status: ('A' for Active; 'I' for Inactive)
REMARK    1  A    between atoms: C_18  and  C_19 
REMARK       I    between atoms: C_19  and  N_20 
REMARK    2  A    between atoms: N_20  and  C_21 
REMARK    3  A    between atoms: C_21  and  C_22 
REMARK    4  A    between atoms: C_22  and  C_23 
REMARK    5  A    between atoms: C_26  and  O_27 
ROOT
HETATM    1  C   UNL     1      18.494  47.315  44.748  1.00  0.00     0.016 C 
HETATM    2  C   UNL     1      18.482  47.280  46.254  1.00  0.00    -0.028 C 
HETATM    3  C   UNL     1      19.978  47.960  46.984  1.00  0.00     0.058 C 
HETATM    4  C   UNL     1      19.636  48.609  48.727  1.00  0.00     0.095 C 
HETATM    5  N   UNL     1      19.539  50.051  48.835  1.00  0.00    -0.334 N 
HETATM    6  C   UNL     1      20.605  50.872  48.595  1.00  0.00     0.255 C 
HETATM    7  O   UNL     1      20.464  52.063  48.349  1.00  0.00    -0.268 OA
HETATM    8  C   UNL     1      21.931  50.232  48.671  1.00  0.00     0.053 A 
HETATM    9  C   UNL     1      21.984  48.911  49.142  1.00  0.00     0.026 A 
HETATM   10  N   UNL     1      20.808  48.241  49.544  1.00  0.00    -0.265 NA
HETATM   11  C   UNL     1      23.086  50.930  48.316  1.00  0.00     0.019 A 
HETATM   12  C   UNL     1      24.324  50.306  48.433  1.00  0.00     0.001 A 
HETATM   13  C   UNL     1      24.399  49.004  48.932  1.00  0.00     0.002 A 
HETATM   14  C   UNL     1      23.238  48.318  49.305  1.00  0.00     0.024 A 
HETATM   15  C   UNL     1      18.185  47.878  49.383  1.00  0.00     0.030 C 
HETATM   16  C   UNL     1      16.698  47.258  48.675  1.00  0.00     0.009 C 
HETATM   17  C   UNL     1      17.008  46.525  46.944  1.00  0.00     0.010 C 
HETATM   18  C   UNL     1      17.939  48.295  47.082  1.00  0.00     0.086 C 
HETATM   19  C   UNL     1      18.537  46.970  48.373  1.00  0.00     0.023 C 
HETATM   20  H   UNL     1      18.636  50.504  48.784  1.00  0.00     0.164 HD
HETATM   21  H   UNL     1      20.954  47.240  49.628  1.00  0.00     0.130 HD
ENDROOT
BRANCH  18  22
HETATM   22  C   UNL     1      16.636  49.026  46.471  1.00  0.00     0.222 C 
HETATM   23  N   UNL     1      16.852  50.393  46.426  1.00  0.00    -0.360 N 
HETATM   24  H   UNL     1      17.765  50.741  46.689  1.00  0.00     0.162 HD
HETATM   25  O   UNL     1      15.566  48.536  46.142  1.00  0.00    -0.273 OA
BRANCH  23  26
HETATM   26  C   UNL     1      15.944  51.375  45.864  1.00  0.00     0.127 C 
BRANCH  26  27
HETATM   27  C   UNL     1      16.695  52.563  45.237  1.00  0.00     0.058 C 
BRANCH  27  28
HETATM   28  C   UNL     1      17.309  52.247  43.889  1.00  0.00    -0.057 A 
HETATM   29  C   UNL     1      18.084  51.099  43.692  1.00  0.00     0.010 A 
HETATM   30  C   UNL     1      18.736  50.891  42.473  1.00  0.00     0.037 A 
HETATM   31  C   UNL     1      18.614  51.810  41.429  1.00  0.00     0.068 A 
HETATM   32  C   UNL     1      17.836  52.950  41.616  1.00  0.00     0.037 A 
HETATM   33  C   UNL     1      17.188  53.166  42.837  1.00  0.00     0.010 A 
BRANCH  31  34
HETATM   34  O   UNL     1      19.313  51.495  40.296  1.00  0.00    -0.356 OA
HETATM   35  C   UNL     1      20.731  51.580  40.383  1.00  0.00     0.210 C 
ENDBRANCH  31  34
ENDBRANCH  27  28
ENDBRANCH  26  27
ENDBRANCH  23  26
ENDBRANCH  18  22
TORSDOF 5
ENDMDL
