MODEL 1
REMARK VINA RESULT:     -10.1      0.000      0.000
REMARK  4 active torsions:
REMARK  status: ('A' for Active; 'I' for Inactive)
REMARK    1  A    between atoms: N_8  and  C_10 
REMARK    2  A    between atoms: C_10  and  C_11 
REMARK    3  A    between atoms: C_14  and  C_15 
REMARK    4  A    between atoms: C_22  and  C_23 
ROOT
HETATM    1  C   UNL     1      26.551  40.401  51.034  1.00  0.00     0.269 C 
HETATM    2  N   UNL     1      26.530  41.835  51.529  1.00  0.00    -0.073 N 
HETATM    3  H   UNL     1      25.635  41.927  52.028  1.00  0.00     0.279 HD
HETATM    4  C   UNL     1      26.582  42.810  50.380  1.00  0.00     0.244 C 
HETATM    5  C   UNL     1      26.490  44.286  50.863  1.00  0.00    -0.013 C 
HETATM    6  C   UNL     1      26.764  45.206  49.639  1.00  0.00     0.039 C 
HETATM    7  C   UNL     1      26.539  46.693  49.914  1.00  0.00     0.236 C 
HETATM    8  N   UNL     1      25.152  46.925  50.450  1.00  0.00    -0.064 N 
HETATM    9  H   UNL     1      25.152  47.918  50.750  1.00  0.00     0.280 HD
HETATM   10  C   UNL     1      24.828  46.108  51.660  1.00  0.00     0.236 C 
HETATM   11  C   UNL     1      25.065  44.617  51.390  1.00  0.00     0.039 C 
HETATM   12  C   UNL     1      27.582  44.523  51.942  1.00  0.00     0.022 C 
HETATM   13  C   UNL     1      27.559  43.487  53.084  1.00  0.00     0.045 C 
HETATM   14  C   UNL     1      27.645  42.056  52.537  1.00  0.00     0.243 C 
ENDROOT
BRANCH  13  15
HETATM   15  C   UNL     1      28.653  43.757  54.097  1.00  0.00    -0.052 A 
HETATM   16  C   UNL     1      28.629  44.946  54.844  1.00  0.00     0.007 A 
HETATM   17  C   UNL     1      29.625  45.217  55.783  1.00  0.00     0.001 A 
HETATM   18  C   UNL     1      30.657  44.307  55.990  1.00  0.00     0.000 A 
HETATM   19  C   UNL     1      30.694  43.123  55.260  1.00  0.00     0.001 A 
HETATM   20  C   UNL     1      29.701  42.848  54.319  1.00  0.00     0.007 A 
ENDBRANCH  13  15
BRANCH   8  21
HETATM   21  C   UNL     1      24.050  46.946  49.377  1.00  0.00     0.317 C 
BRANCH  21  22
HETATM   22  C   UNL     1      23.326  48.246  49.324  1.00  0.00     0.181 A 
HETATM   23  N   UNL     1      23.906  49.414  49.597  1.00  0.00    -0.109 NA
HETATM   24  O   UNL     1      22.846  50.320  49.488  1.00  0.00    -0.196 OA
HETATM   25  C   UNL     1      21.726  49.587  49.192  1.00  0.00     0.177 A 
HETATM   26  N   UNL     1      21.972  48.291  49.113  1.00  0.00    -0.207 NA
BRANCH  25  27
HETATM   27  C   UNL     1      20.356  50.220  48.999  1.00  0.00     0.065 A 
HETATM   28  C   UNL     1      19.910  51.296  49.968  1.00  0.00     0.013 A 
HETATM   29  C   UNL     1      20.277  51.673  48.575  1.00  0.00     0.013 A 
ENDBRANCH  25  27
ENDBRANCH  21  22
ENDBRANCH   8  21
TORSDOF 4
ENDMDL
MODEL 2
REMARK VINA RESULT:      -8.7      4.151      5.936
REMARK  4 active torsions:
REMARK  status: ('A' for Active; 'I' for Inactive)
REMARK    1  A    between atoms: N_8  and  C_10 
REMARK    2  A    between atoms: C_10  and  C_11 
REMARK    3  A    between atoms: C_14  and  C_15 
REMARK    4  A    between atoms: C_22  and  C_23 
ROOT
HETATM    1  C   UNL     1      26.321  48.732  55.631  1.00  0.00     0.269 C 
HETATM    2  N   UNL     1      26.886  47.557  54.854  1.00  0.00    -0.073 N 
HETATM    3  H   UNL     1      27.370  47.983  54.052  1.00  0.00     0.279 HD
HETATM    4  C   UNL     1      25.789  46.644  54.369  1.00  0.00     0.244 C 
HETATM    5  C   UNL     1      26.343  45.472  53.510  1.00  0.00    -0.013 C 
HETATM    6  C   UNL     1      25.173  44.482  53.241  1.00  0.00     0.039 C 
HETATM    7  C   UNL     1      25.517  43.360  52.262  1.00  0.00     0.236 C 
HETATM    8  N   UNL     1      26.034  43.931  50.969  1.00  0.00    -0.064 N 
HETATM    9  H   UNL     1      26.383  43.108  50.443  1.00  0.00     0.280 HD
HETATM   10  C   UNL     1      27.194  44.859  51.139  1.00  0.00     0.236 C 
HETATM   11  C   UNL     1      26.855  45.978  52.132  1.00  0.00     0.039 C 
HETATM   12  C   UNL     1      27.456  44.749  54.317  1.00  0.00     0.022 C 
HETATM   13  C   UNL     1      28.544  45.698  54.858  1.00  0.00     0.045 C 
HETATM   14  C   UNL     1      27.928  46.831  55.688  1.00  0.00     0.243 C 
ENDROOT
BRANCH  13  15
HETATM   15  C   UNL     1      29.593  44.942  55.649  1.00  0.00    -0.052 A 
HETATM   16  C   UNL     1      30.008  45.433  56.897  1.00  0.00     0.007 A 
HETATM   17  C   UNL     1      30.971  44.754  57.645  1.00  0.00     0.001 A 
HETATM   18  C   UNL     1      31.531  43.576  57.159  1.00  0.00     0.000 A 
HETATM   19  C   UNL     1      31.129  43.075  55.925  1.00  0.00     0.001 A 
HETATM   20  C   UNL     1      30.166  43.752  55.173  1.00  0.00     0.007 A 
ENDBRANCH  13  15
BRANCH   8  21
HETATM   21  C   UNL     1      24.940  44.442  50.016  1.00  0.00     0.317 C 
BRANCH  21  22
HETATM   22  C   UNL     1      24.116  43.341  49.447  1.00  0.00     0.181 A 
HETATM   23  N   UNL     1      22.874  43.075  49.853  1.00  0.00    -0.109 NA
HETATM   24  O   UNL     1      22.537  41.944  49.103  1.00  0.00    -0.196 OA
HETATM   25  C   UNL     1      23.635  41.628  48.345  1.00  0.00     0.177 A 
HETATM   26  N   UNL     1      24.650  42.450  48.551  1.00  0.00    -0.207 NA
BRANCH  25  27
HETATM   27  C   UNL     1      23.663  40.443  47.391  1.00  0.00     0.065 A 
HETATM   28  C   UNL     1      23.096  40.619  45.997  1.00  0.00     0.013 A 
HETATM   29  C   UNL     1      24.570  40.504  46.178  1.00  0.00     0.013 A 
ENDBRANCH  25  27
ENDBRANCH  21  22
ENDBRANCH   8  21
TORSDOF 4
ENDMDL
MODEL 3
REMARK VINA RESULT:      -8.5      1.950      4.383
REMARK  4 active torsions:
REMARK  status: ('A' for Active; 'I' for Inactive)
REMARK    1  A    between atoms: N_8  and  C_10 
REMARK    2  A    between atoms: C_10  and  C_11 
REMARK    3  A    between atoms: C_14  and  C_15 
REMARK    4  A    between atoms: C_22  and  C_23 
ROOT
HETATM    1  C   UNL     1      29.781  42.969  54.240  1.00  0.00     0.269 C 
HETATM    2  N   UNL     1      28.959  42.875  52.968  1.00  0.00    -0.073 N 
HETATM    3  H   UNL     1      29.472  43.445  52.282  1.00  0.00     0.279 HD
HETATM    4  C   UNL     1      27.573  43.435  53.170  1.00  0.00     0.244 C 
HETATM    5  C   UNL     1      26.738  43.412  51.858  1.00  0.00    -0.013 C 
HETATM    6  C   UNL     1      25.276  43.805  52.216  1.00  0.00     0.039 C 
HETATM    7  C   UNL     1      24.367  43.997  51.002  1.00  0.00     0.236 C 
HETATM    8  N   UNL     1      24.964  44.996  50.050  1.00  0.00    -0.064 N 
HETATM    9  H   UNL     1      24.367  44.938  49.204  1.00  0.00     0.280 HD
HETATM   10  C   UNL     1      26.358  44.663  49.620  1.00  0.00     0.236 C 
HETATM   11  C   UNL     1      27.269  44.458  50.837  1.00  0.00     0.039 C 
HETATM   12  C   UNL     1      26.759  41.970  51.282  1.00  0.00     0.022 C 
HETATM   13  C   UNL     1      28.177  41.383  51.132  1.00  0.00     0.045 C 
HETATM   14  C   UNL     1      28.945  41.444  52.459  1.00  0.00     0.243 C 
ENDROOT
BRANCH  13  15
HETATM   15  C   UNL     1      28.136  39.971  50.583  1.00  0.00    -0.052 A 
HETATM   16  C   UNL     1      26.982  39.518  49.923  1.00  0.00     0.007 A 
HETATM   17  C   UNL     1      26.920  38.223  49.406  1.00  0.00     0.001 A 
HETATM   18  C   UNL     1      28.007  37.364  49.541  1.00  0.00     0.000 A 
HETATM   19  C   UNL     1      29.158  37.799  50.190  1.00  0.00     0.001 A 
HETATM   20  C   UNL     1      29.224  39.093  50.709  1.00  0.00     0.007 A 
ENDBRANCH  13  15
BRANCH   8  21
HETATM   21  C   UNL     1      24.754  46.466  50.453  1.00  0.00     0.317 C 
BRANCH  21  22
HETATM   22  C   UNL     1      23.913  47.213  49.478  1.00  0.00     0.181 A 
HETATM   23  N   UNL     1      23.122  46.613  48.589  1.00  0.00    -0.109 NA
HETATM   24  O   UNL     1      22.599  47.689  47.864  1.00  0.00    -0.196 OA
HETATM   25  C   UNL     1      23.164  48.828  48.378  1.00  0.00     0.177 A 
HETATM   26  N   UNL     1      24.011  48.576  49.360  1.00  0.00    -0.207 NA
BRANCH  25  27
HETATM   27  C   UNL     1      22.848  50.216  47.844  1.00  0.00     0.065 A 
HETATM   28  C   UNL     1      21.601  50.920  48.342  1.00  0.00     0.013 A 
HETATM   29  C   UNL     1      22.940  51.399  48.787  1.00  0.00     0.013 A 
ENDBRANCH  25  27
ENDBRANCH  21  22
ENDBRANCH   8  21
TORSDOF 4
ENDMDL
MODEL 4
REMARK VINA RESULT:      -8.4      4.684      7.047
REMARK  4 active torsions:
REMARK  status: ('A' for Active; 'I' for Inactive)
REMARK    1  A    between atoms: N_8  and  C_10 
REMARK    2  A    between atoms: C_10  and  C_11 
REMARK    3  A    between atoms: C_14  and  C_15 
REMARK    4  A    between atoms: C_22  and  C_23 
ROOT
HETATM    1  C   UNL     1      26.082  48.397  55.084  1.00  0.00     0.269 C 
HETATM    2  N   UNL     1      26.880  47.226  54.541  1.00  0.00    -0.073 N 
HETATM    3  H   UNL     1      27.420  47.617  53.758  1.00  0.00     0.279 HD
HETATM    4  C   UNL     1      25.970  46.130  54.044  1.00  0.00     0.244 C 
HETATM    5  C   UNL     1      26.768  44.950  53.418  1.00  0.00    -0.013 C 
HETATM    6  C   UNL     1      25.766  43.794  53.134  1.00  0.00     0.039 C 
HETATM    7  C   UNL     1      26.368  42.624  52.357  1.00  0.00     0.236 C 
HETATM    8  N   UNL     1      26.994  43.108  51.077  1.00  0.00    -0.064 N 
HETATM    9  H   UNL     1      27.503  42.283  50.708  1.00  0.00     0.280 HD
HETATM   10  C   UNL     1      28.007  44.191  51.271  1.00  0.00     0.236 C 
HETATM   11  C   UNL     1      27.408  45.361  52.062  1.00  0.00     0.039 C 
HETATM   12  C   UNL     1      27.832  44.471  54.444  1.00  0.00     0.022 C 
HETATM   13  C   UNL     1      28.719  45.608  54.992  1.00  0.00     0.045 C 
HETATM   14  C   UNL     1      27.869  46.738  55.585  1.00  0.00     0.243 C 
ENDROOT
BRANCH  13  15
HETATM   15  C   UNL     1      29.725  45.086  55.998  1.00  0.00    -0.052 A 
HETATM   16  C   UNL     1      30.490  43.950  55.689  1.00  0.00     0.007 A 
HETATM   17  C   UNL     1      31.424  43.451  56.598  1.00  0.00     0.001 A 
HETATM   18  C   UNL     1      31.607  44.079  57.827  1.00  0.00     0.000 A 
HETATM   19  C   UNL     1      30.858  45.207  58.148  1.00  0.00     0.001 A 
HETATM   20  C   UNL     1      29.922  45.708  57.241  1.00  0.00     0.007 A 
ENDBRANCH  13  15
BRANCH   8  21
HETATM   21  C   UNL     1      25.993  43.364  49.937  1.00  0.00     0.317 C 
BRANCH  21  22
HETATM   22  C   UNL     1      26.066  42.330  48.868  1.00  0.00     0.181 A 
HETATM   23  N   UNL     1      24.995  41.689  48.401  1.00  0.00    -0.109 NA
HETATM   24  O   UNL     1      25.547  40.789  47.483  1.00  0.00    -0.196 OA
HETATM   25  C   UNL     1      26.906  40.964  47.524  1.00  0.00     0.177 A 
HETATM   26  N   UNL     1      27.275  41.889  48.394  1.00  0.00    -0.207 NA
BRANCH  25  27
HETATM   27  C   UNL     1      27.866  40.155  46.665  1.00  0.00     0.065 A 
HETATM   28  C   UNL     1      28.188  38.733  47.076  1.00  0.00     0.013 A 
HETATM   29  C   UNL     1      27.328  38.973  45.885  1.00  0.00     0.013 A 
ENDBRANCH  25  27
ENDBRANCH  21  22
ENDBRANCH   8  21
TORSDOF 4
ENDMDL
MODEL 5
REMARK VINA RESULT:      -8.4      5.207      7.825
REMARK  4 active torsions:
REMARK  status: ('A' for Active; 'I' for Inactive)
REMARK    1  A    between atoms: N_8  and  C_10 
REMARK    2  A    between atoms: C_10  and  C_11 
REMARK    3  A    between atoms: C_14  and  C_15 
REMARK    4  A    between atoms: C_22  and  C_23 
ROOT
HETATM    1  C   UNL     1      21.428  44.625  48.666  1.00  0.00     0.269 C 
HETATM    2  N   UNL     1      21.531  46.121  48.895  1.00  0.00    -0.073 N 
HETATM    3  H   UNL     1      21.232  46.259  49.869  1.00  0.00     0.279 HD
HETATM    4  C   UNL     1      20.620  46.880  47.963  1.00  0.00     0.244 C 
HETATM    5  C   UNL     1      20.659  48.412  48.230  1.00  0.00    -0.013 C 
HETATM    6  C   UNL     1      19.862  49.115  47.094  1.00  0.00     0.039 C 
HETATM    7  C   UNL     1      19.661  50.615  47.308  1.00  0.00     0.236 C 
HETATM    8  N   UNL     1      19.019  50.875  48.643  1.00  0.00    -0.064 N 
HETATM    9  H   UNL     1      19.071  51.904  48.762  1.00  0.00     0.280 HD
HETATM   10  C   UNL     1      19.755  50.269  49.796  1.00  0.00     0.236 C 
HETATM   11  C   UNL     1      19.968  48.766  49.577  1.00  0.00     0.039 C 
HETATM   12  C   UNL     1      22.139  48.885  48.191  1.00  0.00     0.022 C 
HETATM   13  C   UNL     1      23.075  48.066  49.103  1.00  0.00     0.045 C 
HETATM   14  C   UNL     1      22.980  46.567  48.791  1.00  0.00     0.243 C 
ENDROOT
BRANCH  13  15
HETATM   15  C   UNL     1      24.505  48.559  49.012  1.00  0.00    -0.052 A 
HETATM   16  C   UNL     1      24.804  49.675  48.214  1.00  0.00     0.007 A 
HETATM   17  C   UNL     1      26.113  50.150  48.116  1.00  0.00     0.001 A 
HETATM   18  C   UNL     1      27.139  49.518  48.811  1.00  0.00     0.000 A 
HETATM   19  C   UNL     1      26.859  48.412  49.608  1.00  0.00     0.001 A 
HETATM   20  C   UNL     1      25.551  47.934  49.709  1.00  0.00     0.007 A 
ENDBRANCH  13  15
BRANCH   8  21
HETATM   21  C   UNL     1      17.496  50.656  48.671  1.00  0.00     0.317 C 
BRANCH  21  22
HETATM   22  C   UNL     1      16.764  51.803  49.276  1.00  0.00     0.181 A 
HETATM   23  N   UNL     1      17.370  52.908  49.709  1.00  0.00    -0.109 NA
HETATM   24  O   UNL     1      16.314  53.652  50.244  1.00  0.00    -0.196 OA
HETATM   25  C   UNL     1      15.181  52.892  50.105  1.00  0.00     0.177 A 
HETATM   26  N   UNL     1      15.420  51.722  49.538  1.00  0.00    -0.207 NA
BRANCH  25  27
HETATM   27  C   UNL     1      13.814  53.359  50.578  1.00  0.00     0.065 A 
HETATM   28  C   UNL     1      13.632  54.818  50.948  1.00  0.00     0.013 A 
HETATM   29  C   UNL     1      13.017  54.298  49.695  1.00  0.00     0.013 A 
ENDBRANCH  25  27
ENDBRANCH  21  22
ENDBRANCH   8  21
TORSDOF 4
ENDMDL
MODEL 6
REMARK VINA RESULT:      -8.1      3.020      9.063
REMARK  4 active torsions:
REMARK  status: ('A' for Active; 'I' for Inactive)
REMARK    1  A    between atoms: N_8  and  C_10 
REMARK    2  A    between atoms: C_10  and  C_11 
REMARK    3  A    between atoms: C_14  and  C_15 
REMARK    4  A    between atoms: C_22  and  C_23 
ROOT
HETATM    1  C   UNL     1      21.948  43.825  47.539  1.00  0.00     0.269 C 
HETATM    2  N   UNL     1      23.008  44.674  48.214  1.00  0.00    -0.073 N 
HETATM    3  H   UNL     1      23.854  44.539  47.644  1.00  0.00     0.279 HD
HETATM    4  C   UNL     1      23.260  44.210  49.627  1.00  0.00     0.244 C 
HETATM    5  C   UNL     1      24.396  45.023  50.314  1.00  0.00    -0.013 C 
HETATM    6  C   UNL     1      24.432  44.618  51.815  1.00  0.00     0.039 C 
HETATM    7  C   UNL     1      25.610  45.205  52.591  1.00  0.00     0.236 C 
HETATM    8  N   UNL     1      26.910  44.855  51.918  1.00  0.00    -0.064 N 
HETATM    9  H   UNL     1      27.622  45.420  52.418  1.00  0.00     0.280 HD
HETATM   10  C   UNL     1      26.972  45.256  50.479  1.00  0.00     0.236 C 
HETATM   11  C   UNL     1      25.782  44.679  49.701  1.00  0.00     0.039 C 
HETATM   12  C   UNL     1      24.063  46.536  50.194  1.00  0.00     0.022 C 
HETATM   13  C   UNL     1      23.750  46.990  48.754  1.00  0.00     0.045 C 
HETATM   14  C   UNL     1      22.630  46.143  48.138  1.00  0.00     0.243 C 
ENDROOT
BRANCH  13  15
HETATM   15  C   UNL     1      23.418  48.468  48.701  1.00  0.00    -0.052 A 
HETATM   16  C   UNL     1      22.144  48.907  49.095  1.00  0.00     0.007 A 
HETATM   17  C   UNL     1      21.815  50.263  49.057  1.00  0.00     0.001 A 
HETATM   18  C   UNL     1      22.752  51.197  48.625  1.00  0.00     0.000 A 
HETATM   19  C   UNL     1      24.019  50.778  48.233  1.00  0.00     0.001 A 
HETATM   20  C   UNL     1      24.352  49.423  48.269  1.00  0.00     0.007 A 
ENDBRANCH  13  15
BRANCH   8  21
HETATM   21  C   UNL     1      27.414  43.431  52.208  1.00  0.00     0.317 C 
BRANCH  21  22
HETATM   22  C   UNL     1      28.668  43.419  53.011  1.00  0.00     0.181 A 
HETATM   23  N   UNL     1      29.790  42.829  52.600  1.00  0.00    -0.109 NA
HETATM   24  O   UNL     1      30.653  43.014  53.685  1.00  0.00    -0.196 OA
HETATM   25  C   UNL     1      29.939  43.670  54.654  1.00  0.00     0.177 A 
HETATM   26  N   UNL     1      28.691  43.913  54.290  1.00  0.00    -0.207 NA
BRANCH  25  27
HETATM   27  C   UNL     1      30.535  44.049  56.001  1.00  0.00     0.065 A 
HETATM   28  C   UNL     1      30.814  42.951  57.008  1.00  0.00     0.013 A 
HETATM   29  C   UNL     1      31.953  43.619  56.319  1.00  0.00     0.013 A 
ENDBRANCH  25  27
ENDBRANCH  21  22
ENDBRANCH   8  21
TORSDOF 4
ENDMDL
MODEL 7
REMARK VINA RESULT:      -7.9      4.779      8.230
REMARK  4 active torsions:
REMARK  status: ('A' for Active; 'I' for Inactive)
REMARK    1  A    between atoms: N_8  and  C_10 
REMARK    2  A    between atoms: C_10  and  C_11 
REMARK    3  A    between atoms: C_14  and  C_15 
REMARK    4  A    between atoms: C_22  and  C_23 
ROOT
HETATM    1  C   UNL     1      24.689  45.733  50.737  1.00  0.00     0.269 C 
HETATM    2  N   UNL     1      25.762  44.660  50.716  1.00  0.00    -0.073 N 
HETATM    3  H   UNL     1      26.350  44.894  49.906  1.00  0.00     0.279 HD
HETATM    4  C   UNL     1      25.159  43.289  50.537  1.00  0.00     0.244 C 
HETATM    5  C   UNL     1      26.248  42.182  50.442  1.00  0.00    -0.013 C 
HETATM    6  C   UNL     1      25.529  40.802  50.474  1.00  0.00     0.039 C 
HETATM    7  C   UNL     1      26.452  39.612  50.214  1.00  0.00     0.236 C 
HETATM    8  N   UNL     1      27.193  39.793  48.917  1.00  0.00    -0.064 N 
HETATM    9  H   UNL     1      27.895  39.030  48.910  1.00  0.00     0.280 HD
HETATM   10  C   UNL     1      27.950  41.080  48.828  1.00  0.00     0.236 C 
HETATM   11  C   UNL     1      27.028  42.274  49.100  1.00  0.00     0.039 C 
HETATM   12  C   UNL     1      27.187  42.303  51.673  1.00  0.00     0.022 C 
HETATM   13  C   UNL     1      27.753  43.722  51.883  1.00  0.00     0.045 C 
HETATM   14  C   UNL     1      26.628  44.762  51.960  1.00  0.00     0.243 C 
ENDROOT
BRANCH  13  15
HETATM   15  C   UNL     1      28.647  43.785  53.105  1.00  0.00    -0.052 A 
HETATM   16  C   UNL     1      29.744  42.914  53.207  1.00  0.00     0.007 A 
HETATM   17  C   UNL     1      30.583  42.954  54.322  1.00  0.00     0.001 A 
HETATM   18  C   UNL     1      30.340  43.861  55.348  1.00  0.00     0.000 A 
HETATM   19  C   UNL     1      29.258  44.732  55.261  1.00  0.00     0.001 A 
HETATM   20  C   UNL     1      28.416  44.696  54.148  1.00  0.00     0.007 A 
ENDBRANCH  13  15
BRANCH   8  21
HETATM   21  C   UNL     1      26.373  39.444  47.662  1.00  0.00     0.317 C 
BRANCH  21  22
HETATM   22  C   UNL     1      27.230  39.078  46.502  1.00  0.00     0.181 A 
HETATM   23  N   UNL     1      28.098  38.067  46.527  1.00  0.00    -0.109 NA
HETATM   24  O   UNL     1      28.707  38.148  45.271  1.00  0.00    -0.196 OA
HETATM   25  C   UNL     1      28.160  39.231  44.633  1.00  0.00     0.177 A 
HETATM   26  N   UNL     1      27.262  39.857  45.374  1.00  0.00    -0.207 NA
BRANCH  25  27
HETATM   27  C   UNL     1      28.572  39.656  43.232  1.00  0.00     0.065 A 
HETATM   28  C   UNL     1      29.538  40.815  43.079  1.00  0.00     0.013 A 
HETATM   29  C   UNL     1      30.005  39.429  42.793  1.00  0.00     0.013 A 
ENDBRANCH  25  27
ENDBRANCH  21  22
ENDBRANCH   8  21
TORSDOF 4
ENDMDL
MODEL 8
REMARK VINA RESULT:      -7.9      6.516      9.866
REMARK  4 active torsions:
REMARK  status: ('A' for Active; 'I' for Inactive)
REMARK    1  A    between atoms: N_8  and  C_10 
REMARK    2  A    between atoms: C_10  and  C_11 
REMARK    3  A    between atoms: C_14  and  C_15 
REMARK    4  A    between atoms: C_22  and  C_23 
ROOT
HETATM    1  C   UNL     1      18.763  45.681  47.980  1.00  0.00     0.269 C 
HETATM    2  N   UNL     1      19.056  47.111  48.393  1.00  0.00    -0.073 N 
HETATM    3  H   UNL     1      18.840  47.143  49.398  1.00  0.00     0.279 HD
HETATM    4  C   UNL     1      18.179  48.086  47.647  1.00  0.00     0.244 C 
HETATM    5  C   UNL     1      18.415  49.553  48.108  1.00  0.00    -0.013 C 
HETATM    6  C   UNL     1      17.631  50.488  47.143  1.00  0.00     0.039 C 
HETATM    7  C   UNL     1      17.622  51.956  47.568  1.00  0.00     0.236 C 
HETATM    8  N   UNL     1      17.105  52.094  48.974  1.00  0.00    -0.064 N 
HETATM    9  H   UNL     1      17.286  53.085  49.221  1.00  0.00     0.280 HD
HETATM   10  C   UNL     1      17.841  51.258  49.973  1.00  0.00     0.236 C 
HETATM   11  C   UNL     1      17.862  49.787  49.542  1.00  0.00     0.039 C 
HETATM   12  C   UNL     1      19.934  49.865  48.009  1.00  0.00     0.022 C 
HETATM   13  C   UNL     1      20.826  48.831  48.726  1.00  0.00     0.045 C 
HETATM   14  C   UNL     1      20.536  47.409  48.229  1.00  0.00     0.243 C 
ENDROOT
BRANCH  13  15
HETATM   15  C   UNL     1      22.295  49.177  48.583  1.00  0.00    -0.052 A 
HETATM   16  C   UNL     1      23.259  48.390  49.233  1.00  0.00     0.007 A 
HETATM   17  C   UNL     1      24.618  48.688  49.116  1.00  0.00     0.001 A 
HETATM   18  C   UNL     1      25.032  49.773  48.349  1.00  0.00     0.000 A 
HETATM   19  C   UNL     1      24.089  50.561  47.697  1.00  0.00     0.001 A 
HETATM   20  C   UNL     1      22.729  50.268  47.812  1.00  0.00     0.007 A 
ENDBRANCH  13  15
BRANCH   8  21
HETATM   21  C   UNL     1      15.573  52.038  49.098  1.00  0.00     0.317 C 
BRANCH  21  22
HETATM   22  C   UNL     1      15.046  52.978  50.125  1.00  0.00     0.181 A 
HETATM   23  N   UNL     1      13.892  52.787  50.763  1.00  0.00    -0.109 NA
HETATM   24  O   UNL     1      13.784  53.933  51.559  1.00  0.00    -0.196 OA
HETATM   25  C   UNL     1      14.879  54.712  51.285  1.00  0.00     0.177 A 
HETATM   26  N   UNL     1      15.672  54.172  50.375  1.00  0.00    -0.207 NA
BRANCH  25  27
HETATM   27  C   UNL     1      15.120  56.056  51.954  1.00  0.00     0.065 A 
HETATM   28  C   UNL     1      14.110  57.166  51.741  1.00  0.00     0.013 A 
HETATM   29  C   UNL     1      14.191  56.494  53.068  1.00  0.00     0.013 A 
ENDBRANCH  25  27
ENDBRANCH  21  22
ENDBRANCH   8  21
TORSDOF 4
ENDMDL
MODEL 9
REMARK VINA RESULT:      -7.7      3.848     12.110
REMARK  4 active torsions:
REMARK  status: ('A' for Active; 'I' for Inactive)
REMARK    1  A    between atoms: N_8  and  C_10 
REMARK    2  A    between atoms: C_10  and  C_11 
REMARK    3  A    between atoms: C_14  and  C_15 
REMARK    4  A    between atoms: C_22  and  C_23 
ROOT
HETATM    1  C   UNL     1      16.035  50.196  44.040  1.00  0.00     0.269 C 
HETATM    2  N   UNL     1      16.736  50.583  45.329  1.00  0.00    -0.073 N 
HETATM    3  H   UNL     1      17.479  51.232  45.038  1.00  0.00     0.279 HD
HETATM    4  C   UNL     1      17.340  49.378  46.005  1.00  0.00     0.244 C 
HETATM    5  C   UNL     1      18.125  49.763  47.292  1.00  0.00    -0.013 C 
HETATM    6  C   UNL     1      18.522  48.448  48.021  1.00  0.00     0.039 C 
HETATM    7  C   UNL     1      19.450  48.654  49.218  1.00  0.00     0.236 C 
HETATM    8  N   UNL     1      20.677  49.421  48.807  1.00  0.00    -0.064 N 
HETATM    9  H   UNL     1      21.156  49.644  49.699  1.00  0.00     0.280 HD
HETATM   10  C   UNL     1      20.378  50.726  48.138  1.00  0.00     0.236 C 
HETATM   11  C   UNL     1      19.436  50.522  46.945  1.00  0.00     0.039 C 
HETATM   12  C   UNL     1      17.191  50.600  48.209  1.00  0.00     0.022 C 
HETATM   13  C   UNL     1      16.531  51.797  47.495  1.00  0.00     0.045 C 
HETATM   14  C   UNL     1      15.784  51.346  46.233  1.00  0.00     0.243 C 
ENDROOT
BRANCH  13  15
HETATM   15  C   UNL     1      15.621  52.566  48.431  1.00  0.00    -0.052 A 
HETATM   16  C   UNL     1      14.737  53.523  47.909  1.00  0.00     0.007 A 
HETATM   17  C   UNL     1      13.887  54.242  48.750  1.00  0.00     0.001 A 
HETATM   18  C   UNL     1      13.909  54.017  50.124  1.00  0.00     0.000 A 
HETATM   19  C   UNL     1      14.778  53.070  50.657  1.00  0.00     0.001 A 
HETATM   20  C   UNL     1      15.629  52.349  49.819  1.00  0.00     0.007 A 
ENDBRANCH  13  15
BRANCH   8  21
HETATM   21  C   UNL     1      21.753  48.575  48.105  1.00  0.00     0.317 C 
BRANCH  21  22
HETATM   22  C   UNL     1      22.854  48.173  49.022  1.00  0.00     0.181 A 
HETATM   23  N   UNL     1      23.613  49.051  49.677  1.00  0.00    -0.109 NA
HETATM   24  O   UNL     1      24.532  48.231  50.342  1.00  0.00    -0.196 OA
HETATM   25  C   UNL     1      24.245  46.940  49.983  1.00  0.00     0.177 A 
HETATM   26  N   UNL     1      23.231  46.859  49.139  1.00  0.00    -0.207 NA
BRANCH  25  27
HETATM   27  C   UNL     1      25.036  45.747  50.500  1.00  0.00     0.065 A 
HETATM   28  C   UNL     1      24.911  45.371  51.963  1.00  0.00     0.013 A 
HETATM   29  C   UNL     1      24.284  44.503  50.927  1.00  0.00     0.013 A 
ENDBRANCH  25  27
ENDBRANCH  21  22
ENDBRANCH   8  21
TORSDOF 4
ENDMDL
MODEL 10
REMARK VINA RESULT:      -7.6     17.580     20.822
REMARK  4 active torsions:
REMARK  status: ('A' for Active; 'I' for Inactive)
REMARK    1  A    between atoms: N_8  and  C_10 
REMARK    2  A    between atoms: C_10  and  C_11 
REMARK    3  A    between atoms: C_14  and  C_15 
REMARK    4  A    between atoms: C_22  and  C_23 
ROOT
HETATM    1  C   UNL     1      44.121  36.635  64.485  1.00  0.00     0.269 C 
HETATM    2  N   UNL     1      42.671  37.058  64.636  1.00  0.00    -0.073 N 
HETATM    3  H   UNL     1      42.238  36.834  63.730  1.00  0.00     0.279 HD
HETATM    4  C   UNL     1      42.559  38.536  64.910  1.00  0.00     0.244 C 
HETATM    5  C   UNL     1      41.077  39.002  64.998  1.00  0.00    -0.013 C 
HETATM    6  C   UNL     1      41.069  40.478  65.489  1.00  0.00     0.039 C 
HETATM    7  C   UNL     1      39.690  41.137  65.462  1.00  0.00     0.236 C 
HETATM    8  N   UNL     1      39.085  41.034  64.089  1.00  0.00    -0.064 N 
HETATM    9  H   UNL     1      38.107  41.359  64.210  1.00  0.00     0.280 HD
HETATM   10  C   UNL     1      39.014  39.635  63.563  1.00  0.00     0.236 C 
HETATM   11  C   UNL     1      40.394  38.968  63.602  1.00  0.00     0.039 C 
HETATM   12  C   UNL     1      40.338  38.109  66.032  1.00  0.00     0.022 C 
HETATM   13  C   UNL     1      40.506  36.597  65.778  1.00  0.00     0.045 C 
HETATM   14  C   UNL     1      41.988  36.211  65.695  1.00  0.00     0.243 C 
ENDROOT
BRANCH  13  15
HETATM   15  C   UNL     1      39.778  35.777  66.824  1.00  0.00    -0.052 A 
HETATM   16  C   UNL     1      40.009  36.029  68.186  1.00  0.00     0.007 A 
HETATM   17  C   UNL     1      39.350  35.289  69.168  1.00  0.00     0.001 A 
HETATM   18  C   UNL     1      38.453  34.288  68.805  1.00  0.00     0.000 A 
HETATM   19  C   UNL     1      38.212  34.028  67.460  1.00  0.00     0.001 A 
HETATM   20  C   UNL     1      38.869  34.766  66.474  1.00  0.00     0.007 A 
ENDBRANCH  13  15
BRANCH   8  21
HETATM   21  C   UNL     1      39.612  42.070  63.081  1.00  0.00     0.317 C 
BRANCH  21  22
HETATM   22  C   UNL     1      39.166  43.455  63.397  1.00  0.00     0.181 A 
HETATM   23  N   UNL     1      40.007  44.431  63.736  1.00  0.00    -0.109 NA
HETATM   24  O   UNL     1      39.148  45.503  64.000  1.00  0.00    -0.196 OA
HETATM   25  C   UNL     1      37.870  45.041  63.824  1.00  0.00     0.177 A 
HETATM   26  N   UNL     1      37.833  43.765  63.481  1.00  0.00    -0.207 NA
BRANCH  25  27
HETATM   27  C   UNL     1      36.643  45.917  64.027  1.00  0.00     0.065 A 
HETATM   28  C   UNL     1      36.268  46.328  65.437  1.00  0.00     0.013 A 
HETATM   29  C   UNL     1      36.835  47.342  64.505  1.00  0.00     0.013 A 
ENDBRANCH  25  27
ENDBRANCH  21  22
ENDBRANCH   8  21
TORSDOF 4
ENDMDL
