MODEL 1
REMARK VINA RESULT:      -8.1      0.000      0.000
REMARK  6 active torsions:
REMARK  status: ('A' for Active; 'I' for Inactive)
REMARK    1  A    between atoms: C_2  and  N_3 
REMARK    2  A    between atoms: C_2  and  C_11 
REMARK       I    between atoms: N_3  and  C_4 
REMARK    3  A    between atoms: C_4  and  C_5 
REMARK    4  A    between atoms: C_14  and  O_15 
REMARK    5  A    between atoms: O_15  and  C_16 
REMARK    6  A    between atoms: C_16  and  C_17 
ROOT
HETATM    1  C   UNL     1      24.672  46.269  50.818  1.00  0.00    -0.036 A 
HETATM    2  C   UNL     1      24.479  44.952  51.262  1.00  0.00     0.012 A 
HETATM    3  C   UNL     1      25.093  44.490  52.431  1.00  0.00     0.037 A 
HETATM    4  C   UNL     1      25.926  45.334  53.163  1.00  0.00     0.069 A 
HETATM    5  C   UNL     1      26.099  46.654  52.747  1.00  0.00     0.037 A 
HETATM    6  C   UNL     1      25.482  47.119  51.583  1.00  0.00     0.012 A 
ENDROOT
BRANCH   1   7
HETATM    7  C   UNL     1      24.052  46.726  49.508  1.00  0.00     0.113 C 
HETATM    8  C   UNL     1      23.265  45.606  48.823  1.00  0.00     0.037 C 
BRANCH   7   9
HETATM    9  N   UNL     1      23.212  47.889  49.753  1.00  0.00    -0.352 N 
HETATM   10  C   UNL     1      23.404  49.079  49.101  1.00  0.00     0.225 C 
HETATM   11  O   UNL     1      24.254  49.243  48.235  1.00  0.00    -0.273 OA
HETATM   12  H   UNL     1      22.601  47.860  50.560  1.00  0.00     0.163 HD
BRANCH  10  13
HETATM   13  C   UNL     1      22.513  50.213  49.448  1.00  0.00     0.119 A 
HETATM   14  C   UNL     1      21.053  50.298  49.098  1.00  0.00     0.126 A 
HETATM   15 CL   UNL     1      20.248  49.101  48.096  1.00  0.00    -0.101 Cl
HETATM   16 CL   UNL     1      19.968  51.035  50.280  1.00  0.00    -0.101 Cl
HETATM   17  C   UNL     1      22.041  51.209  48.416  1.00  0.00     0.060 A 
ENDBRANCH  10  13
ENDBRANCH   7   9
ENDBRANCH   1   7
BRANCH   4  18
HETATM   18  O   UNL     1      26.614  44.994  54.295  1.00  0.00    -0.347 OA
BRANCH  18  19
HETATM   19  C   UNL     1      27.568  45.943  54.769  1.00  0.00     0.215 C 
BRANCH  19  20
HETATM   20  C   UNL     1      28.796  45.199  55.215  1.00  0.00    -0.017 A 
HETATM   21  C   UNL     1      29.581  45.673  56.261  1.00  0.00     0.125 A 
HETATM   22  N   UNL     1      30.699  45.061  56.711  1.00  0.00    -0.272 NA
HETATM   23  C   UNL     1      31.050  43.912  56.097  1.00  0.00     0.116 A 
HETATM   24  C   UNL     1      30.336  43.349  55.052  1.00  0.00     0.020 A 
HETATM   25  C   UNL     1      29.193  44.005  54.605  1.00  0.00     0.012 A 
ENDBRANCH  19  20
ENDBRANCH  18  19
ENDBRANCH   4  18
TORSDOF 6
ENDMDL
MODEL 2
REMARK VINA RESULT:      -8.1      1.461      1.670
REMARK  6 active torsions:
REMARK  status: ('A' for Active; 'I' for Inactive)
REMARK    1  A    between atoms: C_2  and  N_3 
REMARK    2  A    between atoms: C_2  and  C_11 
REMARK       I    between atoms: N_3  and  C_4 
REMARK    3  A    between atoms: C_4  and  C_5 
REMARK    4  A    between atoms: C_14  and  O_15 
REMARK    5  A    between atoms: O_15  and  C_16 
REMARK    6  A    between atoms: C_16  and  C_17 
ROOT
HETATM    1  C   UNL     1      26.104  46.124  51.372  1.00  0.00    -0.036 A 
HETATM    2  C   UNL     1      26.697  44.912  51.759  1.00  0.00     0.012 A 
HETATM    3  C   UNL     1      27.165  44.726  53.065  1.00  0.00     0.037 A 
HETATM    4  C   UNL     1      27.066  45.757  53.997  1.00  0.00     0.069 A 
HETATM    5  C   UNL     1      26.450  46.954  53.630  1.00  0.00     0.037 A 
HETATM    6  C   UNL     1      25.976  47.140  52.329  1.00  0.00     0.012 A 
ENDROOT
BRANCH   1   7
HETATM    7  C   UNL     1      25.668  46.327  49.931  1.00  0.00     0.113 C 
HETATM    8  C   UNL     1      24.955  45.096  49.367  1.00  0.00     0.037 C 
BRANCH   7   9
HETATM    9  N   UNL     1      24.826  47.511  49.845  1.00  0.00    -0.352 N 
HETATM   10  C   UNL     1      25.179  48.607  49.103  1.00  0.00     0.225 C 
HETATM   11  O   UNL     1      26.193  48.659  48.419  1.00  0.00    -0.273 OA
HETATM   12  H   UNL     1      24.061  47.586  50.505  1.00  0.00     0.163 HD
BRANCH  10  13
HETATM   13  C   UNL     1      24.265  49.776  49.109  1.00  0.00     0.119 A 
HETATM   14  C   UNL     1      22.834  49.751  48.646  1.00  0.00     0.126 A 
HETATM   15 CL   UNL     1      22.105  48.339  47.899  1.00  0.00    -0.101 Cl
HETATM   16 CL   UNL     1      21.667  50.726  49.542  1.00  0.00    -0.101 Cl
HETATM   17  C   UNL     1      23.870  50.494  47.842  1.00  0.00     0.060 A 
ENDBRANCH  10  13
ENDBRANCH   7   9
ENDBRANCH   1   7
BRANCH   4  18
HETATM   18  O   UNL     1      27.520  45.717  55.286  1.00  0.00    -0.347 OA
BRANCH  18  19
HETATM   19  C   UNL     1      28.746  46.396  55.550  1.00  0.00     0.215 C 
BRANCH  19  20
HETATM   20  C   UNL     1      29.709  45.417  56.162  1.00  0.00    -0.017 A 
HETATM   21  C   UNL     1      30.198  45.602  57.451  1.00  0.00     0.125 A 
HETATM   22  N   UNL     1      31.068  44.768  58.062  1.00  0.00    -0.272 NA
HETATM   23  C   UNL     1      31.466  43.687  57.360  1.00  0.00     0.116 A 
HETATM   24  C   UNL     1      31.036  43.404  56.074  1.00  0.00     0.020 A 
HETATM   25  C   UNL     1      30.145  44.285  55.467  1.00  0.00     0.012 A 
ENDBRANCH  19  20
ENDBRANCH  18  19
ENDBRANCH   4  18
TORSDOF 6
ENDMDL
MODEL 3
REMARK VINA RESULT:      -7.7      4.913      8.716
REMARK  6 active torsions:
REMARK  status: ('A' for Active; 'I' for Inactive)
REMARK    1  A    between atoms: C_2  and  N_3 
REMARK    2  A    between atoms: C_2  and  C_11 
REMARK       I    between atoms: N_3  and  C_4 
REMARK    3  A    between atoms: C_4  and  C_5 
REMARK    4  A    between atoms: C_14  and  O_15 
REMARK    5  A    between atoms: O_15  and  C_16 
REMARK    6  A    between atoms: C_16  and  C_17 
ROOT
HETATM    1  C   UNL     1      26.542  42.183  50.461  1.00  0.00    -0.036 A 
HETATM    2  C   UNL     1      25.142  42.195  50.557  1.00  0.00     0.012 A 
HETATM    3  C   UNL     1      24.409  43.342  50.234  1.00  0.00     0.037 A 
HETATM    4  C   UNL     1      25.067  44.502  49.829  1.00  0.00     0.069 A 
HETATM    5  C   UNL     1      26.456  44.490  49.701  1.00  0.00     0.037 A 
HETATM    6  C   UNL     1      27.190  43.345  50.017  1.00  0.00     0.012 A 
ENDROOT
BRANCH   1   7
HETATM    7  C   UNL     1      27.320  40.950  50.885  1.00  0.00     0.113 C 
HETATM    8  C   UNL     1      27.700  40.071  49.692  1.00  0.00     0.037 C 
BRANCH   7   9
HETATM    9  N   UNL     1      28.498  41.358  51.637  1.00  0.00    -0.352 N 
HETATM   10  C   UNL     1      28.471  41.545  52.994  1.00  0.00     0.225 C 
HETATM   11  O   UNL     1      27.480  41.337  53.682  1.00  0.00    -0.273 OA
HETATM   12  H   UNL     1      29.295  41.691  51.108  1.00  0.00     0.163 HD
BRANCH  10  13
HETATM   13  C   UNL     1      29.719  41.994  53.659  1.00  0.00     0.119 A 
HETATM   14  C   UNL     1      29.842  43.221  54.519  1.00  0.00     0.126 A 
HETATM   15 CL   UNL     1      28.527  44.366  54.729  1.00  0.00    -0.101 Cl
HETATM   16 CL   UNL     1      30.895  43.128  55.933  1.00  0.00    -0.101 Cl
HETATM   17  C   UNL     1      30.509  43.183  53.168  1.00  0.00     0.060 A 
ENDBRANCH  10  13
ENDBRANCH   7   9
ENDBRANCH   1   7
BRANCH   4  18
HETATM   18  O   UNL     1      24.472  45.695  49.526  1.00  0.00    -0.347 OA
BRANCH  18  19
HETATM   19  C   UNL     1      24.709  46.772  50.431  1.00  0.00     0.215 C 
BRANCH  19  20
HETATM   20  C   UNL     1      25.340  47.902  49.667  1.00  0.00    -0.017 A 
HETATM   21  C   UNL     1      24.561  48.803  48.945  1.00  0.00     0.125 A 
HETATM   22  N   UNL     1      25.059  49.837  48.231  1.00  0.00    -0.272 NA
HETATM   23  C   UNL     1      26.399  49.993  48.244  1.00  0.00     0.116 A 
HETATM   24  C   UNL     1      27.264  49.159  48.933  1.00  0.00     0.020 A 
HETATM   25  C   UNL     1      26.724  48.098  49.653  1.00  0.00     0.012 A 
ENDBRANCH  19  20
ENDBRANCH  18  19
ENDBRANCH   4  18
TORSDOF 6
ENDMDL
MODEL 4
REMARK VINA RESULT:      -7.7      1.529      2.103
REMARK  6 active torsions:
REMARK  status: ('A' for Active; 'I' for Inactive)
REMARK    1  A    between atoms: C_2  and  N_3 
REMARK    2  A    between atoms: C_2  and  C_11 
REMARK       I    between atoms: N_3  and  C_4 
REMARK    3  A    between atoms: C_4  and  C_5 
REMARK    4  A    between atoms: C_14  and  O_15 
REMARK    5  A    between atoms: O_15  and  C_16 
REMARK    6  A    between atoms: C_16  and  C_17 
ROOT
HETATM    1  C   UNL     1      26.016  47.132  50.720  1.00  0.00    -0.036 A 
HETATM    2  C   UNL     1      26.657  45.995  50.205  1.00  0.00     0.012 A 
HETATM    3  C   UNL     1      26.889  44.874  51.010  1.00  0.00     0.037 A 
HETATM    4  C   UNL     1      26.502  44.882  52.348  1.00  0.00     0.069 A 
HETATM    5  C   UNL     1      25.836  45.996  52.861  1.00  0.00     0.037 A 
HETATM    6  C   UNL     1      25.598  47.113  52.058  1.00  0.00     0.012 A 
ENDROOT
BRANCH   1   7
HETATM    7  C   UNL     1      25.839  48.362  49.847  1.00  0.00     0.113 C 
HETATM    8  C   UNL     1      27.019  48.567  48.895  1.00  0.00     0.037 C 
BRANCH   7   9
HETATM    9  N   UNL     1      24.583  48.259  49.118  1.00  0.00    -0.352 N 
HETATM   10  C   UNL     1      23.786  49.347  48.877  1.00  0.00     0.225 C 
HETATM   11  O   UNL     1      24.086  50.487  49.206  1.00  0.00    -0.273 OA
HETATM   12  H   UNL     1      24.213  47.330  48.959  1.00  0.00     0.163 HD
BRANCH  10  13
HETATM   13  C   UNL     1      22.510  49.127  48.153  1.00  0.00     0.119 A 
HETATM   14  C   UNL     1      21.209  49.808  48.475  1.00  0.00     0.126 A 
HETATM   15 CL   UNL     1      21.012  50.863  49.865  1.00  0.00    -0.101 Cl
HETATM   16 CL   UNL     1      20.163  50.258  47.126  1.00  0.00    -0.101 Cl
HETATM   17  C   UNL     1      21.372  48.335  48.751  1.00  0.00     0.060 A 
ENDBRANCH  10  13
ENDBRANCH   7   9
ENDBRANCH   1   7
BRANCH   4  18
HETATM   18  O   UNL     1      26.707  43.872  53.247  1.00  0.00    -0.347 OA
BRANCH  18  19
HETATM   19  C   UNL     1      27.935  43.155  53.129  1.00  0.00     0.215 C 
BRANCH  19  20
HETATM   20  C   UNL     1      28.873  43.641  54.197  1.00  0.00    -0.017 A 
HETATM   21  C   UNL     1      28.620  44.821  54.890  1.00  0.00     0.125 A 
HETATM   22  N   UNL     1      29.421  45.322  55.857  1.00  0.00    -0.272 NA
HETATM   23  C   UNL     1      30.525  44.608  56.160  1.00  0.00     0.116 A 
HETATM   24  C   UNL     1      30.867  43.419  55.538  1.00  0.00     0.020 A 
HETATM   25  C   UNL     1      30.027  42.932  54.540  1.00  0.00     0.012 A 
ENDBRANCH  19  20
ENDBRANCH  18  19
ENDBRANCH   4  18
TORSDOF 6
ENDMDL
MODEL 5
REMARK VINA RESULT:      -7.7      1.417      2.024
REMARK  6 active torsions:
REMARK  status: ('A' for Active; 'I' for Inactive)
REMARK    1  A    between atoms: C_2  and  N_3 
REMARK    2  A    between atoms: C_2  and  C_11 
REMARK       I    between atoms: N_3  and  C_4 
REMARK    3  A    between atoms: C_4  and  C_5 
REMARK    4  A    between atoms: C_14  and  O_15 
REMARK    5  A    between atoms: O_15  and  C_16 
REMARK    6  A    between atoms: C_16  and  C_17 
ROOT
HETATM    1  C   UNL     1      24.774  46.339  50.926  1.00  0.00    -0.036 A 
HETATM    2  C   UNL     1      25.634  47.208  51.616  1.00  0.00     0.012 A 
HETATM    3  C   UNL     1      26.222  46.824  52.827  1.00  0.00     0.037 A 
HETATM    4  C   UNL     1      25.943  45.574  53.375  1.00  0.00     0.069 A 
HETATM    5  C   UNL     1      25.115  44.692  52.680  1.00  0.00     0.037 A 
HETATM    6  C   UNL     1      24.531  45.070  51.469  1.00  0.00     0.012 A 
ENDROOT
BRANCH   1   7
HETATM    7  C   UNL     1      24.092  46.804  49.650  1.00  0.00     0.113 C 
HETATM    8  C   UNL     1      23.207  45.714  49.042  1.00  0.00     0.037 C 
BRANCH   7   9
HETATM    9  N   UNL     1      23.330  48.013  49.925  1.00  0.00    -0.352 N 
HETATM   10  C   UNL     1      23.090  48.960  48.964  1.00  0.00     0.225 C 
HETATM   11  O   UNL     1      23.449  48.843  47.800  1.00  0.00    -0.273 OA
HETATM   12  H   UNL     1      23.144  48.235  50.895  1.00  0.00     0.163 HD
BRANCH  10  13
HETATM   13  C   UNL     1      22.329  50.172  49.357  1.00  0.00     0.119 A 
HETATM   14  C   UNL     1      20.985  50.559  48.807  1.00  0.00     0.126 A 
HETATM   15 CL   UNL     1      20.203  49.675  47.506  1.00  0.00    -0.101 Cl
HETATM   16 CL   UNL     1      19.828  51.299  49.916  1.00  0.00    -0.101 Cl
HETATM   17  C   UNL     1      22.203  51.371  48.449  1.00  0.00     0.060 A 
ENDBRANCH  10  13
ENDBRANCH   7   9
ENDBRANCH   1   7
BRANCH   4  18
HETATM   18  O   UNL     1      26.418  45.098  54.565  1.00  0.00    -0.347 OA
BRANCH  18  19
HETATM   19  C   UNL     1      26.543  43.681  54.681  1.00  0.00     0.215 C 
BRANCH  19  20
HETATM   20  C   UNL     1      27.919  43.288  54.221  1.00  0.00    -0.017 A 
HETATM   21  C   UNL     1      28.095  42.425  53.143  1.00  0.00     0.125 A 
HETATM   22  N   UNL     1      29.300  42.024  52.679  1.00  0.00    -0.272 NA
HETATM   23  C   UNL     1      30.387  42.513  53.312  1.00  0.00     0.116 A 
HETATM   24  C   UNL     1      30.324  43.382  54.389  1.00  0.00     0.020 A 
HETATM   25  C   UNL     1      29.070  43.772  54.849  1.00  0.00     0.012 A 
ENDBRANCH  19  20
ENDBRANCH  18  19
ENDBRANCH   4  18
TORSDOF 6
ENDMDL
MODEL 6
REMARK VINA RESULT:      -7.6      4.540      9.214
REMARK  6 active torsions:
REMARK  status: ('A' for Active; 'I' for Inactive)
REMARK    1  A    between atoms: C_2  and  N_3 
REMARK    2  A    between atoms: C_2  and  C_11 
REMARK       I    between atoms: N_3  and  C_4 
REMARK    3  A    between atoms: C_4  and  C_5 
REMARK    4  A    between atoms: C_14  and  O_15 
REMARK    5  A    between atoms: O_15  and  C_16 
REMARK    6  A    between atoms: C_16  and  C_17 
ROOT
HETATM    1  C   UNL     1      26.257  43.360  51.189  1.00  0.00    -0.036 A 
HETATM    2  C   UNL     1      27.195  44.003  50.367  1.00  0.00     0.012 A 
HETATM    3  C   UNL     1      26.928  45.263  49.819  1.00  0.00     0.037 A 
HETATM    4  C   UNL     1      25.709  45.889  50.069  1.00  0.00     0.069 A 
HETATM    5  C   UNL     1      24.783  45.273  50.910  1.00  0.00     0.037 A 
HETATM    6  C   UNL     1      25.049  44.018  51.463  1.00  0.00     0.012 A 
ENDROOT
BRANCH   1   7
HETATM    7  C   UNL     1      26.540  41.963  51.714  1.00  0.00     0.113 C 
HETATM    8  C   UNL     1      26.471  40.908  50.608  1.00  0.00     0.037 C 
BRANCH   7   9
HETATM    9  N   UNL     1      27.836  41.951  52.376  1.00  0.00    -0.352 N 
HETATM   10  C   UNL     1      27.999  42.374  53.670  1.00  0.00     0.225 C 
HETATM   11  O   UNL     1      27.073  42.742  54.380  1.00  0.00    -0.273 OA
HETATM   12  H   UNL     1      28.653  41.806  51.797  1.00  0.00     0.163 HD
BRANCH  10  13
HETATM   13  C   UNL     1      29.369  42.351  54.240  1.00  0.00     0.119 A 
HETATM   14  C   UNL     1      30.015  43.495  54.972  1.00  0.00     0.126 A 
HETATM   15 CL   UNL     1      29.258  45.073  55.120  1.00  0.00    -0.101 Cl
HETATM   16 CL   UNL     1      31.052  43.106  56.347  1.00  0.00    -0.101 Cl
HETATM   17  C   UNL     1      30.516  43.100  53.606  1.00  0.00     0.060 A 
ENDBRANCH  10  13
ENDBRANCH   7   9
ENDBRANCH   1   7
BRANCH   4  18
HETATM   18  O   UNL     1      25.311  47.096  49.562  1.00  0.00    -0.347 OA
BRANCH  18  19
HETATM   19  C   UNL     1      24.086  47.625  50.067  1.00  0.00     0.215 C 
BRANCH  19  20
HETATM   20  C   UNL     1      23.696  48.805  49.222  1.00  0.00    -0.017 A 
HETATM   21  C   UNL     1      24.576  49.338  48.285  1.00  0.00     0.125 A 
HETATM   22  N   UNL     1      24.297  50.400  47.496  1.00  0.00    -0.272 NA
HETATM   23  C   UNL     1      23.075  50.954  47.637  1.00  0.00     0.116 A 
HETATM   24  C   UNL     1      22.122  50.498  48.532  1.00  0.00     0.020 A 
HETATM   25  C   UNL     1      22.441  49.408  49.337  1.00  0.00     0.012 A 
ENDBRANCH  19  20
ENDBRANCH  18  19
ENDBRANCH   4  18
TORSDOF 6
ENDMDL
MODEL 7
REMARK VINA RESULT:      -7.4      4.255     10.125
REMARK  6 active torsions:
REMARK  status: ('A' for Active; 'I' for Inactive)
REMARK    1  A    between atoms: C_2  and  N_3 
REMARK    2  A    between atoms: C_2  and  C_11 
REMARK       I    between atoms: N_3  and  C_4 
REMARK    3  A    between atoms: C_4  and  C_5 
REMARK    4  A    between atoms: C_14  and  O_15 
REMARK    5  A    between atoms: O_15  and  C_16 
REMARK    6  A    between atoms: C_16  and  C_17 
ROOT
HETATM    1  C   UNL     1      24.844  48.811  49.003  1.00  0.00    -0.036 A 
HETATM    2  C   UNL     1      24.790  49.949  48.184  1.00  0.00     0.012 A 
HETATM    3  C   UNL     1      23.564  50.532  47.844  1.00  0.00     0.037 A 
HETATM    4  C   UNL     1      22.373  49.973  48.303  1.00  0.00     0.069 A 
HETATM    5  C   UNL     1      22.418  48.861  49.144  1.00  0.00     0.037 A 
HETATM    6  C   UNL     1      23.641  48.281  49.489  1.00  0.00     0.012 A 
ENDROOT
BRANCH   1   7
HETATM    7  C   UNL     1      26.182  48.155  49.300  1.00  0.00     0.113 C 
HETATM    8  C   UNL     1      27.351  49.125  49.119  1.00  0.00     0.037 C 
BRANCH   7   9
HETATM    9  N   UNL     1      26.158  47.601  50.646  1.00  0.00    -0.352 N 
HETATM   10  C   UNL     1      26.274  46.257  50.885  1.00  0.00     0.225 C 
HETATM   11  O   UNL     1      26.456  45.429  50.002  1.00  0.00    -0.273 OA
HETATM   12  H   UNL     1      25.858  48.213  51.395  1.00  0.00     0.163 HD
BRANCH  10  13
HETATM   13  C   UNL     1      26.205  45.793  52.293  1.00  0.00     0.119 A 
HETATM   14  C   UNL     1      27.075  44.721  52.889  1.00  0.00     0.126 A 
HETATM   15 CL   UNL     1      28.205  43.777  51.932  1.00  0.00    -0.101 Cl
HETATM   16 CL   UNL     1      27.610  44.935  54.558  1.00  0.00    -0.101 Cl
HETATM   17  C   UNL     1      25.606  44.459  52.671  1.00  0.00     0.060 A 
ENDBRANCH  10  13
ENDBRANCH   7   9
ENDBRANCH   1   7
BRANCH   4  18
HETATM   18  O   UNL     1      21.114  50.421  48.010  1.00  0.00    -0.347 OA
BRANCH  18  19
HETATM   19  C   UNL     1      20.717  51.648  48.620  1.00  0.00     0.215 C 
BRANCH  19  20
HETATM   20  C   UNL     1      19.215  51.706  48.635  1.00  0.00    -0.017 A 
HETATM   21  C   UNL     1      18.473  51.353  47.512  1.00  0.00     0.125 A 
HETATM   22  N   UNL     1      17.123  51.386  47.450  1.00  0.00    -0.272 NA
HETATM   23  C   UNL     1      16.475  51.780  48.566  1.00  0.00     0.116 A 
HETATM   24  C   UNL     1      17.116  52.146  49.739  1.00  0.00     0.020 A 
HETATM   25  C   UNL     1      18.506  52.109  49.770  1.00  0.00     0.012 A 
ENDBRANCH  19  20
ENDBRANCH  18  19
ENDBRANCH   4  18
TORSDOF 6
ENDMDL
MODEL 8
REMARK VINA RESULT:      -7.4      4.089      8.858
REMARK  6 active torsions:
REMARK  status: ('A' for Active; 'I' for Inactive)
REMARK    1  A    between atoms: C_2  and  N_3 
REMARK    2  A    between atoms: C_2  and  C_11 
REMARK       I    between atoms: N_3  and  C_4 
REMARK    3  A    between atoms: C_4  and  C_5 
REMARK    4  A    between atoms: C_14  and  O_15 
REMARK    5  A    between atoms: O_15  and  C_16 
REMARK    6  A    between atoms: C_16  and  C_17 
ROOT
HETATM    1  C   UNL     1      27.015  43.970  52.340  1.00  0.00    -0.036 A 
HETATM    2  C   UNL     1      27.407  43.662  51.028  1.00  0.00     0.012 A 
HETATM    3  C   UNL     1      27.177  44.559  49.979  1.00  0.00     0.037 A 
HETATM    4  C   UNL     1      26.534  45.771  50.224  1.00  0.00     0.069 A 
HETATM    5  C   UNL     1      26.169  46.100  51.530  1.00  0.00     0.037 A 
HETATM    6  C   UNL     1      26.402  45.208  52.579  1.00  0.00     0.012 A 
ENDROOT
BRANCH   1   7
HETATM    7  C   UNL     1      27.211  42.950  53.449  1.00  0.00     0.113 C 
HETATM    8  C   UNL     1      28.023  41.740  52.980  1.00  0.00     0.037 C 
BRANCH   7   9
HETATM    9  N   UNL     1      27.838  43.597  54.592  1.00  0.00    -0.352 N 
HETATM   10  C   UNL     1      29.186  43.836  54.648  1.00  0.00     0.225 C 
HETATM   11  O   UNL     1      29.954  43.576  53.731  1.00  0.00    -0.273 OA
HETATM   12  H   UNL     1      27.284  43.691  55.434  1.00  0.00     0.163 HD
BRANCH  10  13
HETATM   13  C   UNL     1      29.729  44.471  55.874  1.00  0.00     0.119 A 
HETATM   14  C   UNL     1      29.302  45.809  56.411  1.00  0.00     0.126 A 
HETATM   15 CL   UNL     1      28.186  46.861  55.555  1.00  0.00    -0.101 Cl
HETATM   16 CL   UNL     1      29.203  45.995  58.164  1.00  0.00    -0.101 Cl
HETATM   17  C   UNL     1      30.678  45.644  55.819  1.00  0.00     0.060 A 
ENDBRANCH  10  13
ENDBRANCH   7   9
ENDBRANCH   1   7
BRANCH   4  18
HETATM   18  O   UNL     1      26.215  46.712  49.285  1.00  0.00    -0.347 OA
BRANCH  18  19
HETATM   19  C   UNL     1      26.223  48.071  49.717  1.00  0.00     0.215 C 
BRANCH  19  20
HETATM   20  C   UNL     1      25.095  48.792  49.035  1.00  0.00    -0.017 A 
HETATM   21  C   UNL     1      25.343  49.812  48.121  1.00  0.00     0.125 A 
HETATM   22  N   UNL     1      24.380  50.507  47.476  1.00  0.00    -0.272 NA
HETATM   23  C   UNL     1      23.103  50.164  47.743  1.00  0.00     0.116 A 
HETATM   24  C   UNL     1      22.745  49.161  48.629  1.00  0.00     0.020 A 
HETATM   25  C   UNL     1      23.758  48.468  49.285  1.00  0.00     0.012 A 
ENDBRANCH  19  20
ENDBRANCH  18  19
ENDBRANCH   4  18
TORSDOF 6
ENDMDL
MODEL 9
REMARK VINA RESULT:      -7.3      3.446      8.927
REMARK  6 active torsions:
REMARK  status: ('A' for Active; 'I' for Inactive)
REMARK    1  A    between atoms: C_2  and  N_3 
REMARK    2  A    between atoms: C_2  and  C_11 
REMARK       I    between atoms: N_3  and  C_4 
REMARK    3  A    between atoms: C_4  and  C_5 
REMARK    4  A    between atoms: C_14  and  O_15 
REMARK    5  A    between atoms: O_15  and  C_16 
REMARK    6  A    between atoms: C_16  and  C_17 
ROOT
HETATM    1  C   UNL     1      24.459  44.892  50.924  1.00  0.00    -0.036 A 
HETATM    2  C   UNL     1      25.019  46.134  51.261  1.00  0.00     0.012 A 
HETATM    3  C   UNL     1      24.718  47.282  50.520  1.00  0.00     0.037 A 
HETATM    4  C   UNL     1      23.869  47.201  49.418  1.00  0.00     0.069 A 
HETATM    5  C   UNL     1      23.284  45.977  49.095  1.00  0.00     0.037 A 
HETATM    6  C   UNL     1      23.578  44.831  49.836  1.00  0.00     0.012 A 
ENDROOT
BRANCH   1   7
HETATM    7  C   UNL     1      24.856  43.647  51.699  1.00  0.00     0.113 C 
HETATM    8  C   UNL     1      25.180  42.472  50.774  1.00  0.00     0.037 C 
BRANCH   7   9
HETATM    9  N   UNL     1      25.979  43.959  52.570  1.00  0.00    -0.352 N 
HETATM   10  C   UNL     1      25.822  44.191  53.912  1.00  0.00     0.225 C 
HETATM   11  O   UNL     1      24.745  44.104  54.488  1.00  0.00    -0.273 OA
HETATM   12  H   UNL     1      26.859  44.194  52.128  1.00  0.00     0.163 HD
BRANCH  10  13
HETATM   13  C   UNL     1      27.028  44.533  54.705  1.00  0.00     0.119 A 
HETATM   14  C   UNL     1      27.592  45.918  54.858  1.00  0.00     0.126 A 
HETATM   15 CL   UNL     1      26.954  47.302  53.985  1.00  0.00    -0.101 Cl
HETATM   16 CL   UNL     1      28.270  46.358  56.428  1.00  0.00    -0.101 Cl
HETATM   17  C   UNL     1      28.343  44.888  54.054  1.00  0.00     0.060 A 
ENDBRANCH  10  13
ENDBRANCH   7   9
ENDBRANCH   1   7
BRANCH   4  18
HETATM   18  O   UNL     1      23.530  48.236  48.592  1.00  0.00    -0.347 OA
BRANCH  18  19
HETATM   19  C   UNL     1      23.327  49.505  49.211  1.00  0.00     0.215 C 
BRANCH  19  20
HETATM   20  C   UNL     1      21.898  49.915  48.994  1.00  0.00    -0.017 A 
HETATM   21  C   UNL     1      20.862  48.991  49.101  1.00  0.00     0.125 A 
HETATM   22  N   UNL     1      19.557  49.286  48.913  1.00  0.00    -0.272 NA
HETATM   23  C   UNL     1      19.262  50.568  48.615  1.00  0.00     0.116 A 
HETATM   24  C   UNL     1      20.213  51.568  48.492  1.00  0.00     0.020 A 
HETATM   25  C   UNL     1      21.550  51.233  48.683  1.00  0.00     0.012 A 
ENDBRANCH  19  20
ENDBRANCH  18  19
ENDBRANCH   4  18
TORSDOF 6
ENDMDL
MODEL 10
REMARK VINA RESULT:      -7.1      1.642      2.057
REMARK  6 active torsions:
REMARK  status: ('A' for Active; 'I' for Inactive)
REMARK    1  A    between atoms: C_2  and  N_3 
REMARK    2  A    between atoms: C_2  and  C_11 
REMARK       I    between atoms: N_3  and  C_4 
REMARK    3  A    between atoms: C_4  and  C_5 
REMARK    4  A    between atoms: C_14  and  O_15 
REMARK    5  A    between atoms: O_15  and  C_16 
REMARK    6  A    between atoms: C_16  and  C_17 
ROOT
HETATM    1  C   UNL     1      23.988  45.394  50.004  1.00  0.00    -0.036 A 
HETATM    2  C   UNL     1      24.351  44.169  50.583  1.00  0.00     0.012 A 
HETATM    3  C   UNL     1      25.285  44.114  51.624  1.00  0.00     0.037 A 
HETATM    4  C   UNL     1      25.884  45.284  52.088  1.00  0.00     0.069 A 
HETATM    5  C   UNL     1      25.506  46.510  51.540  1.00  0.00     0.037 A 
HETATM    6  C   UNL     1      24.570  46.567  50.505  1.00  0.00     0.012 A 
ENDROOT
BRANCH   1   7
HETATM    7  C   UNL     1      23.026  45.421  48.828  1.00  0.00     0.113 C 
HETATM    8  C   UNL     1      22.234  44.118  48.704  1.00  0.00     0.037 C 
BRANCH   7   9
HETATM    9  N   UNL     1      22.140  46.568  48.957  1.00  0.00    -0.352 N 
HETATM   10  C   UNL     1      21.727  47.298  47.873  1.00  0.00     0.225 C 
HETATM   11  O   UNL     1      22.023  47.016  46.719  1.00  0.00    -0.273 OA
HETATM   12  H   UNL     1      21.990  46.938  49.888  1.00  0.00     0.163 HD
BRANCH  10  13
HETATM   13  C   UNL     1      20.849  48.469  48.117  1.00  0.00     0.119 A 
HETATM   14  C   UNL     1      21.276  49.733  48.810  1.00  0.00     0.126 A 
HETATM   15 CL   UNL     1      22.857  49.921  49.549  1.00  0.00    -0.101 Cl
HETATM   16 CL   UNL     1      20.621  51.258  48.207  1.00  0.00    -0.101 Cl
HETATM   17  C   UNL     1      20.309  48.797  49.488  1.00  0.00     0.060 A 
ENDBRANCH  10  13
ENDBRANCH   7   9
ENDBRANCH   1   7
BRANCH   4  18
HETATM   18  O   UNL     1      26.836  45.361  53.067  1.00  0.00    -0.347 OA
BRANCH  18  19
HETATM   19  C   UNL     1      27.032  44.190  53.858  1.00  0.00     0.215 C 
BRANCH  19  20
HETATM   20  C   UNL     1      28.325  44.338  54.609  1.00  0.00    -0.017 A 
HETATM   21  C   UNL     1      29.286  43.331  54.587  1.00  0.00     0.125 A 
HETATM   22  N   UNL     1      30.467  43.391  55.242  1.00  0.00    -0.272 NA
HETATM   23  C   UNL     1      30.712  44.515  55.947  1.00  0.00     0.116 A 
HETATM   24  C   UNL     1      29.828  45.579  56.031  1.00  0.00     0.020 A 
HETATM   25  C   UNL     1      28.617  45.485  55.352  1.00  0.00     0.012 A 
ENDBRANCH  19  20
ENDBRANCH  18  19
ENDBRANCH   4  18
TORSDOF 6
ENDMDL
