MODEL 1
REMARK VINA RESULT:      -8.1      0.000      0.000
REMARK  4 active torsions:
REMARK  status: ('A' for Active; 'I' for Inactive)
REMARK    1  A    between atoms: C_2  and  O_3 
REMARK    2  A    between atoms: O_3  and  C_4 
REMARK    3  A    between atoms: C_11  and  C_12 
REMARK    4  A    between atoms: C_16  and  N_17 
ROOT
HETATM    1  C   UNL     1      25.872  44.300  49.631  1.00  0.00     0.108 C 
HETATM    2  C   UNL     1      24.492  43.646  49.711  1.00  0.00     0.067 C 
HETATM    3  C   UNL     1      24.363  42.243  49.141  1.00  0.00     0.020 C 
HETATM    4  N   UNL     1      24.256  41.079  48.668  1.00  0.00    -0.096 N 
HETATM    5  C   UNL     1      23.367  44.311  50.095  1.00  0.00     0.139 C 
HETATM    6  O   UNL     1      23.395  45.675  50.445  1.00  0.00    -0.279 OA
HETATM    7  C   UNL     1      24.537  46.311  50.209  1.00  0.00     0.175 A 
HETATM    8  C   UNL     1      25.737  45.775  49.817  1.00  0.00     0.034 A 
HETATM    9  N   UNL     1      24.714  47.654  50.299  1.00  0.00    -0.256 N 
HETATM   10  H   UNL     1      24.038  48.364  50.557  1.00  0.00     0.191 HD
HETATM   11  N   UNL     1      25.965  48.035  49.967  1.00  0.00    -0.177 NA
HETATM   12  C   UNL     1      26.593  46.889  49.657  1.00  0.00     0.062 A 
HETATM   13  C   UNL     1      28.011  46.907  49.221  1.00  0.00     0.073 C 
ENDROOT
BRANCH   1  14
HETATM   14  C   UNL     1      26.810  43.849  50.734  1.00  0.00    -0.003 A 
HETATM   15  C   UNL     1      27.618  42.721  50.625  1.00  0.00     0.134 A 
HETATM   16  N   UNL     1      28.508  42.313  51.557  1.00  0.00    -0.235 NA
HETATM   17 CL   UNL     1      27.607  41.686  49.251  1.00  0.00    -0.062 Cl
HETATM   18  C   UNL     1      28.639  43.043  52.675  1.00  0.00     0.069 A 
HETATM   19  C   UNL     1      27.867  44.193  52.912  1.00  0.00    -0.004 A 
HETATM   20  C   UNL     1      29.566  42.672  53.639  1.00  0.00     0.035 A 
HETATM   21  C   UNL     1      28.047  44.939  54.089  1.00  0.00     0.050 A 
HETATM   22  C   UNL     1      26.942  44.576  51.932  1.00  0.00     0.025 A 
HETATM   23  C   UNL     1      28.997  44.560  55.039  1.00  0.00     0.069 A 
HETATM   24  C   UNL     1      29.754  43.416  54.813  1.00  0.00     0.039 A 
BRANCH  23  25
HETATM   25  O   UNL     1      29.079  45.385  56.123  1.00  0.00    -0.351 OA
BRANCH  25  26
HETATM   26  C   UNL     1      30.383  45.676  56.622  1.00  0.00     0.171 C 
HETATM   27  C   UNL     1      30.279  45.852  58.126  1.00  0.00     0.034 C 
ENDBRANCH  25  26
ENDBRANCH  23  25
ENDBRANCH   1  14
BRANCH   5  28
HETATM   28  N   UNL     1      22.103  43.774  50.153  1.00  0.00    -0.282 NA
HETATM   29  H   UNL     1      21.858  43.122  49.411  1.00  0.00     0.126 HD
HETATM   30  H   UNL     1      21.866  43.434  51.082  1.00  0.00     0.126 HD
ENDBRANCH   5  28
TORSDOF 4
ENDMDL
MODEL 2
REMARK VINA RESULT:      -8.0      4.398      6.555
REMARK  4 active torsions:
REMARK  status: ('A' for Active; 'I' for Inactive)
REMARK    1  A    between atoms: C_2  and  O_3 
REMARK    2  A    between atoms: O_3  and  C_4 
REMARK    3  A    between atoms: C_11  and  C_12 
REMARK    4  A    between atoms: C_16  and  N_17 
ROOT
HETATM    1  C   UNL     1      20.888  48.001  47.895  1.00  0.00     0.108 C 
HETATM    2  C   UNL     1      20.429  46.646  47.353  1.00  0.00     0.067 C 
HETATM    3  C   UNL     1      20.856  46.293  45.938  1.00  0.00     0.020 C 
HETATM    4  N   UNL     1      21.211  46.000  44.764  1.00  0.00    -0.096 N 
HETATM    5  C   UNL     1      19.533  45.844  47.994  1.00  0.00     0.139 C 
HETATM    6  O   UNL     1      18.951  46.217  49.221  1.00  0.00    -0.279 OA
HETATM    7  C   UNL     1      19.187  47.461  49.622  1.00  0.00     0.175 A 
HETATM    8  C   UNL     1      20.053  48.374  49.075  1.00  0.00     0.034 A 
HETATM    9  N   UNL     1      18.576  48.072  50.668  1.00  0.00    -0.256 N 
HETATM   10  H   UNL     1      17.874  47.697  51.296  1.00  0.00     0.191 HD
HETATM   11  N   UNL     1      18.979  49.349  50.829  1.00  0.00    -0.177 NA
HETATM   12  C   UNL     1      19.874  49.545  49.847  1.00  0.00     0.062 A 
HETATM   13  C   UNL     1      20.536  50.864  49.690  1.00  0.00     0.073 C 
ENDROOT
BRANCH   1  14
HETATM   14  C   UNL     1      22.313  47.983  48.413  1.00  0.00    -0.003 A 
HETATM   15  C   UNL     1      23.200  49.038  48.220  1.00  0.00     0.134 A 
HETATM   16  N   UNL     1      24.459  49.091  48.710  1.00  0.00    -0.235 NA
HETATM   17 CL   UNL     1      22.796  50.455  47.332  1.00  0.00    -0.062 Cl
HETATM   18  C   UNL     1      24.900  48.059  49.445  1.00  0.00     0.069 A 
HETATM   19  C   UNL     1      24.107  46.927  49.696  1.00  0.00    -0.004 A 
HETATM   20  C   UNL     1      26.176  48.094  49.991  1.00  0.00     0.035 A 
HETATM   21  C   UNL     1      24.602  45.875  50.484  1.00  0.00     0.050 A 
HETATM   22  C   UNL     1      22.814  46.899  49.157  1.00  0.00     0.025 A 
HETATM   23  C   UNL     1      25.880  45.935  51.039  1.00  0.00     0.069 A 
HETATM   24  C   UNL     1      26.672  47.049  50.783  1.00  0.00     0.039 A 
BRANCH  23  25
HETATM   25  O   UNL     1      26.224  44.854  51.799  1.00  0.00    -0.351 OA
BRANCH  25  26
HETATM   26  C   UNL     1      25.174  44.195  52.505  1.00  0.00     0.171 C 
HETATM   27  C   UNL     1      25.342  44.499  53.982  1.00  0.00     0.034 C 
ENDBRANCH  25  26
ENDBRANCH  23  25
ENDBRANCH   1  14
BRANCH   5  28
HETATM   28  N   UNL     1      19.070  44.636  47.531  1.00  0.00    -0.282 NA
HETATM   29  H   UNL     1      18.226  44.666  46.963  1.00  0.00     0.126 HD
HETATM   30  H   UNL     1      19.808  44.064  47.125  1.00  0.00     0.126 HD
ENDBRANCH   5  28
TORSDOF 4
ENDMDL
MODEL 3
REMARK VINA RESULT:      -7.8     11.904     14.396
REMARK  4 active torsions:
REMARK  status: ('A' for Active; 'I' for Inactive)
REMARK    1  A    between atoms: C_2  and  O_3 
REMARK    2  A    between atoms: O_3  and  C_4 
REMARK    3  A    between atoms: C_11  and  C_12 
REMARK    4  A    between atoms: C_16  and  N_17 
ROOT
HETATM    1  C   UNL     1      30.510  51.033  40.550  1.00  0.00     0.108 C 
HETATM    2  C   UNL     1      31.909  50.742  41.095  1.00  0.00     0.067 C 
HETATM    3  C   UNL     1      32.090  50.830  42.602  1.00  0.00     0.020 C 
HETATM    4  N   UNL     1      32.240  50.903  43.852  1.00  0.00    -0.096 N 
HETATM    5  C   UNL     1      33.007  50.588  40.304  1.00  0.00     0.139 C 
HETATM    6  O   UNL     1      32.930  50.695  38.902  1.00  0.00    -0.279 OA
HETATM    7  C   UNL     1      31.773  51.127  38.415  1.00  0.00     0.175 A 
HETATM    8  C   UNL     1      30.596  51.330  39.089  1.00  0.00     0.034 A 
HETATM    9  N   UNL     1      31.553  51.474  37.121  1.00  0.00    -0.256 N 
HETATM   10  H   UNL     1      32.203  51.455  36.343  1.00  0.00     0.191 HD
HETATM   11  N   UNL     1      30.296  51.915  36.910  1.00  0.00    -0.177 NA
HETATM   12  C   UNL     1      29.708  51.843  38.115  1.00  0.00     0.062 A 
HETATM   13  C   UNL     1      28.297  52.267  38.287  1.00  0.00     0.073 C 
ENDROOT
BRANCH   1  14
HETATM   14  C   UNL     1      29.570  49.847  40.654  1.00  0.00    -0.003 A 
HETATM   15  C   UNL     1      28.252  49.963  41.085  1.00  0.00     0.134 A 
HETATM   16  N   UNL     1      27.363  48.946  41.141  1.00  0.00    -0.235 NA
HETATM   17 CL   UNL     1      27.556  51.452  41.593  1.00  0.00    -0.062 Cl
HETATM   18  C   UNL     1      27.765  47.727  40.750  1.00  0.00     0.069 A 
HETATM   19  C   UNL     1      29.077  47.477  40.312  1.00  0.00    -0.004 A 
HETATM   20  C   UNL     1      26.871  46.666  40.763  1.00  0.00     0.035 A 
HETATM   21  C   UNL     1      29.452  46.189  39.895  1.00  0.00     0.050 A 
HETATM   22  C   UNL     1      29.975  48.551  40.284  1.00  0.00     0.025 A 
HETATM   23  C   UNL     1      28.534  45.138  39.899  1.00  0.00     0.069 A 
HETATM   24  C   UNL     1      27.239  45.380  40.343  1.00  0.00     0.039 A 
BRANCH  23  25
HETATM   25  O   UNL     1      29.029  43.947  39.451  1.00  0.00    -0.351 OA
BRANCH  25  26
HETATM   26  C   UNL     1      29.479  43.897  38.098  1.00  0.00     0.171 C 
HETATM   27  C   UNL     1      28.282  43.587  37.219  1.00  0.00     0.034 C 
ENDBRANCH  25  26
ENDBRANCH  23  25
ENDBRANCH   1  14
BRANCH   5  28
HETATM   28  N   UNL     1      34.286  50.355  40.751  1.00  0.00    -0.282 NA
HETATM   29  H   UNL     1      34.772  51.152  41.156  1.00  0.00     0.126 HD
HETATM   30  H   UNL     1      34.354  49.513  41.317  1.00  0.00     0.126 HD
ENDBRANCH   5  28
TORSDOF 4
ENDMDL
MODEL 4
REMARK VINA RESULT:      -7.8     12.616     15.626
REMARK  4 active torsions:
REMARK  status: ('A' for Active; 'I' for Inactive)
REMARK    1  A    between atoms: C_2  and  O_3 
REMARK    2  A    between atoms: O_3  and  C_4 
REMARK    3  A    between atoms: C_11  and  C_12 
REMARK    4  A    between atoms: C_16  and  N_17 
ROOT
HETATM    1  C   UNL     1      31.291  51.000  40.712  1.00  0.00     0.108 C 
HETATM    2  C   UNL     1      30.737  51.842  39.561  1.00  0.00     0.067 C 
HETATM    3  C   UNL     1      30.284  53.253  39.898  1.00  0.00     0.020 C 
HETATM    4  N   UNL     1      29.909  54.424  40.177  1.00  0.00    -0.096 N 
HETATM    5  C   UNL     1      30.472  51.339  38.323  1.00  0.00     0.139 C 
HETATM    6  O   UNL     1      30.688  49.982  38.012  1.00  0.00    -0.279 OA
HETATM    7  C   UNL     1      30.991  49.193  39.037  1.00  0.00     0.175 A 
HETATM    8  C   UNL     1      31.275  49.558  40.328  1.00  0.00     0.034 A 
HETATM    9  N   UNL     1      31.054  47.838  38.985  1.00  0.00    -0.256 N 
HETATM   10  H   UNL     1      30.895  47.229  38.191  1.00  0.00     0.191 HD
HETATM   11  N   UNL     1      31.346  47.288  40.181  1.00  0.00    -0.177 NA
HETATM   12  C   UNL     1      31.470  48.335  41.012  1.00  0.00     0.062 A 
HETATM   13  C   UNL     1      31.780  48.121  42.447  1.00  0.00     0.073 C 
ENDROOT
BRANCH   1  14
HETATM   14  C   UNL     1      32.742  51.307  41.030  1.00  0.00    -0.003 A 
HETATM   15  C   UNL     1      33.194  51.567  42.320  1.00  0.00     0.134 A 
HETATM   16  N   UNL     1      34.484  51.789  42.658  1.00  0.00    -0.235 NA
HETATM   17 CL   UNL     1      32.153  51.619  43.689  1.00  0.00    -0.062 Cl
HETATM   18  C   UNL     1      35.412  51.754  41.689  1.00  0.00     0.069 A 
HETATM   19  C   UNL     1      35.079  51.520  40.344  1.00  0.00    -0.004 A 
HETATM   20  C   UNL     1      36.750  51.946  42.005  1.00  0.00     0.035 A 
HETATM   21  C   UNL     1      36.083  51.475  39.363  1.00  0.00     0.050 A 
HETATM   22  C   UNL     1      33.731  51.312  40.028  1.00  0.00     0.025 A 
HETATM   23  C   UNL     1      37.425  51.653  39.701  1.00  0.00     0.069 A 
HETATM   24  C   UNL     1      37.756  51.896  41.030  1.00  0.00     0.039 A 
BRANCH  23  25
HETATM   25  O   UNL     1      38.294  51.565  38.653  1.00  0.00    -0.351 OA
BRANCH  25  26
HETATM   26  C   UNL     1      37.993  52.337  37.491  1.00  0.00     0.171 C 
HETATM   27  C   UNL     1      38.499  53.749  37.725  1.00  0.00     0.034 C 
ENDBRANCH  25  26
ENDBRANCH  23  25
ENDBRANCH   1  14
BRANCH   5  28
HETATM   28  N   UNL     1      29.948  52.048  37.269  1.00  0.00    -0.282 NA
HETATM   29  H   UNL     1      30.156  51.690  36.339  1.00  0.00     0.126 HD
HETATM   30  H   UNL     1      28.965  52.276  37.401  1.00  0.00     0.126 HD
ENDBRANCH   5  28
TORSDOF 4
ENDMDL
MODEL 5
REMARK VINA RESULT:      -7.5     10.784     12.354
REMARK  4 active torsions:
REMARK  status: ('A' for Active; 'I' for Inactive)
REMARK    1  A    between atoms: C_2  and  O_3 
REMARK    2  A    between atoms: O_3  and  C_4 
REMARK    3  A    between atoms: C_11  and  C_12 
REMARK    4  A    between atoms: C_16  and  N_17 
ROOT
HETATM    1  C   UNL     1      27.044  46.334  39.254  1.00  0.00     0.108 C 
HETATM    2  C   UNL     1      27.891  45.059  39.266  1.00  0.00     0.067 C 
HETATM    3  C   UNL     1      28.677  44.746  38.003  1.00  0.00     0.020 C 
HETATM    4  N   UNL     1      29.330  44.486  36.956  1.00  0.00    -0.096 N 
HETATM    5  C   UNL     1      27.832  44.128  40.258  1.00  0.00     0.139 C 
HETATM    6  O   UNL     1      26.968  44.273  41.360  1.00  0.00    -0.279 OA
HETATM    7  C   UNL     1      26.094  45.270  41.286  1.00  0.00     0.175 A 
HETATM    8  C   UNL     1      26.031  46.269  40.348  1.00  0.00     0.034 A 
HETATM    9  N   UNL     1      25.062  45.468  42.145  1.00  0.00    -0.256 N 
HETATM   10  H   UNL     1      24.801  44.917  42.955  1.00  0.00     0.191 HD
HETATM   11  N   UNL     1      24.308  46.536  41.811  1.00  0.00    -0.177 NA
HETATM   12  C   UNL     1      24.888  47.024  40.703  1.00  0.00     0.062 A 
HETATM   13  C   UNL     1      24.321  48.214  40.022  1.00  0.00     0.073 C 
ENDROOT
BRANCH   1  14
HETATM   14  C   UNL     1      27.850  47.587  39.538  1.00  0.00    -0.003 A 
HETATM   15  C   UNL     1      27.724  48.752  38.789  1.00  0.00     0.134 A 
HETATM   16  N   UNL     1      28.379  49.909  39.038  1.00  0.00    -0.235 NA
HETATM   17 CL   UNL     1      26.679  48.887  37.429  1.00  0.00    -0.062 Cl
HETATM   18  C   UNL     1      29.213  49.954  40.088  1.00  0.00     0.069 A 
HETATM   19  C   UNL     1      29.440  48.838  40.911  1.00  0.00    -0.004 A 
HETATM   20  C   UNL     1      29.877  51.134  40.394  1.00  0.00     0.035 A 
HETATM   21  C   UNL     1      30.310  48.932  42.011  1.00  0.00     0.050 A 
HETATM   22  C   UNL     1      28.759  47.651  40.611  1.00  0.00     0.025 A 
HETATM   23  C   UNL     1      30.955  50.131  42.313  1.00  0.00     0.069 A 
HETATM   24  C   UNL     1      30.741  51.235  41.494  1.00  0.00     0.039 A 
BRANCH  23  25
HETATM   25  O   UNL     1      31.754  50.086  43.418  1.00  0.00    -0.351 OA
BRANCH  25  26
HETATM   26  C   UNL     1      32.783  51.070  43.519  1.00  0.00     0.171 C 
HETATM   27  C   UNL     1      32.473  51.949  44.717  1.00  0.00     0.034 C 
ENDBRANCH  25  26
ENDBRANCH  23  25
ENDBRANCH   1  14
BRANCH   5  28
HETATM   28  N   UNL     1      28.550  42.957  40.296  1.00  0.00    -0.282 NA
HETATM   29  H   UNL     1      28.208  42.201  39.706  1.00  0.00     0.126 HD
HETATM   30  H   UNL     1      29.552  43.110  40.212  1.00  0.00     0.126 HD
ENDBRANCH   5  28
TORSDOF 4
ENDMDL
MODEL 6
REMARK VINA RESULT:      -7.4      6.942     10.097
REMARK  4 active torsions:
REMARK  status: ('A' for Active; 'I' for Inactive)
REMARK    1  A    between atoms: C_2  and  O_3 
REMARK    2  A    between atoms: O_3  and  C_4 
REMARK    3  A    between atoms: C_11  and  C_12 
REMARK    4  A    between atoms: C_16  and  N_17 
ROOT
HETATM    1  C   UNL     1      18.029  48.045  45.844  1.00  0.00     0.108 C 
HETATM    2  C   UNL     1      18.510  47.668  44.442  1.00  0.00     0.067 C 
HETATM    3  C   UNL     1      18.313  48.704  43.347  1.00  0.00     0.020 C 
HETATM    4  N   UNL     1      18.150  49.564  42.439  1.00  0.00    -0.096 N 
HETATM    5  C   UNL     1      18.930  46.418  44.102  1.00  0.00     0.139 C 
HETATM    6  O   UNL     1      18.944  45.362  45.035  1.00  0.00    -0.279 OA
HETATM    7  C   UNL     1      18.363  45.611  46.202  1.00  0.00     0.175 A 
HETATM    8  C   UNL     1      17.891  46.810  46.672  1.00  0.00     0.034 A 
HETATM    9  N   UNL     1      18.106  44.683  47.158  1.00  0.00    -0.256 N 
HETATM   10  H   UNL     1      18.312  43.690  47.146  1.00  0.00     0.191 HD
HETATM   11  N   UNL     1      17.471  45.204  48.229  1.00  0.00    -0.177 NA
HETATM   12  C   UNL     1      17.324  46.505  47.931  1.00  0.00     0.062 A 
HETATM   13  C   UNL     1      16.643  47.418  48.882  1.00  0.00     0.073 C 
ENDROOT
BRANCH   1  14
HETATM   14  C   UNL     1      19.016  48.916  46.599  1.00  0.00    -0.003 A 
HETATM   15  C   UNL     1      18.742  50.233  46.954  1.00  0.00     0.134 A 
HETATM   16  N   UNL     1      19.566  51.028  47.674  1.00  0.00    -0.235 NA
HETATM   17 CL   UNL     1      17.279  51.035  46.536  1.00  0.00    -0.062 Cl
HETATM   18  C   UNL     1      20.737  50.522  48.089  1.00  0.00     0.069 A 
HETATM   19  C   UNL     1      21.137  49.211  47.778  1.00  0.00    -0.004 A 
HETATM   20  C   UNL     1      21.594  51.298  48.857  1.00  0.00     0.035 A 
HETATM   21  C   UNL     1      22.365  48.714  48.247  1.00  0.00     0.050 A 
HETATM   22  C   UNL     1      20.266  48.422  47.016  1.00  0.00     0.025 A 
HETATM   23  C   UNL     1      23.205  49.504  49.032  1.00  0.00     0.069 A 
HETATM   24  C   UNL     1      22.817  50.805  49.331  1.00  0.00     0.039 A 
BRANCH  23  25
HETATM   25  O   UNL     1      24.355  48.888  49.433  1.00  0.00    -0.351 OA
BRANCH  25  26
HETATM   26  C   UNL     1      24.236  47.570  49.968  1.00  0.00     0.171 C 
HETATM   27  C   UNL     1      25.462  47.299  50.819  1.00  0.00     0.034 C 
ENDBRANCH  25  26
ENDBRANCH  23  25
ENDBRANCH   1  14
BRANCH   5  28
HETATM   28  N   UNL     1      19.342  46.027  42.850  1.00  0.00    -0.282 NA
HETATM   29  H   UNL     1      18.744  45.358  42.370  1.00  0.00     0.126 HD
HETATM   30  H   UNL     1      19.616  46.813  42.266  1.00  0.00     0.126 HD
ENDBRANCH   5  28
TORSDOF 4
ENDMDL
MODEL 7
REMARK VINA RESULT:      -7.3     10.294     11.872
REMARK  4 active torsions:
REMARK  status: ('A' for Active; 'I' for Inactive)
REMARK    1  A    between atoms: C_2  and  O_3 
REMARK    2  A    between atoms: O_3  and  C_4 
REMARK    3  A    between atoms: C_11  and  C_12 
REMARK    4  A    between atoms: C_16  and  N_17 
ROOT
HETATM    1  C   UNL     1      26.866  45.723  40.130  1.00  0.00     0.108 C 
HETATM    2  C   UNL     1      26.482  44.885  41.351  1.00  0.00     0.067 C 
HETATM    3  C   UNL     1      27.119  43.510  41.468  1.00  0.00     0.020 C 
HETATM    4  N   UNL     1      27.647  42.369  41.565  1.00  0.00    -0.096 N 
HETATM    5  C   UNL     1      25.489  45.231  42.217  1.00  0.00     0.139 C 
HETATM    6  O   UNL     1      24.728  46.403  42.042  1.00  0.00    -0.279 OA
HETATM    7  C   UNL     1      24.914  47.050  40.897  1.00  0.00     0.175 A 
HETATM    8  C   UNL     1      25.863  46.811  39.936  1.00  0.00     0.034 A 
HETATM    9  N   UNL     1      24.155  48.085  40.454  1.00  0.00    -0.256 N 
HETATM   10  H   UNL     1      23.360  48.523  40.906  1.00  0.00     0.191 HD
HETATM   11  N   UNL     1      24.543  48.530  39.241  1.00  0.00    -0.177 NA
HETATM   12  C   UNL     1      25.581  47.744  38.911  1.00  0.00     0.062 A 
HETATM   13  C   UNL     1      26.274  47.925  37.612  1.00  0.00     0.073 C 
ENDROOT
BRANCH   1  14
HETATM   14  C   UNL     1      28.195  46.437  40.292  1.00  0.00    -0.003 A 
HETATM   15  C   UNL     1      29.370  45.990  39.695  1.00  0.00     0.134 A 
HETATM   16  N   UNL     1      30.563  46.623  39.765  1.00  0.00    -0.235 NA
HETATM   17 CL   UNL     1      29.459  44.555  38.751  1.00  0.00    -0.062 Cl
HETATM   18  C   UNL     1      30.634  47.773  40.453  1.00  0.00     0.069 A 
HETATM   19  C   UNL     1      29.521  48.318  41.115  1.00  0.00    -0.004 A 
HETATM   20  C   UNL     1      31.835  48.467  40.519  1.00  0.00     0.035 A 
HETATM   21  C   UNL     1      29.636  49.533  41.812  1.00  0.00     0.050 A 
HETATM   22  C   UNL     1      28.307  47.626  41.037  1.00  0.00     0.025 A 
HETATM   23  C   UNL     1      30.846  50.225  41.852  1.00  0.00     0.069 A 
HETATM   24  C   UNL     1      31.952  49.682  41.207  1.00  0.00     0.039 A 
BRANCH  23  25
HETATM   25  O   UNL     1      30.809  51.400  42.546  1.00  0.00    -0.351 OA
BRANCH  25  26
HETATM   26  C   UNL     1      29.950  52.424  42.046  1.00  0.00     0.171 C 
HETATM   27  C   UNL     1      30.733  53.234  41.029  1.00  0.00     0.034 C 
ENDBRANCH  25  26
ENDBRANCH  23  25
ENDBRANCH   1  14
BRANCH   5  28
HETATM   28  N   UNL     1      25.090  44.496  43.308  1.00  0.00    -0.282 NA
HETATM   29  H   UNL     1      25.502  44.759  44.200  1.00  0.00     0.126 HD
HETATM   30  H   UNL     1      24.081  44.378  43.351  1.00  0.00     0.126 HD
ENDBRANCH   5  28
TORSDOF 4
ENDMDL
MODEL 8
REMARK VINA RESULT:      -7.3      1.970      2.247
REMARK  4 active torsions:
REMARK  status: ('A' for Active; 'I' for Inactive)
REMARK    1  A    between atoms: C_2  and  O_3 
REMARK    2  A    between atoms: O_3  and  C_4 
REMARK    3  A    between atoms: C_11  and  C_12 
REMARK    4  A    between atoms: C_16  and  N_17 
ROOT
HETATM    1  C   UNL     1      25.443  45.517  49.344  1.00  0.00     0.108 C 
HETATM    2  C   UNL     1      24.063  44.869  49.214  1.00  0.00     0.067 C 
HETATM    3  C   UNL     1      24.028  43.405  48.809  1.00  0.00     0.020 C 
HETATM    4  N   UNL     1      23.998  42.190  48.472  1.00  0.00    -0.096 N 
HETATM    5  C   UNL     1      22.896  45.570  49.268  1.00  0.00     0.139 C 
HETATM    6  O   UNL     1      22.879  46.967  49.444  1.00  0.00    -0.279 OA
HETATM    7  C   UNL     1      24.057  47.576  49.376  1.00  0.00     0.175 A 
HETATM    8  C   UNL     1      25.301  47.002  49.313  1.00  0.00     0.034 A 
HETATM    9  N   UNL     1      24.238  48.920  49.333  1.00  0.00    -0.256 N 
HETATM   10  H   UNL     1      23.538  49.653  49.353  1.00  0.00     0.191 HD
HETATM   11  N   UNL     1      25.538  49.264  49.226  1.00  0.00    -0.177 NA
HETATM   12  C   UNL     1      26.194  48.093  49.199  1.00  0.00     0.062 A 
HETATM   13  C   UNL     1      27.672  48.065  49.071  1.00  0.00     0.073 C 
ENDROOT
BRANCH   1  14
HETATM   14  C   UNL     1      26.121  45.214  50.667  1.00  0.00    -0.003 A 
HETATM   15  C   UNL     1      26.894  44.076  50.876  1.00  0.00     0.134 A 
HETATM   16  N   UNL     1      27.561  43.793  52.018  1.00  0.00    -0.235 NA
HETATM   17 CL   UNL     1      27.126  42.863  49.679  1.00  0.00    -0.062 Cl
HETATM   18  C   UNL     1      27.488  44.668  53.032  1.00  0.00     0.069 A 
HETATM   19  C   UNL     1      26.725  45.845  52.950  1.00  0.00    -0.004 A 
HETATM   20  C   UNL     1      28.186  44.426  54.207  1.00  0.00     0.035 A 
HETATM   21  C   UNL     1      26.688  46.743  54.030  1.00  0.00     0.050 A 
HETATM   22  C   UNL     1      26.032  46.097  51.759  1.00  0.00     0.025 A 
HETATM   23  C   UNL     1      27.411  46.491  55.197  1.00  0.00     0.069 A 
HETATM   24  C   UNL     1      28.158  45.321  55.285  1.00  0.00     0.039 A 
BRANCH  23  25
HETATM   25  O   UNL     1      27.300  47.456  56.156  1.00  0.00    -0.351 OA
BRANCH  25  26
HETATM   26  C   UNL     1      26.643  48.668  55.787  1.00  0.00     0.171 C 
HETATM   27  C   UNL     1      25.600  48.974  56.846  1.00  0.00     0.034 C 
ENDBRANCH  25  26
ENDBRANCH  23  25
ENDBRANCH   1  14
BRANCH   5  28
HETATM   28  N   UNL     1      21.637  45.036  49.127  1.00  0.00    -0.282 NA
HETATM   29  H   UNL     1      21.524  44.343  48.390  1.00  0.00     0.126 HD
HETATM   30  H   UNL     1      21.233  44.749  50.015  1.00  0.00     0.126 HD
ENDBRANCH   5  28
TORSDOF 4
ENDMDL
MODEL 9
REMARK VINA RESULT:      -7.2      3.131      4.152
REMARK  4 active torsions:
REMARK  status: ('A' for Active; 'I' for Inactive)
REMARK    1  A    between atoms: C_2  and  O_3 
REMARK    2  A    between atoms: O_3  and  C_4 
REMARK    3  A    between atoms: C_11  and  C_12 
REMARK    4  A    between atoms: C_16  and  N_17 
ROOT
HETATM    1  C   UNL     1      22.966  47.388  48.401  1.00  0.00     0.108 C 
HETATM    2  C   UNL     1      21.482  47.030  48.501  1.00  0.00     0.067 C 
HETATM    3  C   UNL     1      21.035  45.758  47.799  1.00  0.00     0.020 C 
HETATM    4  N   UNL     1      20.663  44.704  47.216  1.00  0.00    -0.096 N 
HETATM    5  C   UNL     1      20.541  47.865  49.022  1.00  0.00     0.139 C 
HETATM    6  O   UNL     1      20.874  49.144  49.509  1.00  0.00    -0.279 OA
HETATM    7  C   UNL     1      22.114  49.553  49.268  1.00  0.00     0.175 A 
HETATM    8  C   UNL     1      23.156  48.828  48.747  1.00  0.00     0.034 A 
HETATM    9  N   UNL     1      22.577  50.810  49.484  1.00  0.00    -0.256 N 
HETATM   10  H   UNL     1      22.078  51.611  49.856  1.00  0.00     0.191 HD
HETATM   11  N   UNL     1      23.865  50.959  49.115  1.00  0.00    -0.177 NA
HETATM   12  C   UNL     1      24.223  49.751  48.649  1.00  0.00     0.062 A 
HETATM   13  C   UNL     1      25.593  49.525  48.128  1.00  0.00     0.073 C 
ENDROOT
BRANCH   1  14
HETATM   14  C   UNL     1      23.830  46.629  49.391  1.00  0.00    -0.003 A 
HETATM   15  C   UNL     1      24.301  45.343  49.150  1.00  0.00     0.134 A 
HETATM   16  N   UNL     1      25.118  44.650  49.976  1.00  0.00    -0.235 NA
HETATM   17 CL   UNL     1      23.917  44.450  47.730  1.00  0.00    -0.062 Cl
HETATM   18  C   UNL     1      25.519  45.237  51.114  1.00  0.00     0.069 A 
HETATM   19  C   UNL     1      25.097  46.526  51.479  1.00  0.00    -0.004 A 
HETATM   20  C   UNL     1      26.383  44.568  51.970  1.00  0.00     0.035 A 
HETATM   21  C   UNL     1      25.553  47.111  52.673  1.00  0.00     0.050 A 
HETATM   22  C   UNL     1      24.236  47.206  50.608  1.00  0.00     0.025 A 
HETATM   23  C   UNL     1      26.436  46.430  53.512  1.00  0.00     0.069 A 
HETATM   24  C   UNL     1      26.846  45.149  53.159  1.00  0.00     0.039 A 
BRANCH  23  25
HETATM   25  O   UNL     1      26.812  47.123  54.626  1.00  0.00    -0.351 OA
BRANCH  25  26
HETATM   26  C   UNL     1      28.207  47.175  54.921  1.00  0.00     0.171 C 
HETATM   27  C   UNL     1      28.452  46.351  56.171  1.00  0.00     0.034 C 
ENDBRANCH  25  26
ENDBRANCH  23  25
ENDBRANCH   1  14
BRANCH   5  28
HETATM   28  N   UNL     1      19.195  47.599  49.105  1.00  0.00    -0.282 NA
HETATM   29  H   UNL     1      18.837  47.382  50.033  1.00  0.00     0.126 HD
HETATM   30  H   UNL     1      18.630  48.281  48.606  1.00  0.00     0.126 HD
ENDBRANCH   5  28
TORSDOF 4
ENDMDL
MODEL 10
REMARK VINA RESULT:      -7.2      8.359     11.486
REMARK  4 active torsions:
REMARK  status: ('A' for Active; 'I' for Inactive)
REMARK    1  A    between atoms: C_2  and  O_3 
REMARK    2  A    between atoms: O_3  and  C_4 
REMARK    3  A    between atoms: C_11  and  C_12 
REMARK    4  A    between atoms: C_16  and  N_17 
ROOT
HETATM    1  C   UNL     1      17.333  50.191  45.592  1.00  0.00     0.108 C 
HETATM    2  C   UNL     1      17.711  51.069  44.398  1.00  0.00     0.067 C 
HETATM    3  C   UNL     1      17.107  52.464  44.355  1.00  0.00     0.020 C 
HETATM    4  N   UNL     1      16.607  53.621  44.318  1.00  0.00    -0.096 N 
HETATM    5  C   UNL     1      18.397  50.610  43.315  1.00  0.00     0.139 C 
HETATM    6  O   UNL     1      18.809  49.267  43.214  1.00  0.00    -0.279 OA
HETATM    7  C   UNL     1      18.339  48.444  44.143  1.00  0.00     0.175 A 
HETATM    8  C   UNL     1      17.634  48.763  45.276  1.00  0.00     0.034 A 
HETATM    9  N   UNL     1      18.462  47.092  44.122  1.00  0.00    -0.256 N 
HETATM   10  H   UNL     1      18.919  46.511  43.428  1.00  0.00     0.191 HD
HETATM   11  N   UNL     1      17.857  46.501  45.172  1.00  0.00    -0.177 NA
HETATM   12  C   UNL     1      17.336  47.518  45.877  1.00  0.00     0.062 A 
HETATM   13  C   UNL     1      16.567  47.254  47.118  1.00  0.00     0.073 C 
ENDROOT
BRANCH   1  14
HETATM   14  C   UNL     1      18.145  50.497  46.837  1.00  0.00    -0.003 A 
HETATM   15  C   UNL     1      17.563  50.840  48.053  1.00  0.00     0.134 A 
HETATM   16  N   UNL     1      18.242  51.066  49.200  1.00  0.00    -0.235 NA
HETATM   17 CL   UNL     1      15.864  51.005  48.269  1.00  0.00    -0.062 Cl
HETATM   18  C   UNL     1      19.578  50.949  49.183  1.00  0.00     0.069 A 
HETATM   19  C   UNL     1      20.285  50.625  48.013  1.00  0.00    -0.004 A 
HETATM   20  C   UNL     1      20.305  51.142  50.350  1.00  0.00     0.035 A 
HETATM   21  C   UNL     1      21.684  50.496  48.041  1.00  0.00     0.050 A 
HETATM   22  C   UNL     1      19.550  50.416  46.839  1.00  0.00     0.025 A 
HETATM   23  C   UNL     1      22.396  50.677  49.228  1.00  0.00     0.069 A 
HETATM   24  C   UNL     1      21.700  51.008  50.385  1.00  0.00     0.039 A 
BRANCH  23  25
HETATM   25  O   UNL     1      23.745  50.502  49.115  1.00  0.00    -0.351 OA
BRANCH  25  26
HETATM   26  C   UNL     1      24.197  49.276  48.541  1.00  0.00     0.171 C 
HETATM   27  C   UNL     1      24.053  48.189  49.590  1.00  0.00     0.034 C 
ENDBRANCH  25  26
ENDBRANCH  23  25
ENDBRANCH   1  14
BRANCH   5  28
HETATM   28  N   UNL     1      18.731  51.354  42.208  1.00  0.00    -0.282 NA
HETATM   29  H   UNL     1      19.700  51.660  42.150  1.00  0.00     0.126 HD
HETATM   30  H   UNL     1      18.386  50.944  41.343  1.00  0.00     0.126 HD
ENDBRANCH   5  28
TORSDOF 4
ENDMDL
