MODEL 1
REMARK VINA RESULT:      -8.1      0.000      0.000
REMARK  8 active torsions:
REMARK  status: ('A' for Active; 'I' for Inactive)
REMARK    1  A    between atoms: C_2  and  S_3 
REMARK    2  A    between atoms: S_3  and  C_4 
REMARK    3  A    between atoms: C_7  and  N_8 
REMARK    4  A    between atoms: N_8  and  C_9 
REMARK    5  A    between atoms: C_9  and  N_10 
REMARK       I    between atoms: N_10  and  C_11 
REMARK    6  A    between atoms: C_11  and  C_12 
REMARK    7  A    between atoms: C_21  and  C_22 
REMARK       I    between atoms: C_22  and  N_23 
REMARK    8  A    between atoms: C_25  and  C_26 
REMARK       I    between atoms: C_26  and  N_27 
ROOT
HETATM    1  C   UNL     1      22.769  47.985  48.584  1.00  0.00     0.088 A 
HETATM    2  N   UNL     1      22.805  46.802  49.252  1.00  0.00    -0.335 N 
HETATM    3  H   UNL     1      22.044  46.137  49.274  1.00  0.00     0.168 HD
HETATM    4  C   UNL     1      23.986  46.663  49.920  1.00  0.00     0.125 A 
HETATM    5  C   UNL     1      24.769  47.778  49.615  1.00  0.00     0.094 A 
HETATM    6  C   UNL     1      23.966  48.659  48.773  1.00  0.00     0.084 A 
ENDROOT
BRANCH   4   7
HETATM    7  N   UNL     1      24.282  45.584  50.742  1.00  0.00    -0.318 N 
HETATM    8  H   UNL     1      23.581  45.351  51.450  1.00  0.00     0.170 HD
BRANCH   7   9
HETATM    9  C   UNL     1      25.350  44.715  50.679  1.00  0.00     0.180 C 
HETATM   10  S   UNL     1      25.701  43.552  49.527  1.00  0.00    -0.040 SA
BRANCH   9  11
HETATM   11  N   UNL     1      26.254  44.828  51.724  1.00  0.00    -0.299 N 
HETATM   12  C   UNL     1      26.030  44.658  53.084  1.00  0.00     0.259 C 
HETATM   13  O   UNL     1      24.932  44.418  53.573  1.00  0.00    -0.267 OA
HETATM   14  H   UNL     1      27.192  45.057  51.417  1.00  0.00     0.171 HD
BRANCH  12  15
HETATM   15  C   UNL     1      27.227  44.826  53.938  1.00  0.00     0.054 A 
HETATM   16  C   UNL     1      27.452  46.009  54.652  1.00  0.00     0.049 A 
HETATM   17 CL   UNL     1      26.336  47.325  54.658  1.00  0.00    -0.083 Cl
HETATM   18  C   UNL     1      28.598  46.129  55.444  1.00  0.00     0.025 A 
HETATM   19  C   UNL     1      29.516  45.078  55.522  1.00  0.00     0.002 A 
HETATM   20  C   UNL     1      29.295  43.904  54.806  1.00  0.00     0.001 A 
HETATM   21  C   UNL     1      28.155  43.775  54.011  1.00  0.00     0.019 A 
ENDBRANCH  12  15
ENDBRANCH   9  11
ENDBRANCH   7   9
ENDBRANCH   4   7
BRANCH   5  22
HETATM   22  C   UNL     1      26.124  48.004  50.104  1.00  0.00     0.254 C 
HETATM   23  N   UNL     1      27.039  48.398  49.171  1.00  0.00    -0.366 N 
HETATM   24  H   UNL     1      26.788  48.650  48.226  1.00  0.00     0.159 HD
HETATM   25  H   UNL     1      27.980  48.593  49.482  1.00  0.00     0.159 HD
HETATM   26  O   UNL     1      26.450  47.885  51.280  1.00  0.00    -0.268 OA
ENDBRANCH   5  22
BRANCH   1  27
HETATM   27  S   UNL     1      21.311  48.306  47.700  1.00  0.00    -0.112 SA
BRANCH  27  28
HETATM   28  C   UNL     1      20.389  49.282  48.925  1.00  0.00     0.076 C 
HETATM   29  C   UNL     1      20.009  50.628  48.333  1.00  0.00     0.016 C 
ENDBRANCH  27  28
ENDBRANCH   1  27
BRANCH   6  30
HETATM   30  C   UNL     1      24.279  49.962  48.175  1.00  0.00     0.253 C 
HETATM   31  N   UNL     1      23.544  51.039  48.570  1.00  0.00    -0.366 N 
HETATM   32  H   UNL     1      22.685  50.952  49.106  1.00  0.00     0.159 HD
HETATM   33  H   UNL     1      23.701  51.904  48.076  1.00  0.00     0.159 HD
HETATM   34  O   UNL     1      25.149  50.138  47.327  1.00  0.00    -0.268 OA
ENDBRANCH   6  30
TORSDOF 8
ENDMDL
MODEL 2
REMARK VINA RESULT:      -8.0      1.365      1.673
REMARK  8 active torsions:
REMARK  status: ('A' for Active; 'I' for Inactive)
REMARK    1  A    between atoms: C_2  and  S_3 
REMARK    2  A    between atoms: S_3  and  C_4 
REMARK    3  A    between atoms: C_7  and  N_8 
REMARK    4  A    between atoms: N_8  and  C_9 
REMARK    5  A    between atoms: C_9  and  N_10 
REMARK       I    between atoms: N_10  and  C_11 
REMARK    6  A    between atoms: C_11  and  C_12 
REMARK    7  A    between atoms: C_21  and  C_22 
REMARK       I    between atoms: C_22  and  N_23 
REMARK    8  A    between atoms: C_25  and  C_26 
REMARK       I    between atoms: C_26  and  N_27 
ROOT
HETATM    1  C   UNL     1      22.755  48.003  48.575  1.00  0.00     0.088 A 
HETATM    2  N   UNL     1      22.787  46.829  49.259  1.00  0.00    -0.335 N 
HETATM    3  H   UNL     1      22.018  46.175  49.301  1.00  0.00     0.168 HD
HETATM    4  C   UNL     1      23.975  46.685  49.913  1.00  0.00     0.125 A 
HETATM    5  C   UNL     1      24.767  47.785  49.581  1.00  0.00     0.094 A 
HETATM    6  C   UNL     1      23.964  48.665  48.738  1.00  0.00     0.084 A 
ENDROOT
BRANCH   4   7
HETATM    7  N   UNL     1      24.269  45.614  50.746  1.00  0.00    -0.318 N 
HETATM    8  H   UNL     1      23.682  45.515  51.578  1.00  0.00     0.170 HD
BRANCH   7   9
HETATM    9  C   UNL     1      25.185  44.601  50.562  1.00  0.00     0.180 C 
HETATM   10  S   UNL     1      25.270  43.460  49.339  1.00  0.00    -0.040 SA
BRANCH   9  11
HETATM   11  N   UNL     1      26.169  44.523  51.535  1.00  0.00    -0.299 N 
HETATM   12  C   UNL     1      26.024  44.292  52.897  1.00  0.00     0.259 C 
HETATM   13  O   UNL     1      24.941  44.166  53.458  1.00  0.00    -0.267 OA
HETATM   14  H   UNL     1      27.105  44.648  51.167  1.00  0.00     0.171 HD
BRANCH  12  15
HETATM   15  C   UNL     1      27.292  44.243  53.659  1.00  0.00     0.054 A 
HETATM   16  C   UNL     1      28.087  43.091  53.677  1.00  0.00     0.049 A 
HETATM   17 CL   UNL     1      27.703  41.675  52.769  1.00  0.00    -0.083 Cl
HETATM   18  C   UNL     1      29.275  43.084  54.414  1.00  0.00     0.025 A 
HETATM   19  C   UNL     1      29.667  44.218  55.131  1.00  0.00     0.002 A 
HETATM   20  C   UNL     1      28.873  45.362  55.118  1.00  0.00     0.001 A 
HETATM   21  C   UNL     1      27.684  45.378  54.387  1.00  0.00     0.019 A 
ENDBRANCH  12  15
ENDBRANCH   9  11
ENDBRANCH   7   9
ENDBRANCH   4   7
BRANCH   5  22
HETATM   22  C   UNL     1      26.132  48.001  50.048  1.00  0.00     0.254 C 
HETATM   23  N   UNL     1      27.010  48.489  49.124  1.00  0.00    -0.366 N 
HETATM   24  H   UNL     1      26.725  48.811  48.210  1.00  0.00     0.159 HD
HETATM   25  H   UNL     1      27.957  48.679  49.423  1.00  0.00     0.159 HD
HETATM   26  O   UNL     1      26.496  47.795  51.201  1.00  0.00    -0.268 OA
ENDBRANCH   5  22
BRANCH   1  27
HETATM   27  S   UNL     1      21.290  48.330  47.707  1.00  0.00    -0.112 SA
BRANCH  27  28
HETATM   28  C   UNL     1      20.082  47.478  48.764  1.00  0.00     0.076 C 
HETATM   29  C   UNL     1      19.372  48.483  49.653  1.00  0.00     0.016 C 
ENDBRANCH  27  28
ENDBRANCH   1  27
BRANCH   6  30
HETATM   30  C   UNL     1      24.284  49.955  48.116  1.00  0.00     0.253 C 
HETATM   31  N   UNL     1      23.516  51.030  48.446  1.00  0.00    -0.366 N 
HETATM   32  H   UNL     1      22.635  50.945  48.946  1.00  0.00     0.159 HD
HETATM   33  H   UNL     1      23.682  51.884  47.936  1.00  0.00     0.159 HD
HETATM   34  O   UNL     1      25.189  50.121  47.304  1.00  0.00    -0.268 OA
ENDBRANCH   6  30
TORSDOF 8
ENDMDL
MODEL 3
REMARK VINA RESULT:      -7.7      4.875      6.981
REMARK  8 active torsions:
REMARK  status: ('A' for Active; 'I' for Inactive)
REMARK    1  A    between atoms: C_2  and  S_3 
REMARK    2  A    between atoms: S_3  and  C_4 
REMARK    3  A    between atoms: C_7  and  N_8 
REMARK    4  A    between atoms: N_8  and  C_9 
REMARK    5  A    between atoms: C_9  and  N_10 
REMARK       I    between atoms: N_10  and  C_11 
REMARK    6  A    between atoms: C_11  and  C_12 
REMARK    7  A    between atoms: C_21  and  C_22 
REMARK       I    between atoms: C_22  and  N_23 
REMARK    8  A    between atoms: C_25  and  C_26 
REMARK       I    between atoms: C_26  and  N_27 
ROOT
HETATM    1  C   UNL     1      26.396  41.010  48.362  1.00  0.00     0.088 A 
HETATM    2  N   UNL     1      26.395  42.349  48.596  1.00  0.00    -0.335 N 
HETATM    3  H   UNL     1      26.038  43.039  47.950  1.00  0.00     0.168 HD
HETATM    4  C   UNL     1      26.982  42.628  49.796  1.00  0.00     0.125 A 
HETATM    5  C   UNL     1      27.316  41.409  50.388  1.00  0.00     0.094 A 
HETATM    6  C   UNL     1      26.969  40.354  49.442  1.00  0.00     0.084 A 
ENDROOT
BRANCH   4   7
HETATM    7  N   UNL     1      27.182  43.917  50.272  1.00  0.00    -0.318 N 
HETATM    8  H   UNL     1      27.686  44.554  49.649  1.00  0.00     0.170 HD
BRANCH   7   9
HETATM    9  C   UNL     1      26.712  44.494  51.432  1.00  0.00     0.180 C 
HETATM   10  S   UNL     1      25.201  45.137  51.756  1.00  0.00    -0.040 SA
BRANCH   9  11
HETATM   11  N   UNL     1      27.630  44.545  52.469  1.00  0.00    -0.299 N 
HETATM   12  C   UNL     1      27.517  44.024  53.751  1.00  0.00     0.259 C 
HETATM   13  O   UNL     1      26.516  43.458  54.175  1.00  0.00    -0.267 OA
HETATM   14  H   UNL     1      28.486  45.027  52.220  1.00  0.00     0.171 HD
BRANCH  12  15
HETATM   15  C   UNL     1      28.701  44.233  54.615  1.00  0.00     0.054 A 
HETATM   16  C   UNL     1      28.934  45.460  55.248  1.00  0.00     0.049 A 
HETATM   17 CL   UNL     1      27.842  46.792  55.138  1.00  0.00    -0.083 Cl
HETATM   18  C   UNL     1      30.067  45.618  56.051  1.00  0.00     0.025 A 
HETATM   19  C   UNL     1      30.965  44.560  56.221  1.00  0.00     0.002 A 
HETATM   20  C   UNL     1      30.737  43.341  55.586  1.00  0.00     0.001 A 
HETATM   21  C   UNL     1      29.609  43.175  54.780  1.00  0.00     0.019 A 
ENDBRANCH  12  15
ENDBRANCH   9  11
ENDBRANCH   7   9
ENDBRANCH   4   7
BRANCH   5  22
HETATM   22  C   UNL     1      27.938  41.262  51.699  1.00  0.00     0.254 C 
HETATM   23  N   UNL     1      27.146  40.748  52.682  1.00  0.00    -0.366 N 
HETATM   24  H   UNL     1      26.228  40.364  52.506  1.00  0.00     0.159 HD
HETATM   25  H   UNL     1      27.555  40.604  53.595  1.00  0.00     0.159 HD
HETATM   26  O   UNL     1      29.109  41.546  51.930  1.00  0.00    -0.268 OA
ENDBRANCH   5  22
BRANCH   1  27
HETATM   27  S   UNL     1      25.694  40.508  46.858  1.00  0.00    -0.112 SA
BRANCH  27  28
HETATM   28  C   UNL     1      27.169  39.891  45.994  1.00  0.00     0.076 C 
HETATM   29  C   UNL     1      28.205  40.996  45.883  1.00  0.00     0.016 C 
ENDBRANCH  27  28
ENDBRANCH   1  27
BRANCH   6  30
HETATM   30  C   UNL     1      27.112  38.896  49.535  1.00  0.00     0.253 C 
HETATM   31  N   UNL     1      26.183  38.208  50.256  1.00  0.00    -0.366 N 
HETATM   32  H   UNL     1      25.518  38.665  50.875  1.00  0.00     0.159 HD
HETATM   33  H   UNL     1      26.351  37.224  50.396  1.00  0.00     0.159 HD
HETATM   34  O   UNL     1      28.026  38.260  49.018  1.00  0.00    -0.268 OA
ENDBRANCH   6  30
TORSDOF 8
ENDMDL
MODEL 4
REMARK VINA RESULT:      -7.7      4.515      6.414
REMARK  8 active torsions:
REMARK  status: ('A' for Active; 'I' for Inactive)
REMARK    1  A    between atoms: C_2  and  S_3 
REMARK    2  A    between atoms: S_3  and  C_4 
REMARK    3  A    between atoms: C_7  and  N_8 
REMARK    4  A    between atoms: N_8  and  C_9 
REMARK    5  A    between atoms: C_9  and  N_10 
REMARK       I    between atoms: N_10  and  C_11 
REMARK    6  A    between atoms: C_11  and  C_12 
REMARK    7  A    between atoms: C_21  and  C_22 
REMARK       I    between atoms: C_22  and  N_23 
REMARK    8  A    between atoms: C_25  and  C_26 
REMARK       I    between atoms: C_26  and  N_27 
ROOT
HETATM    1  C   UNL     1      25.601  42.189  49.852  1.00  0.00     0.088 A 
HETATM    2  N   UNL     1      25.705  43.299  50.630  1.00  0.00    -0.335 N 
HETATM    3  H   UNL     1      25.184  44.152  50.476  1.00  0.00     0.168 HD
HETATM    4  C   UNL     1      26.637  43.116  51.609  1.00  0.00     0.125 A 
HETATM    5  C   UNL     1      27.106  41.806  51.494  1.00  0.00     0.094 A 
HETATM    6  C   UNL     1      26.460  41.210  50.329  1.00  0.00     0.084 A 
ENDROOT
BRANCH   4   7
HETATM    7  N   UNL     1      27.004  44.102  52.514  1.00  0.00    -0.318 N 
HETATM    8  H   UNL     1      27.552  44.879  52.136  1.00  0.00     0.170 HD
BRANCH   7   9
HETATM    9  C   UNL     1      26.654  44.233  53.840  1.00  0.00     0.180 C 
HETATM   10  S   UNL     1      25.132  44.366  54.524  1.00  0.00    -0.040 SA
BRANCH   9  11
HETATM   11  N   UNL     1      27.722  44.259  54.724  1.00  0.00    -0.299 N 
HETATM   12  C   UNL     1      28.568  45.318  55.029  1.00  0.00     0.259 C 
HETATM   13  O   UNL     1      28.508  46.418  54.492  1.00  0.00    -0.267 OA
HETATM   14  H   UNL     1      27.870  43.375  55.197  1.00  0.00     0.171 HD
BRANCH  12  15
HETATM   15  C   UNL     1      29.601  45.017  56.045  1.00  0.00     0.054 A 
HETATM   16  C   UNL     1      30.544  44.001  55.846  1.00  0.00     0.049 A 
HETATM   17 CL   UNL     1      30.629  43.074  54.393  1.00  0.00    -0.083 Cl
HETATM   18  C   UNL     1      31.500  43.745  56.833  1.00  0.00     0.025 A 
HETATM   19  C   UNL     1      31.517  44.495  58.012  1.00  0.00     0.002 A 
HETATM   20  C   UNL     1      30.575  45.502  58.212  1.00  0.00     0.001 A 
HETATM   21  C   UNL     1      29.614  45.763  57.234  1.00  0.00     0.019 A 
ENDBRANCH  12  15
ENDBRANCH   9  11
ENDBRANCH   7   9
ENDBRANCH   4   7
BRANCH   5  22
HETATM   22  C   UNL     1      28.095  41.195  52.374  1.00  0.00     0.254 C 
HETATM   23  N   UNL     1      29.212  40.701  51.767  1.00  0.00    -0.366 N 
HETATM   24  H   UNL     1      29.422  40.855  50.791  1.00  0.00     0.159 HD
HETATM   25  H   UNL     1      29.932  40.299  52.351  1.00  0.00     0.159 HD
HETATM   26  O   UNL     1      27.976  41.138  53.594  1.00  0.00    -0.268 OA
ENDBRANCH   5  22
BRANCH   1  27
HETATM   27  S   UNL     1      24.460  42.286  48.549  1.00  0.00    -0.112 SA
BRANCH  27  28
HETATM   28  C   UNL     1      23.852  43.985  48.767  1.00  0.00     0.076 C 
HETATM   29  C   UNL     1      22.477  43.964  49.411  1.00  0.00     0.016 C 
ENDBRANCH  27  28
ENDBRANCH   1  27
BRANCH   6  30
HETATM   30  C   UNL     1      26.588  39.872  49.740  1.00  0.00     0.253 C 
HETATM   31  N   UNL     1      26.132  38.811  50.461  1.00  0.00    -0.366 N 
HETATM   32  H   UNL     1      25.886  38.878  51.444  1.00  0.00     0.159 HD
HETATM   33  H   UNL     1      26.320  37.892  50.089  1.00  0.00     0.159 HD
HETATM   34  O   UNL     1      27.097  39.649  48.645  1.00  0.00    -0.268 OA
ENDBRANCH   6  30
TORSDOF 8
ENDMDL
MODEL 5
REMARK VINA RESULT:      -7.7      4.821      7.688
REMARK  8 active torsions:
REMARK  status: ('A' for Active; 'I' for Inactive)
REMARK    1  A    between atoms: C_2  and  S_3 
REMARK    2  A    between atoms: S_3  and  C_4 
REMARK    3  A    between atoms: C_7  and  N_8 
REMARK    4  A    between atoms: N_8  and  C_9 
REMARK    5  A    between atoms: C_9  and  N_10 
REMARK       I    between atoms: N_10  and  C_11 
REMARK    6  A    between atoms: C_11  and  C_12 
REMARK    7  A    between atoms: C_21  and  C_22 
REMARK       I    between atoms: C_22  and  N_23 
REMARK    8  A    between atoms: C_25  and  C_26 
REMARK       I    between atoms: C_26  and  N_27 
ROOT
HETATM    1  C   UNL     1      26.884  39.077  49.312  1.00  0.00     0.088 A 
HETATM    2  N   UNL     1      25.915  39.977  49.627  1.00  0.00    -0.335 N 
HETATM    3  H   UNL     1      25.017  40.031  49.166  1.00  0.00     0.168 HD
HETATM    4  C   UNL     1      26.341  40.818  50.613  1.00  0.00     0.125 A 
HETATM    5  C   UNL     1      27.617  40.398  50.993  1.00  0.00     0.094 A 
HETATM    6  C   UNL     1      27.989  39.287  50.124  1.00  0.00     0.084 A 
ENDROOT
BRANCH   4   7
HETATM    7  N   UNL     1      25.589  41.881  51.094  1.00  0.00    -0.318 N 
HETATM    8  H   UNL     1      24.866  41.647  51.780  1.00  0.00     0.170 HD
BRANCH   7   9
HETATM    9  C   UNL     1      25.741  43.229  50.852  1.00  0.00     0.180 C 
HETATM   10  S   UNL     1      25.205  44.136  49.551  1.00  0.00    -0.040 SA
BRANCH   9  11
HETATM   11  N   UNL     1      26.441  43.921  51.828  1.00  0.00    -0.299 N 
HETATM   12  C   UNL     1      26.034  44.252  53.114  1.00  0.00     0.259 C 
HETATM   13  O   UNL     1      24.922  44.003  53.566  1.00  0.00    -0.267 OA
HETATM   14  H   UNL     1      27.369  44.198  51.532  1.00  0.00     0.171 HD
BRANCH  12  15
HETATM   15  C   UNL     1      27.041  44.979  53.918  1.00  0.00     0.054 A 
HETATM   16  C   UNL     1      26.957  46.363  54.111  1.00  0.00     0.049 A 
HETATM   17 CL   UNL     1      25.656  47.317  53.500  1.00  0.00    -0.083 Cl
HETATM   18  C   UNL     1      27.933  47.014  54.874  1.00  0.00     0.025 A 
HETATM   19  C   UNL     1      28.986  46.289  55.439  1.00  0.00     0.002 A 
HETATM   20  C   UNL     1      29.072  44.913  55.242  1.00  0.00     0.001 A 
HETATM   21  C   UNL     1      28.105  44.255  54.480  1.00  0.00     0.019 A 
ENDBRANCH  12  15
ENDBRANCH   9  11
ENDBRANCH   7   9
ENDBRANCH   4   7
BRANCH   5  22
HETATM   22  C   UNL     1      28.418  41.014  52.045  1.00  0.00     0.254 C 
HETATM   23  N   UNL     1      28.590  40.272  53.177  1.00  0.00    -0.366 N 
HETATM   24  H   UNL     1      28.303  39.306  53.252  1.00  0.00     0.159 HD
HETATM   25  H   UNL     1      29.166  40.656  53.913  1.00  0.00     0.159 HD
HETATM   26  O   UNL     1      28.944  42.116  51.940  1.00  0.00    -0.268 OA
ENDBRANCH   5  22
BRANCH   1  27
HETATM   27  S   UNL     1      26.485  37.951  48.055  1.00  0.00    -0.112 SA
BRANCH  27  28
HETATM   28  C   UNL     1      27.622  38.498  46.747  1.00  0.00     0.076 C 
HETATM   29  C   UNL     1      27.266  39.907  46.308  1.00  0.00     0.016 C 
ENDBRANCH  27  28
ENDBRANCH   1  27
BRANCH   6  30
HETATM   30  C   UNL     1      29.212  38.478  50.070  1.00  0.00     0.253 C 
HETATM   31  N   UNL     1      29.421  37.569  51.063  1.00  0.00    -0.366 N 
HETATM   32  H   UNL     1      28.876  37.556  51.921  1.00  0.00     0.159 HD
HETATM   33  H   UNL     1      30.311  37.095  51.068  1.00  0.00     0.159 HD
HETATM   34  O   UNL     1      30.067  38.582  49.195  1.00  0.00    -0.268 OA
ENDBRANCH   6  30
TORSDOF 8
ENDMDL
MODEL 6
REMARK VINA RESULT:      -7.6      3.536      7.884
REMARK  8 active torsions:
REMARK  status: ('A' for Active; 'I' for Inactive)
REMARK    1  A    between atoms: C_2  and  S_3 
REMARK    2  A    between atoms: S_3  and  C_4 
REMARK    3  A    between atoms: C_7  and  N_8 
REMARK    4  A    between atoms: N_8  and  C_9 
REMARK    5  A    between atoms: C_9  and  N_10 
REMARK       I    between atoms: N_10  and  C_11 
REMARK    6  A    between atoms: C_11  and  C_12 
REMARK    7  A    between atoms: C_21  and  C_22 
REMARK       I    between atoms: C_22  and  N_23 
REMARK    8  A    between atoms: C_25  and  C_26 
REMARK       I    between atoms: C_26  and  N_27 
ROOT
HETATM    1  C   UNL     1      27.373  41.864  52.247  1.00  0.00     0.088 A 
HETATM    2  N   UNL     1      26.863  43.031  52.723  1.00  0.00    -0.335 N 
HETATM    3  H   UNL     1      27.169  43.479  53.577  1.00  0.00     0.168 HD
HETATM    4  C   UNL     1      25.859  43.482  51.918  1.00  0.00     0.125 A 
HETATM    5  C   UNL     1      25.764  42.599  50.841  1.00  0.00     0.094 A 
HETATM    6  C   UNL     1      26.724  41.524  51.070  1.00  0.00     0.084 A 
ENDROOT
BRANCH   4   7
HETATM    7  N   UNL     1      25.108  44.617  52.189  1.00  0.00    -0.318 N 
HETATM    8  H   UNL     1      24.092  44.508  52.140  1.00  0.00     0.170 HD
BRANCH   7   9
HETATM    9  C   UNL     1      25.535  45.858  52.610  1.00  0.00     0.180 C 
HETATM   10  S   UNL     1      25.952  46.366  54.150  1.00  0.00    -0.040 SA
BRANCH   9  11
HETATM   11  N   UNL     1      25.627  46.812  51.609  1.00  0.00    -0.299 N 
HETATM   12  C   UNL     1      24.913  46.892  50.420  1.00  0.00     0.259 C 
HETATM   13  O   UNL     1      24.094  46.056  50.057  1.00  0.00    -0.267 OA
HETATM   14  H   UNL     1      26.309  47.535  51.809  1.00  0.00     0.171 HD
BRANCH  12  15
HETATM   15  C   UNL     1      25.238  48.063  49.576  1.00  0.00     0.054 A 
HETATM   16  C   UNL     1      24.232  48.824  48.969  1.00  0.00     0.049 A 
HETATM   17 CL   UNL     1      22.551  48.514  49.207  1.00  0.00    -0.083 Cl
HETATM   18  C   UNL     1      24.581  49.921  48.174  1.00  0.00     0.025 A 
HETATM   19  C   UNL     1      25.924  50.255  47.983  1.00  0.00     0.002 A 
HETATM   20  C   UNL     1      26.926  49.494  48.582  1.00  0.00     0.001 A 
HETATM   21  C   UNL     1      26.587  48.396  49.376  1.00  0.00     0.019 A 
ENDBRANCH  12  15
ENDBRANCH   9  11
ENDBRANCH   7   9
ENDBRANCH   4   7
BRANCH   5  22
HETATM   22  C   UNL     1      24.830  42.738  49.729  1.00  0.00     0.254 C 
HETATM   23  N   UNL     1      25.203  43.598  48.739  1.00  0.00    -0.366 N 
HETATM   24  H   UNL     1      26.120  44.020  48.692  1.00  0.00     0.159 HD
HETATM   25  H   UNL     1      24.593  43.695  47.939  1.00  0.00     0.159 HD
HETATM   26  O   UNL     1      23.778  42.113  49.644  1.00  0.00    -0.268 OA
ENDBRANCH   5  22
BRANCH   1  27
HETATM   27  S   UNL     1      28.652  41.163  53.186  1.00  0.00    -0.112 SA
BRANCH  27  28
HETATM   28  C   UNL     1      29.893  42.487  53.098  1.00  0.00     0.076 C 
HETATM   29  C   UNL     1      30.143  43.056  54.483  1.00  0.00     0.016 C 
ENDBRANCH  27  28
ENDBRANCH   1  27
BRANCH   6  30
HETATM   30  C   UNL     1      27.039  40.333  50.273  1.00  0.00     0.253 C 
HETATM   31  N   UNL     1      26.202  39.262  50.366  1.00  0.00    -0.366 N 
HETATM   32  H   UNL     1      25.491  39.181  51.088  1.00  0.00     0.159 HD
HETATM   33  H   UNL     1      26.487  38.418  49.894  1.00  0.00     0.159 HD
HETATM   34  O   UNL     1      28.021  40.234  49.542  1.00  0.00    -0.268 OA
ENDBRANCH   6  30
TORSDOF 8
ENDMDL
MODEL 7
REMARK VINA RESULT:      -7.5      3.917      6.227
REMARK  8 active torsions:
REMARK  status: ('A' for Active; 'I' for Inactive)
REMARK    1  A    between atoms: C_2  and  S_3 
REMARK    2  A    between atoms: S_3  and  C_4 
REMARK    3  A    between atoms: C_7  and  N_8 
REMARK    4  A    between atoms: N_8  and  C_9 
REMARK    5  A    between atoms: C_9  and  N_10 
REMARK       I    between atoms: N_10  and  C_11 
REMARK    6  A    between atoms: C_11  and  C_12 
REMARK    7  A    between atoms: C_21  and  C_22 
REMARK       I    between atoms: C_22  and  N_23 
REMARK    8  A    between atoms: C_25  and  C_26 
REMARK       I    between atoms: C_26  and  N_27 
ROOT
HETATM    1  C   UNL     1      25.436  41.499  50.145  1.00  0.00     0.088 A 
HETATM    2  N   UNL     1      25.731  42.255  51.235  1.00  0.00    -0.335 N 
HETATM    3  H   UNL     1      26.384  41.983  51.956  1.00  0.00     0.168 HD
HETATM    4  C   UNL     1      24.992  43.402  51.239  1.00  0.00     0.125 A 
HETATM    5  C   UNL     1      24.236  43.412  50.065  1.00  0.00     0.094 A 
HETATM    6  C   UNL     1      24.495  42.157  49.367  1.00  0.00     0.084 A 
ENDROOT
BRANCH   4   7
HETATM    7  N   UNL     1      25.032  44.339  52.262  1.00  0.00    -0.318 N 
HETATM    8  H   UNL     1      24.409  44.167  53.056  1.00  0.00     0.170 HD
BRANCH   7   9
HETATM    9  C   UNL     1      25.866  45.427  52.408  1.00  0.00     0.180 C 
HETATM   10  S   UNL     1      25.701  46.975  51.793  1.00  0.00    -0.040 SA
BRANCH   9  11
HETATM   11  N   UNL     1      26.999  45.193  53.171  1.00  0.00    -0.299 N 
HETATM   12  C   UNL     1      27.141  44.368  54.279  1.00  0.00     0.259 C 
HETATM   13  O   UNL     1      26.221  43.737  54.786  1.00  0.00    -0.267 OA
HETATM   14  H   UNL     1      27.812  45.701  52.843  1.00  0.00     0.171 HD
BRANCH  12  15
HETATM   15  C   UNL     1      28.506  44.324  54.852  1.00  0.00     0.054 A 
HETATM   16  C   UNL     1      29.334  43.209  54.675  1.00  0.00     0.049 A 
HETATM   17 CL   UNL     1      28.873  41.841  53.729  1.00  0.00    -0.083 Cl
HETATM   18  C   UNL     1      30.614  43.205  55.237  1.00  0.00     0.025 A 
HETATM   19  C   UNL     1      31.066  44.304  55.972  1.00  0.00     0.002 A 
HETATM   20  C   UNL     1      30.240  45.411  56.153  1.00  0.00     0.001 A 
HETATM   21  C   UNL     1      28.959  45.424  55.598  1.00  0.00     0.019 A 
ENDBRANCH  12  15
ENDBRANCH   9  11
ENDBRANCH   7   9
ENDBRANCH   4   7
BRANCH   5  22
HETATM   22  C   UNL     1      23.330  44.483  49.666  1.00  0.00     0.254 C 
HETATM   23  N   UNL     1      22.009  44.281  49.938  1.00  0.00    -0.366 N 
HETATM   24  H   UNL     1      21.673  43.508  50.496  1.00  0.00     0.159 HD
HETATM   25  H   UNL     1      21.357  45.016  49.703  1.00  0.00     0.159 HD
HETATM   26  O   UNL     1      23.702  45.528  49.143  1.00  0.00    -0.268 OA
ENDBRANCH   5  22
BRANCH   1  27
HETATM   27  S   UNL     1      26.292  39.995  50.018  1.00  0.00    -0.112 SA
BRANCH  27  28
HETATM   28  C   UNL     1      27.976  40.536  50.439  1.00  0.00     0.076 C 
HETATM   29  C   UNL     1      28.890  39.331  50.565  1.00  0.00     0.016 C 
ENDBRANCH  27  28
ENDBRANCH   1  27
BRANCH   6  30
HETATM   30  C   UNL     1      23.966  41.635  48.102  1.00  0.00     0.253 C 
HETATM   31  N   UNL     1      24.685  41.863  46.967  1.00  0.00    -0.366 N 
HETATM   32  H   UNL     1      25.455  42.525  46.927  1.00  0.00     0.159 HD
HETATM   33  H   UNL     1      24.259  41.589  46.094  1.00  0.00     0.159 HD
HETATM   34  O   UNL     1      22.908  41.022  47.999  1.00  0.00    -0.268 OA
ENDBRANCH   6  30
TORSDOF 8
ENDMDL
MODEL 8
REMARK VINA RESULT:      -7.4      2.924      7.750
REMARK  8 active torsions:
REMARK  status: ('A' for Active; 'I' for Inactive)
REMARK    1  A    between atoms: C_2  and  S_3 
REMARK    2  A    between atoms: S_3  and  C_4 
REMARK    3  A    between atoms: C_7  and  N_8 
REMARK    4  A    between atoms: N_8  and  C_9 
REMARK    5  A    between atoms: C_9  and  N_10 
REMARK       I    between atoms: N_10  and  C_11 
REMARK    6  A    between atoms: C_11  and  C_12 
REMARK    7  A    between atoms: C_21  and  C_22 
REMARK       I    between atoms: C_22  and  N_23 
REMARK    8  A    between atoms: C_25  and  C_26 
REMARK       I    between atoms: C_26  and  N_27 
ROOT
HETATM    1  C   UNL     1      27.208  44.186  52.841  1.00  0.00     0.088 A 
HETATM    2  N   UNL     1      26.531  44.959  51.952  1.00  0.00    -0.335 N 
HETATM    3  H   UNL     1      26.202  45.895  52.147  1.00  0.00     0.168 HD
HETATM    4  C   UNL     1      26.319  44.281  50.788  1.00  0.00     0.125 A 
HETATM    5  C   UNL     1      26.945  43.039  50.911  1.00  0.00     0.094 A 
HETATM    6  C   UNL     1      27.495  42.959  52.260  1.00  0.00     0.084 A 
ENDROOT
BRANCH   4   7
HETATM    7  N   UNL     1      25.596  44.794  49.720  1.00  0.00    -0.318 N 
HETATM    8  H   UNL     1      26.135  45.027  48.881  1.00  0.00     0.170 HD
BRANCH   7   9
HETATM    9  C   UNL     1      24.233  44.949  49.592  1.00  0.00     0.180 C 
HETATM   10  S   UNL     1      23.017  43.814  49.787  1.00  0.00    -0.040 SA
BRANCH   9  11
HETATM   11  N   UNL     1      23.821  46.227  49.250  1.00  0.00    -0.299 N 
HETATM   12  C   UNL     1      24.094  47.426  49.897  1.00  0.00     0.259 C 
HETATM   13  O   UNL     1      24.734  47.512  50.939  1.00  0.00    -0.267 OA
HETATM   14  H   UNL     1      23.255  46.253  48.410  1.00  0.00     0.171 HD
BRANCH  12  15
HETATM   15  C   UNL     1      23.519  48.627  49.251  1.00  0.00     0.054 A 
HETATM   16  C   UNL     1      24.336  49.599  48.662  1.00  0.00     0.049 A 
HETATM   17 CL   UNL     1      26.053  49.450  48.573  1.00  0.00    -0.083 Cl
HETATM   18  C   UNL     1      23.753  50.722  48.066  1.00  0.00     0.025 A 
HETATM   19  C   UNL     1      22.364  50.876  48.060  1.00  0.00     0.002 A 
HETATM   20  C   UNL     1      21.551  49.912  48.652  1.00  0.00     0.001 A 
HETATM   21  C   UNL     1      22.124  48.789  49.251  1.00  0.00     0.019 A 
ENDBRANCH  12  15
ENDBRANCH   9  11
ENDBRANCH   7   9
ENDBRANCH   4   7
BRANCH   5  22
HETATM   22  C   UNL     1      26.983  42.018  49.871  1.00  0.00     0.254 C 
HETATM   23  N   UNL     1      26.620  40.760  50.254  1.00  0.00    -0.366 N 
HETATM   24  H   UNL     1      26.221  40.554  51.159  1.00  0.00     0.159 HD
HETATM   25  H   UNL     1      26.606  40.034  49.551  1.00  0.00     0.159 HD
HETATM   26  O   UNL     1      27.290  42.246  48.706  1.00  0.00    -0.268 OA
ENDBRANCH   5  22
BRANCH   1  27
HETATM   27  S   UNL     1      27.533  44.916  54.380  1.00  0.00    -0.112 SA
BRANCH  27  28
HETATM   28  C   UNL     1      26.477  46.391  54.277  1.00  0.00     0.076 C 
HETATM   29  C   UNL     1      27.226  47.602  54.804  1.00  0.00     0.016 C 
ENDBRANCH  27  28
ENDBRANCH   1  27
BRANCH   6  30
HETATM   30  C   UNL     1      28.239  41.887  52.932  1.00  0.00     0.253 C 
HETATM   31  N   UNL     1      27.528  40.949  53.618  1.00  0.00    -0.366 N 
HETATM   32  H   UNL     1      26.542  41.060  53.841  1.00  0.00     0.159 HD
HETATM   33  H   UNL     1      28.056  40.280  54.158  1.00  0.00     0.159 HD
HETATM   34  O   UNL     1      29.463  41.792  52.929  1.00  0.00    -0.268 OA
ENDBRANCH   6  30
TORSDOF 8
ENDMDL
MODEL 9
REMARK VINA RESULT:      -7.1      3.285      4.482
REMARK  8 active torsions:
REMARK  status: ('A' for Active; 'I' for Inactive)
REMARK    1  A    between atoms: C_2  and  S_3 
REMARK    2  A    between atoms: S_3  and  C_4 
REMARK    3  A    between atoms: C_7  and  N_8 
REMARK    4  A    between atoms: N_8  and  C_9 
REMARK    5  A    between atoms: C_9  and  N_10 
REMARK       I    between atoms: N_10  and  C_11 
REMARK    6  A    between atoms: C_11  and  C_12 
REMARK    7  A    between atoms: C_21  and  C_22 
REMARK       I    between atoms: C_22  and  N_23 
REMARK    8  A    between atoms: C_25  and  C_26 
REMARK       I    between atoms: C_26  and  N_27 
ROOT
HETATM    1  C   UNL     1      23.934  45.197  49.427  1.00  0.00     0.088 A 
HETATM    2  N   UNL     1      24.490  44.483  50.441  1.00  0.00    -0.335 N 
HETATM    3  H   UNL     1      24.957  44.895  51.237  1.00  0.00     0.168 HD
HETATM    4  C   UNL     1      24.369  43.144  50.210  1.00  0.00     0.125 A 
HETATM    5  C   UNL     1      23.645  42.991  49.026  1.00  0.00     0.094 A 
HETATM    6  C   UNL     1      23.390  44.326  48.493  1.00  0.00     0.084 A 
ENDROOT
BRANCH   4   7
HETATM    7  N   UNL     1      24.901  42.169  51.043  1.00  0.00    -0.318 N 
HETATM    8  H   UNL     1      24.250  41.737  51.704  1.00  0.00     0.170 HD
BRANCH   7   9
HETATM    9  C   UNL     1      26.168  41.628  51.042  1.00  0.00     0.180 C 
HETATM   10  S   UNL     1      26.803  40.423  50.068  1.00  0.00    -0.040 SA
BRANCH   9  11
HETATM   11  N   UNL     1      27.029  42.163  51.988  1.00  0.00    -0.299 N 
HETATM   12  C   UNL     1      27.651  43.404  51.988  1.00  0.00     0.259 C 
HETATM   13  O   UNL     1      27.552  44.220  51.078  1.00  0.00    -0.267 OA
HETATM   14  H   UNL     1      27.197  41.542  52.770  1.00  0.00     0.171 HD
BRANCH  12  15
HETATM   15  C   UNL     1      28.497  43.678  53.172  1.00  0.00     0.054 A 
HETATM   16  C   UNL     1      28.167  44.687  54.084  1.00  0.00     0.049 A 
HETATM   17 CL   UNL     1      26.733  45.638  53.952  1.00  0.00    -0.083 Cl
HETATM   18  C   UNL     1      28.995  44.917  55.187  1.00  0.00     0.025 A 
HETATM   19  C   UNL     1      30.146  44.147  55.379  1.00  0.00     0.002 A 
HETATM   20  C   UNL     1      30.476  43.146  54.468  1.00  0.00     0.001 A 
HETATM   21  C   UNL     1      29.657  42.911  53.362  1.00  0.00     0.019 A 
ENDBRANCH  12  15
ENDBRANCH   9  11
ENDBRANCH   7   9
ENDBRANCH   4   7
BRANCH   5  22
HETATM   22  C   UNL     1      23.269  41.711  48.438  1.00  0.00     0.254 C 
HETATM   23  N   UNL     1      24.230  41.087  47.698  1.00  0.00    -0.366 N 
HETATM   24  H   UNL     1      25.187  41.407  47.657  1.00  0.00     0.159 HD
HETATM   25  H   UNL     1      24.013  40.183  47.302  1.00  0.00     0.159 HD
HETATM   26  O   UNL     1      22.174  41.184  48.603  1.00  0.00    -0.268 OA
ENDBRANCH   5  22
BRANCH   1  27
HETATM   27  S   UNL     1      24.030  46.922  49.579  1.00  0.00    -0.112 SA
BRANCH  27  28
HETATM   28  C   UNL     1      25.297  47.070  50.874  1.00  0.00     0.076 C 
HETATM   29  C   UNL     1      26.508  47.809  50.331  1.00  0.00     0.016 C 
ENDBRANCH  27  28
ENDBRANCH   1  27
BRANCH   6  30
HETATM   30  C   UNL     1      22.690  44.758  47.279  1.00  0.00     0.253 C 
HETATM   31  N   UNL     1      21.544  45.480  47.425  1.00  0.00    -0.366 N 
HETATM   32  H   UNL     1      21.061  45.572  48.314  1.00  0.00     0.159 HD
HETATM   33  H   UNL     1      21.021  45.681  46.586  1.00  0.00     0.159 HD
HETATM   34  O   UNL     1      23.061  44.492  46.139  1.00  0.00    -0.268 OA
ENDBRANCH   6  30
TORSDOF 8
ENDMDL
MODEL 10
REMARK VINA RESULT:      -7.1      4.253      7.245
REMARK  8 active torsions:
REMARK  status: ('A' for Active; 'I' for Inactive)
REMARK    1  A    between atoms: C_2  and  S_3 
REMARK    2  A    between atoms: S_3  and  C_4 
REMARK    3  A    between atoms: C_7  and  N_8 
REMARK    4  A    between atoms: N_8  and  C_9 
REMARK    5  A    between atoms: C_9  and  N_10 
REMARK       I    between atoms: N_10  and  C_11 
REMARK    6  A    between atoms: C_11  and  C_12 
REMARK    7  A    between atoms: C_21  and  C_22 
REMARK       I    between atoms: C_22  and  N_23 
REMARK    8  A    between atoms: C_25  and  C_26 
REMARK       I    between atoms: C_26  and  N_27 
ROOT
HETATM    1  C   UNL     1      27.460  40.742  51.267  1.00  0.00     0.088 A 
HETATM    2  N   UNL     1      26.747  41.801  51.732  1.00  0.00    -0.335 N 
HETATM    3  H   UNL     1      26.991  42.334  52.556  1.00  0.00     0.168 HD
HETATM    4  C   UNL     1      25.641  42.013  50.962  1.00  0.00     0.125 A 
HETATM    5  C   UNL     1      25.681  41.088  49.917  1.00  0.00     0.094 A 
HETATM    6  C   UNL     1      26.845  40.234  50.132  1.00  0.00     0.084 A 
ENDROOT
BRANCH   4   7
HETATM    7  N   UNL     1      24.690  42.986  51.234  1.00  0.00    -0.318 N 
HETATM    8  H   UNL     1      23.785  42.650  51.574  1.00  0.00     0.170 HD
BRANCH   7   9
HETATM    9  C   UNL     1      24.821  44.358  51.201  1.00  0.00     0.180 C 
HETATM   10  S   UNL     1      24.088  45.466  50.182  1.00  0.00    -0.040 SA
BRANCH   9  11
HETATM   11  N   UNL     1      25.686  44.882  52.149  1.00  0.00    -0.299 N 
HETATM   12  C   UNL     1      25.642  44.746  53.530  1.00  0.00     0.259 C 
HETATM   13  O   UNL     1      24.757  44.148  54.132  1.00  0.00    -0.267 OA
HETATM   14  H   UNL     1      26.440  45.424  51.744  1.00  0.00     0.171 HD
BRANCH  12  15
HETATM   15  C   UNL     1      26.742  45.418  54.258  1.00  0.00     0.054 A 
HETATM   16  C   UNL     1      26.786  46.811  54.385  1.00  0.00     0.049 A 
HETATM   17 CL   UNL     1      25.546  47.847  53.779  1.00  0.00    -0.083 Cl
HETATM   18  C   UNL     1      27.846  47.407  55.076  1.00  0.00     0.025 A 
HETATM   19  C   UNL     1      28.856  46.620  55.634  1.00  0.00     0.002 A 
HETATM   20  C   UNL     1      28.815  45.234  55.502  1.00  0.00     0.001 A 
HETATM   21  C   UNL     1      27.763  44.629  54.812  1.00  0.00     0.019 A 
ENDBRANCH  12  15
ENDBRANCH   9  11
ENDBRANCH   7   9
ENDBRANCH   4   7
BRANCH   5  22
HETATM   22  C   UNL     1      24.694  40.995  48.848  1.00  0.00     0.254 C 
HETATM   23  N   UNL     1      24.818  39.926  48.010  1.00  0.00    -0.366 N 
HETATM   24  H   UNL     1      25.461  39.165  48.179  1.00  0.00     0.159 HD
HETATM   25  H   UNL     1      24.131  39.815  47.276  1.00  0.00     0.159 HD
HETATM   26  O   UNL     1      23.777  41.797  48.699  1.00  0.00    -0.268 OA
ENDBRANCH   5  22
BRANCH   1  27
HETATM   27  S   UNL     1      28.891  40.345  52.164  1.00  0.00    -0.112 SA
BRANCH  27  28
HETATM   28  C   UNL     1      28.937  41.727  53.343  1.00  0.00     0.076 C 
HETATM   29  C   UNL     1      30.149  42.600  53.069  1.00  0.00     0.016 C 
ENDBRANCH  27  28
ENDBRANCH   1  27
BRANCH   6  30
HETATM   30  C   UNL     1      27.360  39.099  49.357  1.00  0.00     0.253 C 
HETATM   31  N   UNL     1      27.286  37.859  49.916  1.00  0.00    -0.366 N 
HETATM   32  H   UNL     1      27.070  37.710  50.897  1.00  0.00     0.159 HD
HETATM   33  H   UNL     1      27.736  37.107  49.417  1.00  0.00     0.159 HD
HETATM   34  O   UNL     1      27.869  39.201  48.245  1.00  0.00    -0.268 OA
ENDBRANCH   6  30
TORSDOF 8
ENDMDL
