MODEL 1
REMARK VINA RESULT:      -7.8      0.000      0.000
REMARK  5 active torsions:
REMARK  status: ('A' for Active; 'I' for Inactive)
REMARK    1  A    between atoms: C_2  and  O_3 
REMARK    2  A    between atoms: O_3  and  C_4 
REMARK    3  A    between atoms: C_9  and  C_10 
REMARK       I    between atoms: C_10  and  N_11 
REMARK    4  A    between atoms: N_11  and  C_12 
REMARK    5  A    between atoms: C_12  and  C_13 
ROOT
HETATM    1  C   UNL     1      29.899  43.433  53.989  1.00  0.00     0.256 C 
HETATM    2  N   UNL     1      28.652  43.735  53.501  1.00  0.00    -0.348 N 
HETATM    3  O   UNL     1      30.707  42.760  53.355  1.00  0.00    -0.267 OA
HETATM    4  H   UNL     1      28.028  44.299  54.069  1.00  0.00     0.163 HD
ENDROOT
BRANCH   1   5
HETATM    5  C   UNL     1      30.266  43.956  55.338  1.00  0.00     0.084 A 
HETATM    6  C   UNL     1      29.887  45.198  55.852  1.00  0.00     0.180 A 
HETATM    7  N   UNL     1      30.242  45.640  57.086  1.00  0.00    -0.236 NA
HETATM    8  C   UNL     1      31.010  44.823  57.839  1.00  0.00     0.119 A 
HETATM    9  C   UNL     1      31.442  43.579  57.423  1.00  0.00     0.020 A 
HETATM   10  C   UNL     1      31.064  43.142  56.156  1.00  0.00     0.023 A 
BRANCH   6  11
HETATM   11  O   UNL     1      29.093  46.025  55.079  1.00  0.00    -0.334 OA
BRANCH  11  12
HETATM   12  C   UNL     1      27.973  46.579  55.772  1.00  0.00     0.173 C 
HETATM   13  C   UNL     1      27.479  47.768  54.967  1.00  0.00     0.034 C 
ENDBRANCH  11  12
ENDBRANCH   6  11
ENDBRANCH   1   5
BRANCH   2  14
HETATM   14  C   UNL     1      28.182  43.301  52.198  1.00  0.00     0.114 C 
HETATM   15  C   UNL     1      27.494  41.935  52.278  1.00  0.00     0.037 C 
BRANCH  14  16
HETATM   16  C   UNL     1      27.285  44.379  51.611  1.00  0.00    -0.036 A 
HETATM   17  C   UNL     1      27.205  44.603  50.225  1.00  0.00     0.010 A 
HETATM   18  C   UNL     1      26.344  45.573  49.707  1.00  0.00     0.019 A 
HETATM   19  C   UNL     1      25.547  46.321  50.569  1.00  0.00     0.011 A 
HETATM   20 BR   UNL     1      24.375  47.628  49.868  1.00  0.00    -0.051 Br
HETATM   21  C   UNL     1      25.600  46.107  51.943  1.00  0.00     0.019 A 
HETATM   22  C   UNL     1      26.463  45.137  52.460  1.00  0.00     0.010 A 
ENDBRANCH  14  16
ENDBRANCH   2  14
TORSDOF 5
ENDMDL
MODEL 2
REMARK VINA RESULT:      -7.5      3.209      6.329
REMARK  5 active torsions:
REMARK  status: ('A' for Active; 'I' for Inactive)
REMARK    1  A    between atoms: C_2  and  O_3 
REMARK    2  A    between atoms: O_3  and  C_4 
REMARK    3  A    between atoms: C_9  and  C_10 
REMARK       I    between atoms: C_10  and  N_11 
REMARK    4  A    between atoms: N_11  and  C_12 
REMARK    5  A    between atoms: C_12  and  C_13 
ROOT
HETATM    1  C   UNL     1      26.386  44.375  52.615  1.00  0.00     0.256 C 
HETATM    2  N   UNL     1      27.757  44.302  52.603  1.00  0.00    -0.348 N 
HETATM    3  O   UNL     1      25.693  43.615  53.287  1.00  0.00    -0.267 OA
HETATM    4  H   UNL     1      28.277  44.959  52.032  1.00  0.00     0.163 HD
ENDROOT
BRANCH   1   5
HETATM    5  C   UNL     1      25.737  45.425  51.777  1.00  0.00     0.084 A 
HETATM    6  C   UNL     1      25.818  46.801  52.002  1.00  0.00     0.180 A 
HETATM    7  N   UNL     1      25.209  47.727  51.217  1.00  0.00    -0.236 NA
HETATM    8  C   UNL     1      24.486  47.274  50.171  1.00  0.00     0.119 A 
HETATM    9  C   UNL     1      24.339  45.935  49.864  1.00  0.00     0.020 A 
HETATM   10  C   UNL     1      24.973  45.001  50.679  1.00  0.00     0.023 A 
BRANCH   6  11
HETATM   11  O   UNL     1      26.567  47.258  53.070  1.00  0.00    -0.334 OA
BRANCH  11  12
HETATM   12  C   UNL     1      25.795  47.618  54.218  1.00  0.00     0.173 C 
HETATM   13  C   UNL     1      26.719  48.336  55.185  1.00  0.00     0.034 C 
ENDBRANCH  11  12
ENDBRANCH   6  11
ENDBRANCH   1   5
BRANCH   2  14
HETATM   14  C   UNL     1      28.508  43.337  53.386  1.00  0.00     0.114 C 
HETATM   15  C   UNL     1      29.548  42.609  52.528  1.00  0.00     0.037 C 
BRANCH  14  16
HETATM   16  C   UNL     1      29.122  44.042  54.585  1.00  0.00    -0.036 A 
HETATM   17  C   UNL     1      28.517  45.165  55.174  1.00  0.00     0.010 A 
HETATM   18  C   UNL     1      29.080  45.772  56.300  1.00  0.00     0.019 A 
HETATM   19  C   UNL     1      30.248  45.253  56.852  1.00  0.00     0.011 A 
HETATM   20 BR   UNL     1      31.006  46.069  58.380  1.00  0.00    -0.051 Br
HETATM   21  C   UNL     1      30.857  44.134  56.293  1.00  0.00     0.019 A 
HETATM   22  C   UNL     1      30.293  43.529  55.167  1.00  0.00     0.010 A 
ENDBRANCH  14  16
ENDBRANCH   2  14
TORSDOF 5
ENDMDL
MODEL 3
REMARK VINA RESULT:      -7.4      3.595      6.568
REMARK  5 active torsions:
REMARK  status: ('A' for Active; 'I' for Inactive)
REMARK    1  A    between atoms: C_2  and  O_3 
REMARK    2  A    between atoms: O_3  and  C_4 
REMARK    3  A    between atoms: C_9  and  C_10 
REMARK       I    between atoms: C_10  and  N_11 
REMARK    4  A    between atoms: N_11  and  C_12 
REMARK    5  A    between atoms: C_12  and  C_13 
ROOT
HETATM    1  C   UNL     1      25.134  44.205  51.139  1.00  0.00     0.256 C 
HETATM    2  N   UNL     1      26.477  43.924  51.180  1.00  0.00    -0.348 N 
HETATM    3  O   UNL     1      24.283  43.402  51.512  1.00  0.00    -0.267 OA
HETATM    4  H   UNL     1      27.134  44.629  50.861  1.00  0.00     0.163 HD
ENDROOT
BRANCH   1   5
HETATM    5  C   UNL     1      24.716  45.541  50.622  1.00  0.00     0.084 A 
HETATM    6  C   UNL     1      25.206  46.769  51.070  1.00  0.00     0.180 A 
HETATM    7  N   UNL     1      24.799  47.966  50.575  1.00  0.00    -0.236 NA
HETATM    8  C   UNL     1      23.863  47.948  49.602  1.00  0.00     0.119 A 
HETATM    9  C   UNL     1      23.311  46.789  49.092  1.00  0.00     0.020 A 
HETATM   10  C   UNL     1      23.744  45.572  49.610  1.00  0.00     0.023 A 
BRANCH   6  11
HETATM   11  O   UNL     1      26.170  46.779  52.061  1.00  0.00    -0.334 OA
BRANCH  11  12
HETATM   12  C   UNL     1      25.672  47.102  53.361  1.00  0.00     0.173 C 
HETATM   13  C   UNL     1      26.868  47.379  54.255  1.00  0.00     0.034 C 
ENDBRANCH  11  12
ENDBRANCH   6  11
ENDBRANCH   1   5
BRANCH   2  14
HETATM   14  C   UNL     1      27.012  42.669  51.675  1.00  0.00     0.114 C 
HETATM   15  C   UNL     1      27.591  41.820  50.540  1.00  0.00     0.037 C 
BRANCH  14  16
HETATM   16  C   UNL     1      28.026  42.961  52.770  1.00  0.00    -0.036 A 
HETATM   17  C   UNL     1      29.354  42.507  52.690  1.00  0.00     0.010 A 
HETATM   18  C   UNL     1      30.278  42.822  53.690  1.00  0.00     0.019 A 
HETATM   19  C   UNL     1      29.884  43.602  54.773  1.00  0.00     0.011 A 
HETATM   20 BR   UNL     1      31.136  44.035  56.122  1.00  0.00    -0.051 Br
HETATM   21  C   UNL     1      28.578  44.073  54.866  1.00  0.00     0.019 A 
HETATM   22  C   UNL     1      27.655  43.757  53.866  1.00  0.00     0.010 A 
ENDBRANCH  14  16
ENDBRANCH   2  14
TORSDOF 5
ENDMDL
MODEL 4
REMARK VINA RESULT:      -7.3      3.412      7.102
REMARK  5 active torsions:
REMARK  status: ('A' for Active; 'I' for Inactive)
REMARK    1  A    between atoms: C_2  and  O_3 
REMARK    2  A    between atoms: O_3  and  C_4 
REMARK    3  A    between atoms: C_9  and  C_10 
REMARK       I    between atoms: C_10  and  N_11 
REMARK    4  A    between atoms: N_11  and  C_12 
REMARK    5  A    between atoms: C_12  and  C_13 
ROOT
HETATM    1  C   UNL     1      26.048  45.729  52.048  1.00  0.00     0.256 C 
HETATM    2  N   UNL     1      26.541  45.493  53.308  1.00  0.00    -0.348 N 
HETATM    3  O   UNL     1      26.219  46.795  51.464  1.00  0.00    -0.267 OA
HETATM    4  H   UNL     1      26.371  44.590  53.739  1.00  0.00     0.163 HD
ENDROOT
BRANCH   1   5
HETATM    5  C   UNL     1      25.282  44.633  51.383  1.00  0.00     0.084 A 
HETATM    6  C   UNL     1      25.629  43.281  51.401  1.00  0.00     0.180 A 
HETATM    7  N   UNL     1      24.907  42.312  50.781  1.00  0.00    -0.236 NA
HETATM    8  C   UNL     1      23.801  42.698  50.110  1.00  0.00     0.119 A 
HETATM    9  C   UNL     1      23.373  44.009  50.028  1.00  0.00     0.020 A 
HETATM   10  C   UNL     1      24.125  44.987  50.673  1.00  0.00     0.023 A 
BRANCH   6  11
HETATM   11  O   UNL     1      26.759  42.892  52.097  1.00  0.00    -0.334 OA
BRANCH  11  12
HETATM   12  C   UNL     1      27.480  41.817  51.491  1.00  0.00     0.173 C 
HETATM   13  C   UNL     1      28.344  41.182  52.566  1.00  0.00     0.034 C 
ENDBRANCH  11  12
ENDBRANCH   6  11
ENDBRANCH   1   5
BRANCH   2  14
HETATM   14  C   UNL     1      27.314  46.469  54.053  1.00  0.00     0.114 C 
HETATM   15  C   UNL     1      26.421  47.300  54.980  1.00  0.00     0.037 C 
BRANCH  14  16
HETATM   16  C   UNL     1      28.431  45.754  54.797  1.00  0.00    -0.036 A 
HETATM   17  C   UNL     1      28.996  46.280  55.971  1.00  0.00     0.010 A 
HETATM   18  C   UNL     1      29.994  45.584  56.657  1.00  0.00     0.019 A 
HETATM   19  C   UNL     1      30.428  44.350  56.182  1.00  0.00     0.011 A 
HETATM   20 BR   UNL     1      31.773  43.405  57.115  1.00  0.00    -0.051 Br
HETATM   21  C   UNL     1      29.873  43.804  55.028  1.00  0.00     0.019 A 
HETATM   22  C   UNL     1      28.876  44.501  54.342  1.00  0.00     0.010 A 
ENDBRANCH  14  16
ENDBRANCH   2  14
TORSDOF 5
ENDMDL
MODEL 5
REMARK VINA RESULT:      -7.0      2.788      5.839
REMARK  5 active torsions:
REMARK  status: ('A' for Active; 'I' for Inactive)
REMARK    1  A    between atoms: C_2  and  O_3 
REMARK    2  A    between atoms: O_3  and  C_4 
REMARK    3  A    between atoms: C_9  and  C_10 
REMARK       I    between atoms: C_10  and  N_11 
REMARK    4  A    between atoms: N_11  and  C_12 
REMARK    5  A    between atoms: C_12  and  C_13 
ROOT
HETATM    1  C   UNL     1      28.145  41.752  52.411  1.00  0.00     0.256 C 
HETATM    2  N   UNL     1      28.767  42.906  52.819  1.00  0.00    -0.348 N 
HETATM    3  O   UNL     1      27.766  40.895  53.204  1.00  0.00    -0.267 OA
HETATM    4  H   UNL     1      29.055  43.581  52.117  1.00  0.00     0.163 HD
ENDROOT
BRANCH   1   5
HETATM    5  C   UNL     1      27.928  41.556  50.948  1.00  0.00     0.084 A 
HETATM    6  C   UNL     1      27.222  42.425  50.113  1.00  0.00     0.180 A 
HETATM    7  N   UNL     1      27.044  42.210  48.784  1.00  0.00    -0.236 NA
HETATM    8  C   UNL     1      27.580  41.087  48.260  1.00  0.00     0.119 A 
HETATM    9  C   UNL     1      28.293  40.162  48.999  1.00  0.00     0.020 A 
HETATM   10  C   UNL     1      28.467  40.402  50.359  1.00  0.00     0.023 A 
BRANCH   6  11
HETATM   11  O   UNL     1      26.683  43.577  50.654  1.00  0.00    -0.334 OA
BRANCH  11  12
HETATM   12  C   UNL     1      27.237  44.786  50.131  1.00  0.00     0.173 C 
HETATM   13  C   UNL     1      26.097  45.773  49.954  1.00  0.00     0.034 C 
ENDBRANCH  11  12
ENDBRANCH   6  11
ENDBRANCH   1   5
BRANCH   2  14
HETATM   14  C   UNL     1      29.022  43.222  54.212  1.00  0.00     0.114 C 
HETATM   15  C   UNL     1      30.519  43.175  54.533  1.00  0.00     0.037 C 
BRANCH  14  16
HETATM   16  C   UNL     1      28.392  44.567  54.538  1.00  0.00    -0.036 A 
HETATM   17  C   UNL     1      27.200  44.995  53.928  1.00  0.00     0.010 A 
HETATM   18  C   UNL     1      26.620  46.218  54.273  1.00  0.00     0.019 A 
HETATM   19  C   UNL     1      27.221  47.020  55.240  1.00  0.00     0.011 A 
HETATM   20 BR   UNL     1      26.431  48.671  55.713  1.00  0.00    -0.051 Br
HETATM   21  C   UNL     1      28.394  46.610  55.866  1.00  0.00     0.019 A 
HETATM   22  C   UNL     1      28.974  45.387  55.519  1.00  0.00     0.010 A 
ENDBRANCH  14  16
ENDBRANCH   2  14
TORSDOF 5
ENDMDL
MODEL 6
REMARK VINA RESULT:      -7.0      1.766      2.471
REMARK  5 active torsions:
REMARK  status: ('A' for Active; 'I' for Inactive)
REMARK    1  A    between atoms: C_2  and  O_3 
REMARK    2  A    between atoms: O_3  and  C_4 
REMARK    3  A    between atoms: C_9  and  C_10 
REMARK       I    between atoms: C_10  and  N_11 
REMARK    4  A    between atoms: N_11  and  C_12 
REMARK    5  A    between atoms: C_12  and  C_13 
ROOT
HETATM    1  C   UNL     1      27.654  43.608  52.747  1.00  0.00     0.256 C 
HETATM    2  N   UNL     1      26.938  44.632  52.178  1.00  0.00    -0.348 N 
HETATM    3  O   UNL     1      27.548  42.445  52.370  1.00  0.00    -0.267 OA
HETATM    4  H   UNL     1      27.070  45.575  52.530  1.00  0.00     0.163 HD
ENDROOT
BRANCH   1   5
HETATM    5  C   UNL     1      28.589  43.945  53.860  1.00  0.00     0.084 A 
HETATM    6  C   UNL     1      28.385  44.949  54.810  1.00  0.00     0.180 A 
HETATM    7  N   UNL     1      29.262  45.227  55.808  1.00  0.00    -0.236 NA
HETATM    8  C   UNL     1      30.391  44.488  55.866  1.00  0.00     0.119 A 
HETATM    9  C   UNL     1      30.690  43.476  54.973  1.00  0.00     0.020 A 
HETATM   10  C   UNL     1      29.776  43.204  53.959  1.00  0.00     0.023 A 
BRANCH   6  11
HETATM   11  O   UNL     1      27.223  45.695  54.750  1.00  0.00    -0.334 OA
BRANCH  11  12
HETATM   12  C   UNL     1      27.435  47.109  54.727  1.00  0.00     0.173 C 
HETATM   13  C   UNL     1      26.111  47.765  54.376  1.00  0.00     0.034 C 
ENDBRANCH  11  12
ENDBRANCH   6  11
ENDBRANCH   1   5
BRANCH   2  14
HETATM   14  C   UNL     1      26.009  44.439  51.080  1.00  0.00     0.114 C 
HETATM   15  C   UNL     1      24.790  43.620  51.516  1.00  0.00     0.037 C 
BRANCH  14  16
HETATM   16  C   UNL     1      25.633  45.795  50.504  1.00  0.00    -0.036 A 
HETATM   17  C   UNL     1      26.583  46.816  50.330  1.00  0.00     0.010 A 
HETATM   18  C   UNL     1      26.221  48.039  49.762  1.00  0.00     0.019 A 
HETATM   19  C   UNL     1      24.907  48.249  49.353  1.00  0.00     0.011 A 
HETATM   20 BR   UNL     1      24.418  49.902  48.577  1.00  0.00    -0.051 Br
HETATM   21  C   UNL     1      23.952  47.248  49.504  1.00  0.00     0.019 A 
HETATM   22  C   UNL     1      24.316  46.025  50.073  1.00  0.00     0.010 A 
ENDBRANCH  14  16
ENDBRANCH   2  14
TORSDOF 5
ENDMDL
MODEL 7
REMARK VINA RESULT:      -6.7      3.929      7.100
REMARK  5 active torsions:
REMARK  status: ('A' for Active; 'I' for Inactive)
REMARK    1  A    between atoms: C_2  and  O_3 
REMARK    2  A    between atoms: O_3  and  C_4 
REMARK    3  A    between atoms: C_9  and  C_10 
REMARK       I    between atoms: C_10  and  N_11 
REMARK    4  A    between atoms: N_11  and  C_12 
REMARK    5  A    between atoms: C_12  and  C_13 
ROOT
HETATM    1  C   UNL     1      26.620  44.313  51.257  1.00  0.00     0.256 C 
HETATM    2  N   UNL     1      26.750  44.213  52.620  1.00  0.00    -0.348 N 
HETATM    3  O   UNL     1      26.829  45.360  50.652  1.00  0.00    -0.267 OA
HETATM    4  H   UNL     1      26.568  43.320  53.065  1.00  0.00     0.163 HD
ENDROOT
BRANCH   1   5
HETATM    5  C   UNL     1      26.211  43.090  50.504  1.00  0.00     0.084 A 
HETATM    6  C   UNL     1      24.903  42.615  50.387  1.00  0.00     0.180 A 
HETATM    7  N   UNL     1      24.571  41.495  49.694  1.00  0.00    -0.236 NA
HETATM    8  C   UNL     1      25.573  40.814  49.099  1.00  0.00     0.119 A 
HETATM    9  C   UNL     1      26.900  41.197  49.158  1.00  0.00     0.020 A 
HETATM   10  C   UNL     1      27.219  42.349  49.870  1.00  0.00     0.023 A 
BRANCH   6  11
HETATM   11  O   UNL     1      23.881  43.322  50.992  1.00  0.00    -0.334 OA
BRANCH  11  12
HETATM   12  C   UNL     1      22.814  43.679  50.111  1.00  0.00     0.173 C 
HETATM   13  C   UNL     1      23.227  44.944  49.380  1.00  0.00     0.034 C 
ENDBRANCH  11  12
ENDBRANCH   6  11
ENDBRANCH   1   5
BRANCH   2  14
HETATM   14  C   UNL     1      27.156  45.323  53.462  1.00  0.00     0.114 C 
HETATM   15  C   UNL     1      25.982  45.856  54.290  1.00  0.00     0.037 C 
BRANCH  14  16
HETATM   16  C   UNL     1      28.334  44.889  54.320  1.00  0.00    -0.036 A 
HETATM   17  C   UNL     1      28.807  45.677  55.384  1.00  0.00     0.010 A 
HETATM   18  C   UNL     1      29.865  45.238  56.182  1.00  0.00     0.019 A 
HETATM   19  C   UNL     1      30.453  44.002  55.932  1.00  0.00     0.011 A 
HETATM   20 BR   UNL     1      31.881  43.404  57.018  1.00  0.00    -0.051 Br
HETATM   21  C   UNL     1      29.993  43.199  54.893  1.00  0.00     0.019 A 
HETATM   22  C   UNL     1      28.934  43.640  54.094  1.00  0.00     0.010 A 
ENDBRANCH  14  16
ENDBRANCH   2  14
TORSDOF 5
ENDMDL
MODEL 8
REMARK VINA RESULT:      -6.7      2.978      3.930
REMARK  5 active torsions:
REMARK  status: ('A' for Active; 'I' for Inactive)
REMARK    1  A    between atoms: C_2  and  O_3 
REMARK    2  A    between atoms: O_3  and  C_4 
REMARK    3  A    between atoms: C_9  and  C_10 
REMARK       I    between atoms: C_10  and  N_11 
REMARK    4  A    between atoms: N_11  and  C_12 
REMARK    5  A    between atoms: C_12  and  C_13 
ROOT
HETATM    1  C   UNL     1      27.783  43.984  53.509  1.00  0.00     0.256 C 
HETATM    2  N   UNL     1      28.120  43.770  52.195  1.00  0.00    -0.348 N 
HETATM    3  O   UNL     1      26.617  44.008  53.892  1.00  0.00    -0.267 OA
HETATM    4  H   UNL     1      29.102  43.758  51.938  1.00  0.00     0.163 HD
ENDROOT
BRANCH   1   5
HETATM    5  C   UNL     1      28.890  44.190  54.489  1.00  0.00     0.084 A 
HETATM    6  C   UNL     1      29.216  45.406  55.094  1.00  0.00     0.180 A 
HETATM    7  N   UNL     1      30.235  45.554  55.980  1.00  0.00    -0.236 NA
HETATM    8  C   UNL     1      30.965  44.457  56.274  1.00  0.00     0.119 A 
HETATM    9  C   UNL     1      30.728  43.210  55.728  1.00  0.00     0.020 A 
HETATM   10  C   UNL     1      29.677  43.078  54.824  1.00  0.00     0.023 A 
BRANCH   6  11
HETATM   11  O   UNL     1      28.459  46.523  54.794  1.00  0.00    -0.334 OA
BRANCH  11  12
HETATM   12  C   UNL     1      27.636  46.979  55.870  1.00  0.00     0.173 C 
HETATM   13  C   UNL     1      26.599  47.921  55.285  1.00  0.00     0.034 C 
ENDBRANCH  11  12
ENDBRANCH   6  11
ENDBRANCH   1   5
BRANCH   2  14
HETATM   14  C   UNL     1      27.139  43.541  51.151  1.00  0.00     0.114 C 
HETATM   15  C   UNL     1      27.086  44.714  50.167  1.00  0.00     0.037 C 
BRANCH  14  16
HETATM   16  C   UNL     1      27.440  42.215  50.471  1.00  0.00    -0.036 A 
HETATM   17  C   UNL     1      27.106  41.978  49.126  1.00  0.00     0.010 A 
HETATM   18  C   UNL     1      27.428  40.766  48.513  1.00  0.00     0.019 A 
HETATM   19  C   UNL     1      28.098  39.782  49.236  1.00  0.00     0.011 A 
HETATM   20 BR   UNL     1      28.541  38.143  48.403  1.00  0.00    -0.051 Br
HETATM   21  C   UNL     1      28.450  40.000  50.564  1.00  0.00     0.019 A 
HETATM   22  C   UNL     1      28.126  41.213  51.177  1.00  0.00     0.010 A 
ENDBRANCH  14  16
ENDBRANCH   2  14
TORSDOF 5
ENDMDL
MODEL 9
REMARK VINA RESULT:      -6.7      6.472      9.586
REMARK  5 active torsions:
REMARK  status: ('A' for Active; 'I' for Inactive)
REMARK    1  A    between atoms: C_2  and  O_3 
REMARK    2  A    between atoms: O_3  and  C_4 
REMARK    3  A    between atoms: C_9  and  C_10 
REMARK       I    between atoms: C_10  and  N_11 
REMARK    4  A    between atoms: N_11  and  C_12 
REMARK    5  A    between atoms: C_12  and  C_13 
ROOT
HETATM    1  C   UNL     1      22.806  48.469  48.746  1.00  0.00     0.256 C 
HETATM    2  N   UNL     1      22.643  49.374  49.765  1.00  0.00    -0.348 N 
HETATM    3  O   UNL     1      22.684  48.780  47.565  1.00  0.00    -0.267 OA
HETATM    4  H   UNL     1      22.761  49.059  50.723  1.00  0.00     0.163 HD
ENDROOT
BRANCH   1   5
HETATM    5  C   UNL     1      23.147  47.062  49.111  1.00  0.00     0.084 A 
HETATM    6  C   UNL     1      24.175  46.679  49.976  1.00  0.00     0.180 A 
HETATM    7  N   UNL     1      24.456  45.386  50.282  1.00  0.00    -0.236 NA
HETATM    8  C   UNL     1      23.695  44.433  49.703  1.00  0.00     0.119 A 
HETATM    9  C   UNL     1      22.658  44.705  48.830  1.00  0.00     0.020 A 
HETATM   10  C   UNL     1      22.384  46.037  48.532  1.00  0.00     0.023 A 
BRANCH   6  11
HETATM   11  O   UNL     1      24.944  47.662  50.572  1.00  0.00    -0.334 OA
BRANCH  11  12
HETATM   12  C   UNL     1      26.311  47.669  50.154  1.00  0.00     0.173 C 
HETATM   13  C   UNL     1      26.481  48.810  49.166  1.00  0.00     0.034 C 
ENDBRANCH  11  12
ENDBRANCH   6  11
ENDBRANCH   1   5
BRANCH   2  14
HETATM   14  C   UNL     1      22.327  50.773  49.542  1.00  0.00     0.114 C 
HETATM   15  C   UNL     1      23.087  51.333  48.336  1.00  0.00     0.037 C 
BRANCH  14  16
HETATM   16  C   UNL     1      20.820  50.926  49.412  1.00  0.00    -0.036 A 
HETATM   17  C   UNL     1      19.930  50.252  50.266  1.00  0.00     0.010 A 
HETATM   18  C   UNL     1      18.551  50.439  50.152  1.00  0.00     0.019 A 
HETATM   19  C   UNL     1      18.049  51.311  49.189  1.00  0.00     0.011 A 
HETATM   20 BR   UNL     1      16.182  51.571  49.040  1.00  0.00    -0.051 Br
HETATM   21  C   UNL     1      18.912  51.998  48.342  1.00  0.00     0.019 A 
HETATM   22  C   UNL     1      20.292  51.809  48.456  1.00  0.00     0.010 A 
ENDBRANCH  14  16
ENDBRANCH   2  14
TORSDOF 5
ENDMDL
MODEL 10
REMARK VINA RESULT:      -6.7      3.245      5.016
REMARK  5 active torsions:
REMARK  status: ('A' for Active; 'I' for Inactive)
REMARK    1  A    between atoms: C_2  and  O_3 
REMARK    2  A    between atoms: O_3  and  C_4 
REMARK    3  A    between atoms: C_9  and  C_10 
REMARK       I    between atoms: C_10  and  N_11 
REMARK    4  A    between atoms: N_11  and  C_12 
REMARK    5  A    between atoms: C_12  and  C_13 
ROOT
HETATM    1  C   UNL     1      25.920  44.561  52.792  1.00  0.00     0.256 C 
HETATM    2  N   UNL     1      26.535  44.198  51.619  1.00  0.00    -0.348 N 
HETATM    3  O   UNL     1      24.746  44.291  53.029  1.00  0.00    -0.267 OA
HETATM    4  H   UNL     1      27.509  44.446  51.480  1.00  0.00     0.163 HD
ENDROOT
BRANCH   1   5
HETATM    5  C   UNL     1      26.727  45.310  53.800  1.00  0.00     0.084 A 
HETATM    6  C   UNL     1      27.847  44.809  54.469  1.00  0.00     0.180 A 
HETATM    7  N   UNL     1      28.555  45.521  55.383  1.00  0.00    -0.236 NA
HETATM    8  C   UNL     1      28.135  46.776  55.652  1.00  0.00     0.119 A 
HETATM    9  C   UNL     1      27.038  47.363  55.049  1.00  0.00     0.020 A 
HETATM   10  C   UNL     1      26.328  46.618  54.112  1.00  0.00     0.023 A 
BRANCH   6  11
HETATM   11  O   UNL     1      28.276  43.527  54.182  1.00  0.00    -0.334 OA
BRANCH  11  12
HETATM   12  C   UNL     1      29.658  43.295  54.461  1.00  0.00     0.173 C 
HETATM   13  C   UNL     1      30.284  42.704  53.210  1.00  0.00     0.034 C 
ENDBRANCH  11  12
ENDBRANCH   6  11
ENDBRANCH   1   5
BRANCH   2  14
HETATM   14  C   UNL     1      25.865  43.455  50.568  1.00  0.00     0.114 C 
HETATM   15  C   UNL     1      25.552  44.348  49.364  1.00  0.00     0.037 C 
BRANCH  14  16
HETATM   16  C   UNL     1      26.709  42.245  50.201  1.00  0.00    -0.036 A 
HETATM   17  C   UNL     1      26.927  41.871  48.863  1.00  0.00     0.010 A 
HETATM   18  C   UNL     1      27.739  40.779  48.550  1.00  0.00     0.019 A 
HETATM   19  C   UNL     1      28.350  40.057  49.572  1.00  0.00     0.011 A 
HETATM   20 BR   UNL     1      29.456  38.583  49.148  1.00  0.00    -0.051 Br
HETATM   21  C   UNL     1      28.159  40.417  50.902  1.00  0.00     0.019 A 
HETATM   22  C   UNL     1      27.346  41.509  51.214  1.00  0.00     0.010 A 
ENDBRANCH  14  16
ENDBRANCH   2  14
TORSDOF 5
ENDMDL
