MODEL 1
REMARK VINA RESULT:     -10.0      0.000      0.000
REMARK  4 active torsions:
REMARK  status: ('A' for Active; 'I' for Inactive)
REMARK    1  A    between atoms: C_9  and  N_10 
REMARK       I    between atoms: N_10  and  C_11 
REMARK    2  A    between atoms: C_11  and  C_12 
REMARK    3  A    between atoms: C_14  and  C_15 
REMARK    4  A    between atoms: C_22  and  C_23 
ROOT
HETATM    1  N   UNL     1      26.268  46.707  51.355  1.00  0.00    -0.322 N 
HETATM    2  C   UNL     1      26.193  46.765  52.737  1.00  0.00     0.277 C 
HETATM    3  O   UNL     1      25.477  47.525  53.380  1.00  0.00    -0.266 OA
HETATM    4  H   UNL     1      26.901  45.988  51.009  1.00  0.00     0.169 HD
ENDROOT
BRANCH   2   5
HETATM    5  C   UNL     1      27.098  45.806  53.365  1.00  0.00     0.157 A 
HETATM    6  N   UNL     1      27.962  46.169  54.398  1.00  0.00    -0.216 NA
HETATM    7  C   UNL     1      28.571  45.040  54.716  1.00  0.00     0.180 A 
HETATM    8  O   UNL     1      28.180  43.967  53.966  1.00  0.00    -0.293 OA
HETATM    9  C   UNL     1      27.240  44.457  53.102  1.00  0.00     0.094 A 
BRANCH   7  10
HETATM   10  C   UNL     1      29.572  44.780  55.748  1.00  0.00     0.017 A 
HETATM   11  C   UNL     1      29.639  45.605  56.881  1.00  0.00     0.016 A 
HETATM   12  C   UNL     1      30.582  45.368  57.885  1.00  0.00     0.001 A 
HETATM   13  C   UNL     1      31.471  44.302  57.769  1.00  0.00     0.000 A 
HETATM   14  C   UNL     1      31.419  43.473  56.651  1.00  0.00     0.001 A 
HETATM   15  C   UNL     1      30.477  43.711  55.648  1.00  0.00     0.016 A 
ENDBRANCH   7  10
BRANCH   9  16
HETATM   16  C   UNL     1      26.512  43.610  52.075  1.00  0.00     0.046 A 
HETATM   17  C   UNL     1      27.193  43.374  50.742  1.00  0.00     0.012 A 
HETATM   18  C   UNL     1      27.107  42.259  51.728  1.00  0.00     0.012 A 
ENDBRANCH   9  16
ENDBRANCH   2   5
BRANCH   1  19
HETATM   19  C   UNL     1      25.626  47.538  50.420  1.00  0.00     0.035 A 
HETATM   20  C   UNL     1      24.245  47.527  50.203  1.00  0.00     0.039 A 
HETATM   21  C   UNL     1      23.700  48.421  49.294  1.00  0.00    -0.022 A 
HETATM   22  C   UNL     1      22.262  48.615  48.961  1.00  0.00     0.274 C 
HETATM   23  C   UNL     1      24.501  49.322  48.592  1.00  0.00    -0.025 A 
HETATM   24  N   UNL     1      22.260  49.606  47.801  1.00  0.00    -0.067 N 
HETATM   25  C   UNL     1      21.165  50.609  47.861  1.00  0.00     0.270 C 
HETATM   26  H   UNL     1      22.146  49.042  46.951  1.00  0.00     0.280 HD
HETATM   27  C   UNL     1      23.662  50.203  47.731  1.00  0.00     0.273 C 
HETATM   28  C   UNL     1      25.872  49.341  48.780  1.00  0.00     0.012 A 
HETATM   29  C   UNL     1      26.430  48.442  49.699  1.00  0.00     0.030 A 
ENDBRANCH   1  19
TORSDOF 4
ENDMDL
MODEL 2
REMARK VINA RESULT:      -9.6      2.155      8.962
REMARK  4 active torsions:
REMARK  status: ('A' for Active; 'I' for Inactive)
REMARK    1  A    between atoms: C_9  and  N_10 
REMARK       I    between atoms: N_10  and  C_11 
REMARK    2  A    between atoms: C_11  and  C_12 
REMARK    3  A    between atoms: C_14  and  C_15 
REMARK    4  A    between atoms: C_22  and  C_23 
ROOT
HETATM    1  N   UNL     1      26.830  45.077  52.418  1.00  0.00    -0.322 N 
HETATM    2  C   UNL     1      25.476  44.802  52.516  1.00  0.00     0.277 C 
HETATM    3  O   UNL     1      24.940  44.172  53.422  1.00  0.00    -0.266 OA
HETATM    4  H   UNL     1      27.076  45.640  51.605  1.00  0.00     0.169 HD
ENDROOT
BRANCH   2   5
HETATM    5  C   UNL     1      24.734  45.346  51.381  1.00  0.00     0.157 A 
HETATM    6  N   UNL     1      24.725  46.709  51.087  1.00  0.00    -0.216 NA
HETATM    7  C   UNL     1      23.992  46.794  49.990  1.00  0.00     0.180 A 
HETATM    8  O   UNL     1      23.513  45.592  49.548  1.00  0.00    -0.293 OA
HETATM    9  C   UNL     1      23.986  44.668  50.438  1.00  0.00     0.094 A 
BRANCH   7  10
HETATM   10  C   UNL     1      23.643  47.966  49.190  1.00  0.00     0.017 A 
HETATM   11  C   UNL     1      24.616  48.938  48.912  1.00  0.00     0.016 A 
HETATM   12  C   UNL     1      24.306  50.061  48.140  1.00  0.00     0.001 A 
HETATM   13  C   UNL     1      23.017  50.227  47.637  1.00  0.00     0.000 A 
HETATM   14  C   UNL     1      22.039  49.273  47.904  1.00  0.00     0.001 A 
HETATM   15  C   UNL     1      22.349  48.151  48.676  1.00  0.00     0.016 A 
ENDBRANCH   7  10
BRANCH   9  16
HETATM   16  C   UNL     1      23.713  43.179  50.336  1.00  0.00     0.046 A 
HETATM   17  C   UNL     1      23.609  42.573  48.952  1.00  0.00     0.012 A 
HETATM   18  C   UNL     1      24.815  42.297  49.783  1.00  0.00     0.012 A 
ENDBRANCH   9  16
ENDBRANCH   2   5
BRANCH   1  19
HETATM   19  C   UNL     1      27.864  44.635  53.262  1.00  0.00     0.035 A 
HETATM   20  C   UNL     1      28.384  45.403  54.307  1.00  0.00     0.039 A 
HETATM   21  C   UNL     1      29.370  44.858  55.117  1.00  0.00    -0.022 A 
HETATM   22  C   UNL     1      30.011  45.477  56.310  1.00  0.00     0.274 C 
HETATM   23  C   UNL     1      29.853  43.567  54.904  1.00  0.00    -0.025 A 
HETATM   24  N   UNL     1      31.117  44.504  56.706  1.00  0.00    -0.067 N 
HETATM   25  C   UNL     1      31.278  44.335  58.174  1.00  0.00     0.270 C 
HETATM   26  H   UNL     1      31.985  44.894  56.321  1.00  0.00     0.280 HD
HETATM   27  C   UNL     1      30.858  43.208  55.944  1.00  0.00     0.273 C 
HETATM   28  C   UNL     1      29.363  42.793  53.866  1.00  0.00     0.012 A 
HETATM   29  C   UNL     1      28.365  43.336  53.045  1.00  0.00     0.030 A 
ENDBRANCH   1  19
TORSDOF 4
ENDMDL
MODEL 3
REMARK VINA RESULT:      -9.6      2.138      9.351
REMARK  4 active torsions:
REMARK  status: ('A' for Active; 'I' for Inactive)
REMARK    1  A    between atoms: C_9  and  N_10 
REMARK       I    between atoms: N_10  and  C_11 
REMARK    2  A    between atoms: C_11  and  C_12 
REMARK    3  A    between atoms: C_14  and  C_15 
REMARK    4  A    between atoms: C_22  and  C_23 
ROOT
HETATM    1  N   UNL     1      25.257  46.765  52.036  1.00  0.00    -0.322 N 
HETATM    2  C   UNL     1      25.501  47.174  50.736  1.00  0.00     0.277 C 
HETATM    3  O   UNL     1      26.608  47.356  50.241  1.00  0.00    -0.266 OA
HETATM    4  H   UNL     1      24.268  46.643  52.249  1.00  0.00     0.169 HD
ENDROOT
BRANCH   2   5
HETATM    5  C   UNL     1      24.258  47.388  49.998  1.00  0.00     0.157 A 
HETATM    6  N   UNL     1      23.674  48.649  49.880  1.00  0.00    -0.216 NA
HETATM    7  C   UNL     1      22.611  48.438  49.124  1.00  0.00     0.180 A 
HETATM    8  O   UNL     1      22.447  47.136  48.744  1.00  0.00    -0.293 OA
HETATM    9  C   UNL     1      23.499  46.465  49.305  1.00  0.00     0.094 A 
BRANCH   7  10
HETATM   10  C   UNL     1      21.614  49.388  48.631  1.00  0.00     0.017 A 
HETATM   11  C   UNL     1      20.698  48.992  47.644  1.00  0.00     0.016 A 
HETATM   12  C   UNL     1      19.732  49.880  47.167  1.00  0.00     0.001 A 
HETATM   13  C   UNL     1      19.668  51.178  47.671  1.00  0.00     0.000 A 
HETATM   14  C   UNL     1      20.569  51.588  48.650  1.00  0.00     0.001 A 
HETATM   15  C   UNL     1      21.536  50.699  49.126  1.00  0.00     0.016 A 
ENDBRANCH   7  10
BRANCH   9  16
HETATM   16  C   UNL     1      23.736  44.975  49.140  1.00  0.00     0.046 A 
HETATM   17  C   UNL     1      23.565  44.093  50.359  1.00  0.00     0.012 A 
HETATM   18  C   UNL     1      22.541  44.053  49.278  1.00  0.00     0.012 A 
ENDBRANCH   9  16
ENDBRANCH   2   5
BRANCH   1  19
HETATM   19  C   UNL     1      26.192  46.561  53.066  1.00  0.00     0.035 A 
HETATM   20  C   UNL     1      26.971  45.405  53.177  1.00  0.00     0.039 A 
HETATM   21  C   UNL     1      27.903  45.318  54.201  1.00  0.00    -0.022 A 
HETATM   22  C   UNL     1      28.866  44.214  54.461  1.00  0.00     0.274 C 
HETATM   23  C   UNL     1      28.071  46.355  55.120  1.00  0.00    -0.025 A 
HETATM   24  N   UNL     1      29.526  44.576  55.788  1.00  0.00    -0.067 N 
HETATM   25  C   UNL     1      30.981  44.274  55.845  1.00  0.00     0.270 C 
HETATM   26  H   UNL     1      29.044  44.019  56.503  1.00  0.00     0.280 HD
HETATM   27  C   UNL     1      29.170  46.032  56.073  1.00  0.00     0.273 C 
HETATM   28  C   UNL     1      27.301  47.502  55.038  1.00  0.00     0.012 A 
HETATM   29  C   UNL     1      26.359  47.598  54.005  1.00  0.00     0.030 A 
ENDBRANCH   1  19
TORSDOF 4
ENDMDL
MODEL 4
REMARK VINA RESULT:      -9.5      3.550      6.650
REMARK  4 active torsions:
REMARK  status: ('A' for Active; 'I' for Inactive)
REMARK    1  A    between atoms: C_9  and  N_10 
REMARK       I    between atoms: N_10  and  C_11 
REMARK    2  A    between atoms: C_11  and  C_12 
REMARK    3  A    between atoms: C_14  and  C_15 
REMARK    4  A    between atoms: C_22  and  C_23 
ROOT
HETATM    1  N   UNL     1      27.301  42.400  51.604  1.00  0.00    -0.322 N 
HETATM    2  C   UNL     1      27.600  43.752  51.581  1.00  0.00     0.277 C 
HETATM    3  O   UNL     1      27.625  44.460  50.580  1.00  0.00    -0.266 OA
HETATM    4  H   UNL     1      27.305  41.995  52.539  1.00  0.00     0.169 HD
ENDROOT
BRANCH   2   5
HETATM    5  C   UNL     1      27.907  44.256  52.918  1.00  0.00     0.157 A 
HETATM    6  N   UNL     1      29.026  43.828  53.632  1.00  0.00    -0.216 NA
HETATM    7  C   UNL     1      28.977  44.529  54.751  1.00  0.00     0.180 A 
HETATM    8  O   UNL     1      27.908  45.377  54.830  1.00  0.00    -0.293 OA
HETATM    9  C   UNL     1      27.225  45.202  53.659  1.00  0.00     0.094 A 
BRANCH   7  10
HETATM   10  C   UNL     1      29.897  44.536  55.887  1.00  0.00     0.017 A 
HETATM   11  C   UNL     1      29.788  45.534  56.868  1.00  0.00     0.016 A 
HETATM   12  C   UNL     1      30.651  45.554  57.967  1.00  0.00     0.001 A 
HETATM   13  C   UNL     1      31.635  44.576  58.100  1.00  0.00     0.000 A 
HETATM   14  C   UNL     1      31.756  43.579  57.135  1.00  0.00     0.001 A 
HETATM   15  C   UNL     1      30.894  43.560  56.036  1.00  0.00     0.016 A 
ENDBRANCH   7  10
BRANCH   9  16
HETATM   16  C   UNL     1      25.959  45.955  53.297  1.00  0.00     0.046 A 
HETATM   17  C   UNL     1      25.812  47.375  53.805  1.00  0.00     0.012 A 
HETATM   18  C   UNL     1      26.088  47.140  52.360  1.00  0.00     0.012 A 
ENDBRANCH   9  16
ENDBRANCH   2   5
BRANCH   1  19
HETATM   19  C   UNL     1      27.055  41.551  50.510  1.00  0.00     0.035 A 
HETATM   20  C   UNL     1      28.028  40.716  49.952  1.00  0.00     0.039 A 
HETATM   21  C   UNL     1      27.675  39.878  48.905  1.00  0.00    -0.022 A 
HETATM   22  C   UNL     1      28.533  38.876  48.215  1.00  0.00     0.274 C 
HETATM   23  C   UNL     1      26.375  39.857  48.399  1.00  0.00    -0.025 A 
HETATM   24  N   UNL     1      27.679  38.363  47.059  1.00  0.00    -0.067 N 
HETATM   25  C   UNL     1      27.813  36.903  46.808  1.00  0.00     0.270 C 
HETATM   26  H   UNL     1      27.997  38.872  46.227  1.00  0.00     0.280 HD
HETATM   27  C   UNL     1      26.252  38.830  47.325  1.00  0.00     0.273 C 
HETATM   28  C   UNL     1      25.400  40.684  48.926  1.00  0.00     0.012 A 
HETATM   29  C   UNL     1      25.748  41.533  49.985  1.00  0.00     0.030 A 
ENDBRANCH   1  19
TORSDOF 4
ENDMDL
MODEL 5
REMARK VINA RESULT:      -9.4      1.711      2.089
REMARK  4 active torsions:
REMARK  status: ('A' for Active; 'I' for Inactive)
REMARK    1  A    between atoms: C_9  and  N_10 
REMARK       I    between atoms: N_10  and  C_11 
REMARK    2  A    between atoms: C_11  and  C_12 
REMARK    3  A    between atoms: C_14  and  C_15 
REMARK    4  A    between atoms: C_22  and  C_23 
ROOT
HETATM    1  N   UNL     1      25.533  45.653  50.596  1.00  0.00    -0.322 N 
HETATM    2  C   UNL     1      25.307  44.799  51.663  1.00  0.00     0.277 C 
HETATM    3  O   UNL     1      24.207  44.485  52.104  1.00  0.00    -0.266 OA
HETATM    4  H   UNL     1      26.519  45.766  50.363  1.00  0.00     0.169 HD
ENDROOT
BRANCH   2   5
HETATM    5  C   UNL     1      26.560  44.310  52.234  1.00  0.00     0.157 A 
HETATM    6  N   UNL     1      27.112  44.862  53.390  1.00  0.00    -0.216 NA
HETATM    7  C   UNL     1      28.197  44.137  53.602  1.00  0.00     0.180 A 
HETATM    8  O   UNL     1      28.404  43.160  52.669  1.00  0.00    -0.293 OA
HETATM    9  C   UNL     1      27.359  43.272  51.795  1.00  0.00     0.094 A 
BRANCH   7  10
HETATM   10  C   UNL     1      29.178  44.222  54.682  1.00  0.00     0.017 A 
HETATM   11  C   UNL     1      29.208  45.353  55.513  1.00  0.00     0.016 A 
HETATM   12  C   UNL     1      30.132  45.450  56.557  1.00  0.00     0.001 A 
HETATM   13  C   UNL     1      31.038  44.416  56.784  1.00  0.00     0.000 A 
HETATM   14  C   UNL     1      31.023  43.287  55.969  1.00  0.00     0.001 A 
HETATM   15  C   UNL     1      30.100  43.192  54.925  1.00  0.00     0.016 A 
ENDBRANCH   7  10
BRANCH   9  16
HETATM   16  C   UNL     1      27.165  42.372  50.589  1.00  0.00     0.046 A 
HETATM   17  C   UNL     1      27.749  40.975  50.648  1.00  0.00     0.012 A 
HETATM   18  C   UNL     1      26.274  41.157  50.753  1.00  0.00     0.012 A 
ENDBRANCH   9  16
ENDBRANCH   2   5
BRANCH   1  19
HETATM   19  C   UNL     1      24.586  46.391  49.866  1.00  0.00     0.035 A 
HETATM   20  C   UNL     1      23.563  45.800  49.117  1.00  0.00     0.039 A 
HETATM   21  C   UNL     1      22.645  46.615  48.471  1.00  0.00    -0.022 A 
HETATM   22  C   UNL     1      21.456  46.195  47.680  1.00  0.00     0.274 C 
HETATM   23  C   UNL     1      22.727  48.006  48.550  1.00  0.00    -0.025 A 
HETATM   24  N   UNL     1      20.909  47.488  47.082  1.00  0.00    -0.067 N 
HETATM   25  C   UNL     1      19.425  47.565  47.061  1.00  0.00     0.270 C 
HETATM   26  H   UNL     1      21.256  47.520  46.117  1.00  0.00     0.280 HD
HETATM   27  C   UNL     1      21.592  48.636  47.819  1.00  0.00     0.273 C 
HETATM   28  C   UNL     1      23.739  48.613  49.273  1.00  0.00     0.012 A 
HETATM   29  C   UNL     1      24.669  47.796  49.930  1.00  0.00     0.030 A 
ENDBRANCH   1  19
TORSDOF 4
ENDMDL
MODEL 6
REMARK VINA RESULT:      -9.4      4.529      7.690
REMARK  4 active torsions:
REMARK  status: ('A' for Active; 'I' for Inactive)
REMARK    1  A    between atoms: C_9  and  N_10 
REMARK       I    between atoms: N_10  and  C_11 
REMARK    2  A    between atoms: C_11  and  C_12 
REMARK    3  A    between atoms: C_14  and  C_15 
REMARK    4  A    between atoms: C_22  and  C_23 
ROOT
HETATM    1  N   UNL     1      28.419  40.943  50.427  1.00  0.00    -0.322 N 
HETATM    2  C   UNL     1      27.308  41.386  51.125  1.00  0.00     0.277 C 
HETATM    3  O   UNL     1      26.172  40.940  51.013  1.00  0.00    -0.266 OA
HETATM    4  H   UNL     1      29.282  41.422  50.683  1.00  0.00     0.169 HD
ENDROOT
BRANCH   2   5
HETATM    5  C   UNL     1      27.643  42.486  52.026  1.00  0.00     0.157 A 
HETATM    6  N   UNL     1      28.494  42.317  53.118  1.00  0.00    -0.216 NA
HETATM    7  C   UNL     1      28.577  43.525  53.648  1.00  0.00     0.180 A 
HETATM    8  O   UNL     1      27.839  44.471  52.993  1.00  0.00    -0.293 OA
HETATM    9  C   UNL     1      27.242  43.807  51.958  1.00  0.00     0.094 A 
BRANCH   7  10
HETATM   10  C   UNL     1      29.345  43.986  54.803  1.00  0.00     0.017 A 
HETATM   11  C   UNL     1      30.418  43.218  55.281  1.00  0.00     0.016 A 
HETATM   12  C   UNL     1      31.171  43.645  56.377  1.00  0.00     0.001 A 
HETATM   13  C   UNL     1      30.861  44.847  57.011  1.00  0.00     0.000 A 
HETATM   14  C   UNL     1      29.799  45.621  56.550  1.00  0.00     0.001 A 
HETATM   15  C   UNL     1      29.046  45.193  55.455  1.00  0.00     0.016 A 
ENDBRANCH   7  10
BRANCH   9  16
HETATM   16  C   UNL     1      26.326  44.468  50.944  1.00  0.00     0.046 A 
HETATM   17  C   UNL     1      26.239  45.980  50.952  1.00  0.00     0.012 A 
HETATM   18  C   UNL     1      26.970  45.295  49.849  1.00  0.00     0.012 A 
ENDBRANCH   9  16
ENDBRANCH   2   5
BRANCH   1  19
HETATM   19  C   UNL     1      28.470  39.977  49.407  1.00  0.00     0.035 A 
HETATM   20  C   UNL     1      28.062  40.226  48.093  1.00  0.00     0.039 A 
HETATM   21  C   UNL     1      28.198  39.222  47.145  1.00  0.00    -0.022 A 
HETATM   22  C   UNL     1      27.885  39.298  45.692  1.00  0.00     0.274 C 
HETATM   23  C   UNL     1      28.725  37.975  47.479  1.00  0.00    -0.025 A 
HETATM   24  N   UNL     1      28.076  37.874  45.178  1.00  0.00    -0.067 N 
HETATM   25  C   UNL     1      28.707  37.794  43.834  1.00  0.00     0.270 C 
HETATM   26  H   UNL     1      27.137  37.465  45.127  1.00  0.00     0.280 HD
HETATM   27  C   UNL     1      28.816  37.108  46.270  1.00  0.00     0.273 C 
HETATM   28  C   UNL     1      29.122  37.701  48.776  1.00  0.00     0.012 A 
HETATM   29  C   UNL     1      28.990  38.711  49.739  1.00  0.00     0.030 A 
ENDBRANCH   1  19
TORSDOF 4
ENDMDL
MODEL 7
REMARK VINA RESULT:      -9.2      2.839      5.437
REMARK  4 active torsions:
REMARK  status: ('A' for Active; 'I' for Inactive)
REMARK    1  A    between atoms: C_9  and  N_10 
REMARK       I    between atoms: N_10  and  C_11 
REMARK    2  A    between atoms: C_11  and  C_12 
REMARK    3  A    between atoms: C_14  and  C_15 
REMARK    4  A    between atoms: C_22  and  C_23 
ROOT
HETATM    1  N   UNL     1      21.981  48.690  49.457  1.00  0.00    -0.322 N 
HETATM    2  C   UNL     1      23.244  48.420  48.957  1.00  0.00     0.277 C 
HETATM    3  O   UNL     1      23.736  48.925  47.953  1.00  0.00    -0.266 OA
HETATM    4  H   UNL     1      21.766  48.190  50.318  1.00  0.00     0.169 HD
ENDROOT
BRANCH   2   5
HETATM    5  C   UNL     1      23.942  47.426  49.768  1.00  0.00     0.157 A 
HETATM    6  N   UNL     1      24.722  47.783  50.868  1.00  0.00    -0.216 NA
HETATM    7  C   UNL     1      25.141  46.626  51.350  1.00  0.00     0.180 A 
HETATM    8  O   UNL     1      24.703  45.539  50.647  1.00  0.00    -0.293 OA
HETATM    9  C   UNL     1      23.938  46.051  49.636  1.00  0.00     0.094 A 
BRANCH   7  10
HETATM   10  C   UNL     1      25.977  46.350  52.517  1.00  0.00     0.017 A 
HETATM   11  C   UNL     1      26.676  45.136  52.606  1.00  0.00     0.016 A 
HETATM   12  C   UNL     1      27.488  44.857  53.708  1.00  0.00     0.001 A 
HETATM   13  C   UNL     1      27.612  45.789  54.737  1.00  0.00     0.000 A 
HETATM   14  C   UNL     1      26.925  46.998  54.665  1.00  0.00     0.001 A 
HETATM   15  C   UNL     1      26.113  47.276  53.563  1.00  0.00     0.016 A 
ENDBRANCH   7  10
BRANCH   9  16
HETATM   16  C   UNL     1      23.229  45.200  48.598  1.00  0.00     0.046 A 
HETATM   17  C   UNL     1      22.785  43.811  49.007  1.00  0.00     0.012 A 
HETATM   18  C   UNL     1      21.765  44.883  48.831  1.00  0.00     0.012 A 
ENDBRANCH   9  16
ENDBRANCH   2   5
BRANCH   1  19
HETATM   19  C   UNL     1      20.986  49.509  48.894  1.00  0.00     0.035 A 
HETATM   20  C   UNL     1      19.910  49.011  48.153  1.00  0.00     0.039 A 
HETATM   21  C   UNL     1      18.952  49.896  47.682  1.00  0.00    -0.022 A 
HETATM   22  C   UNL     1      17.707  49.572  46.931  1.00  0.00     0.274 C 
HETATM   23  C   UNL     1      19.045  51.267  47.927  1.00  0.00    -0.025 A 
HETATM   24  N   UNL     1      17.124  50.927  46.541  1.00  0.00    -0.067 N 
HETATM   25  C   UNL     1      15.642  50.999  46.636  1.00  0.00     0.270 C 
HETATM   26  H   UNL     1      17.401  51.081  45.565  1.00  0.00     0.280 HD
HETATM   27  C   UNL     1      17.862  51.978  47.365  1.00  0.00     0.273 C 
HETATM   28  C   UNL     1      20.108  51.783  48.646  1.00  0.00     0.012 A 
HETATM   29  C   UNL     1      21.080  50.896  49.128  1.00  0.00     0.030 A 
ENDBRANCH   1  19
TORSDOF 4
ENDMDL
MODEL 8
REMARK VINA RESULT:      -9.1      3.423      9.252
REMARK  4 active torsions:
REMARK  status: ('A' for Active; 'I' for Inactive)
REMARK    1  A    between atoms: C_9  and  N_10 
REMARK       I    between atoms: N_10  and  C_11 
REMARK    2  A    between atoms: C_11  and  C_12 
REMARK    3  A    between atoms: C_14  and  C_15 
REMARK    4  A    between atoms: C_22  and  C_23 
ROOT
HETATM    1  N   UNL     1      26.943  44.393  52.326  1.00  0.00    -0.322 N 
HETATM    2  C   UNL     1      25.579  44.252  52.522  1.00  0.00     0.277 C 
HETATM    3  O   UNL     1      25.029  44.081  53.604  1.00  0.00    -0.266 OA
HETATM    4  H   UNL     1      27.203  44.555  51.354  1.00  0.00     0.169 HD
ENDROOT
BRANCH   2   5
HETATM    5  C   UNL     1      24.846  44.314  51.260  1.00  0.00     0.157 A 
HETATM    6  N   UNL     1      24.388  43.167  50.612  1.00  0.00    -0.216 NA
HETATM    7  C   UNL     1      23.754  43.633  49.550  1.00  0.00     0.180 A 
HETATM    8  O   UNL     1      23.767  44.996  49.448  1.00  0.00    -0.293 OA
HETATM    9  C   UNL     1      24.467  45.430  50.540  1.00  0.00     0.094 A 
BRANCH   7  10
HETATM   10  C   UNL     1      23.038  42.910  48.500  1.00  0.00     0.017 A 
HETATM   11  C   UNL     1      23.090  41.509  48.456  1.00  0.00     0.016 A 
HETATM   12  C   UNL     1      22.405  40.798  47.467  1.00  0.00     0.001 A 
HETATM   13  C   UNL     1      21.659  41.480  46.508  1.00  0.00     0.000 A 
HETATM   14  C   UNL     1      21.597  42.871  46.537  1.00  0.00     0.001 A 
HETATM   15  C   UNL     1      22.283  43.581  47.525  1.00  0.00     0.016 A 
ENDBRANCH   7  10
BRANCH   9  16
HETATM   16  C   UNL     1      24.728  46.892  50.850  1.00  0.00     0.046 A 
HETATM   17  C   UNL     1      26.132  47.420  50.635  1.00  0.00     0.012 A 
HETATM   18  C   UNL     1      25.050  47.811  49.688  1.00  0.00     0.012 A 
ENDBRANCH   9  16
ENDBRANCH   2   5
BRANCH   1  19
HETATM   19  C   UNL     1      27.968  44.286  53.282  1.00  0.00     0.035 A 
HETATM   20  C   UNL     1      28.132  45.191  54.335  1.00  0.00     0.039 A 
HETATM   21  C   UNL     1      29.145  44.972  55.258  1.00  0.00    -0.022 A 
HETATM   22  C   UNL     1      29.452  45.771  56.476  1.00  0.00     0.274 C 
HETATM   23  C   UNL     1      30.001  43.876  55.151  1.00  0.00    -0.025 A 
HETATM   24  N   UNL     1      30.746  45.173  57.019  1.00  0.00    -0.067 N 
HETATM   25  C   UNL     1      30.796  45.082  58.502  1.00  0.00     0.270 C 
HETATM   26  H   UNL     1      31.498  45.793  56.700  1.00  0.00     0.280 HD
HETATM   27  C   UNL     1      30.953  43.845  56.297  1.00  0.00     0.273 C 
HETATM   28  C   UNL     1      29.866  42.975  54.109  1.00  0.00     0.012 A 
HETATM   29  C   UNL     1      28.844  43.188  53.174  1.00  0.00     0.030 A 
ENDBRANCH   1  19
TORSDOF 4
ENDMDL
MODEL 9
REMARK VINA RESULT:      -8.8      2.751      9.112
REMARK  4 active torsions:
REMARK  status: ('A' for Active; 'I' for Inactive)
REMARK    1  A    between atoms: C_9  and  N_10 
REMARK       I    between atoms: N_10  and  C_11 
REMARK    2  A    between atoms: C_11  and  C_12 
REMARK    3  A    between atoms: C_14  and  C_15 
REMARK    4  A    between atoms: C_22  and  C_23 
ROOT
HETATM    1  N   UNL     1      26.950  44.186  52.256  1.00  0.00    -0.322 N 
HETATM    2  C   UNL     1      25.584  44.056  52.444  1.00  0.00     0.277 C 
HETATM    3  O   UNL     1      25.016  44.007  53.529  1.00  0.00    -0.266 OA
HETATM    4  H   UNL     1      27.226  44.237  51.276  1.00  0.00     0.169 HD
ENDROOT
BRANCH   2   5
HETATM    5  C   UNL     1      24.873  43.964  51.171  1.00  0.00     0.157 A 
HETATM    6  N   UNL     1      24.168  45.042  50.636  1.00  0.00    -0.216 NA
HETATM    7  C   UNL     1      23.710  44.584  49.485  1.00  0.00     0.180 A 
HETATM    8  O   UNL     1      24.053  43.286  49.227  1.00  0.00    -0.293 OA
HETATM    9  C   UNL     1      24.795  42.890  50.305  1.00  0.00     0.094 A 
BRANCH   7  10
HETATM   10  C   UNL     1      22.919  45.262  48.460  1.00  0.00     0.017 A 
HETATM   11  C   UNL     1      22.589  44.591  47.272  1.00  0.00     0.016 A 
HETATM   12  C   UNL     1      21.825  45.218  46.284  1.00  0.00     0.001 A 
HETATM   13  C   UNL     1      21.381  46.525  46.471  1.00  0.00     0.000 A 
HETATM   14  C   UNL     1      21.698  47.206  47.644  1.00  0.00     0.001 A 
HETATM   15  C   UNL     1      22.463  46.579  48.630  1.00  0.00     0.016 A 
ENDBRANCH   7  10
BRANCH   9  16
HETATM   16  C   UNL     1      25.404  41.508  50.450  1.00  0.00     0.046 A 
HETATM   17  C   UNL     1      25.696  40.728  49.185  1.00  0.00     0.012 A 
HETATM   18  C   UNL     1      26.826  41.312  49.962  1.00  0.00     0.012 A 
ENDBRANCH   9  16
ENDBRANCH   2   5
BRANCH   1  19
HETATM   19  C   UNL     1      27.959  44.202  53.235  1.00  0.00     0.035 A 
HETATM   20  C   UNL     1      28.005  45.136  54.275  1.00  0.00     0.039 A 
HETATM   21  C   UNL     1      29.013  45.038  55.222  1.00  0.00    -0.022 A 
HETATM   22  C   UNL     1      29.209  45.884  56.432  1.00  0.00     0.274 C 
HETATM   23  C   UNL     1      29.980  44.034  55.153  1.00  0.00    -0.025 A 
HETATM   24  N   UNL     1      30.544  45.431  57.013  1.00  0.00    -0.067 N 
HETATM   25  C   UNL     1      30.571  45.370  58.498  1.00  0.00     0.270 C 
HETATM   26  H   UNL     1      31.236  46.120  56.697  1.00  0.00     0.280 HD
HETATM   27  C   UNL     1      30.904  44.120  56.319  1.00  0.00     0.273 C 
HETATM   28  C   UNL     1      29.962  43.107  54.126  1.00  0.00     0.012 A 
HETATM   29  C   UNL     1      28.945  43.198  53.165  1.00  0.00     0.030 A 
ENDBRANCH   1  19
TORSDOF 4
ENDMDL
MODEL 10
REMARK VINA RESULT:      -8.6     16.649     18.103
REMARK  4 active torsions:
REMARK  status: ('A' for Active; 'I' for Inactive)
REMARK    1  A    between atoms: C_9  and  N_10 
REMARK       I    between atoms: N_10  and  C_11 
REMARK    2  A    between atoms: C_11  and  C_12 
REMARK    3  A    between atoms: C_14  and  C_15 
REMARK    4  A    between atoms: C_22  and  C_23 
ROOT
HETATM    1  N   UNL     1      37.966  46.484  65.366  1.00  0.00    -0.322 N 
HETATM    2  C   UNL     1      37.201  45.916  64.362  1.00  0.00     0.277 C 
HETATM    3  O   UNL     1      36.580  46.533  63.503  1.00  0.00    -0.266 OA
HETATM    4  H   UNL     1      38.428  45.802  65.966  1.00  0.00     0.169 HD
ENDROOT
BRANCH   2   5
HETATM    5  C   UNL     1      37.201  44.457  64.447  1.00  0.00     0.157 A 
HETATM    6  N   UNL     1      38.239  43.684  63.928  1.00  0.00    -0.216 NA
HETATM    7  C   UNL     1      37.896  42.445  64.232  1.00  0.00     0.180 A 
HETATM    8  O   UNL     1      36.710  42.345  64.904  1.00  0.00    -0.293 OA
HETATM    9  C   UNL     1      36.265  43.630  65.039  1.00  0.00     0.094 A 
BRANCH   7  10
HETATM   10  C   UNL     1      38.603  41.192  63.973  1.00  0.00     0.017 A 
HETATM   11  C   UNL     1      38.956  40.847  62.659  1.00  0.00     0.016 A 
HETATM   12  C   UNL     1      39.641  39.659  62.390  1.00  0.00     0.001 A 
HETATM   13  C   UNL     1      39.981  38.799  63.432  1.00  0.00     0.000 A 
HETATM   14  C   UNL     1      39.638  39.125  64.742  1.00  0.00     0.001 A 
HETATM   15  C   UNL     1      38.953  40.313  65.010  1.00  0.00     0.016 A 
ENDBRANCH   7  10
BRANCH   9  16
HETATM   16  C   UNL     1      34.974  44.009  65.740  1.00  0.00     0.046 A 
HETATM   17  C   UNL     1      34.236  42.924  66.496  1.00  0.00     0.012 A 
HETATM   18  C   UNL     1      34.962  43.981  67.256  1.00  0.00     0.012 A 
ENDBRANCH   9  16
ENDBRANCH   2   5
BRANCH   1  19
HETATM   19  C   UNL     1      38.122  47.849  65.665  1.00  0.00     0.035 A 
HETATM   20  C   UNL     1      37.404  48.501  66.672  1.00  0.00     0.039 A 
HETATM   21  C   UNL     1      37.665  49.840  66.925  1.00  0.00    -0.022 A 
HETATM   22  C   UNL     1      37.063  50.699  67.982  1.00  0.00     0.274 C 
HETATM   23  C   UNL     1      38.621  50.544  66.194  1.00  0.00    -0.025 A 
HETATM   24  N   UNL     1      37.597  52.099  67.697  1.00  0.00    -0.067 N 
HETATM   25  C   UNL     1      37.941  52.877  68.917  1.00  0.00     0.270 C 
HETATM   26  H   UNL     1      36.849  52.588  67.193  1.00  0.00     0.280 HD
HETATM   27  C   UNL     1      38.745  51.939  66.705  1.00  0.00     0.273 C 
HETATM   28  C   UNL     1      39.334  49.923  65.183  1.00  0.00     0.012 A 
HETATM   29  C   UNL     1      39.077  48.570  64.922  1.00  0.00     0.030 A 
ENDBRANCH   1  19
TORSDOF 4
ENDMDL
