MODEL 1
REMARK VINA RESULT:     -10.1      0.000      0.000
REMARK  3 active torsions:
REMARK  status: ('A' for Active; 'I' for Inactive)
REMARK    1  A    between atoms: C_2  and  O_3 
REMARK    2  A    between atoms: O_3  and  C_4 
REMARK    3  A    between atoms: C_8  and  N_9 
REMARK       I    between atoms: N_9  and  C_10 
REMARK       I    between atoms: C_10  and  N_11 
ROOT
HETATM    1  N   UNL     1      25.762  46.518  51.618  1.00  0.00    -0.309 N 
HETATM    2  C   UNL     1      26.046  46.912  52.905  1.00  0.00     0.323 C 
HETATM    3  N   UNL     1      26.765  45.995  53.669  1.00  0.00    -0.328 N 
HETATM    4  C   UNL     1      26.937  46.345  55.090  1.00  0.00     0.185 C 
HETATM    5  C   UNL     1      28.162  45.693  55.625  1.00  0.00     0.035 A 
HETATM    6  C   UNL     1      28.959  44.766  54.991  1.00  0.00    -0.020 A 
HETATM    7  C   UNL     1      28.658  44.322  53.608  1.00  0.00     0.061 C 
HETATM    8  C   UNL     1      27.187  44.632  53.261  1.00  0.00     0.132 C 
HETATM    9  N   UNL     1      28.696  45.936  56.861  1.00  0.00    -0.357 N 
HETATM   10  H   UNL     1      28.332  46.586  57.544  1.00  0.00     0.166 HD
HETATM   11  C   UNL     1      29.831  45.172  57.038  1.00  0.00     0.043 A 
HETATM   12  C   UNL     1      30.018  44.424  55.872  1.00  0.00    -0.001 A 
HETATM   13  C   UNL     1      30.703  45.095  58.130  1.00  0.00     0.030 A 
HETATM   14  C   UNL     1      31.795  44.227  58.029  1.00  0.00     0.002 A 
HETATM   15  C   UNL     1      32.005  43.469  56.879  1.00  0.00     0.001 A 
HETATM   16  C   UNL     1      31.126  43.558  55.794  1.00  0.00     0.014 A 
HETATM   17  O   UNL     1      25.705  47.997  53.373  1.00  0.00    -0.247 OA
HETATM   18  H   UNL     1      25.726  45.527  51.454  1.00  0.00     0.170 HD
ENDROOT
BRANCH   1  19
HETATM   19  C   UNL     1      25.275  47.322  50.564  1.00  0.00     0.038 A 
HETATM   20  C   UNL     1      26.040  48.274  49.890  1.00  0.00     0.056 A 
HETATM   21  C   UNL     1      25.488  49.007  48.832  1.00  0.00     0.069 A 
HETATM   22  C   UNL     1      24.167  48.788  48.414  1.00  0.00     0.090 A 
HETATM   23 CL   UNL     1      26.494  50.173  48.041  1.00  0.00    -0.081 Cl
HETATM   24  C   UNL     1      23.401  47.837  49.091  1.00  0.00     0.041 A 
HETATM   25  C   UNL     1      23.954  47.110  50.154  1.00  0.00     0.032 A 
BRANCH  22  26
HETATM   26  O   UNL     1      23.711  49.543  47.366  1.00  0.00    -0.350 OA
BRANCH  26  27
HETATM   27  C   UNL     1      22.499  50.271  47.554  1.00  0.00     0.171 C 
HETATM   28  C   UNL     1      22.736  51.293  48.652  1.00  0.00     0.034 C 
ENDBRANCH  26  27
ENDBRANCH  22  26
ENDBRANCH   1  19
TORSDOF 3
ENDMDL
MODEL 2
REMARK VINA RESULT:      -8.8      3.643     10.555
REMARK  3 active torsions:
REMARK  status: ('A' for Active; 'I' for Inactive)
REMARK    1  A    between atoms: C_2  and  O_3 
REMARK    2  A    between atoms: O_3  and  C_4 
REMARK    3  A    between atoms: C_8  and  N_9 
REMARK       I    between atoms: N_9  and  C_10 
REMARK       I    between atoms: C_10  and  N_11 
ROOT
HETATM    1  N   UNL     1      24.389  46.121  49.921  1.00  0.00    -0.309 N 
HETATM    2  C   UNL     1      24.309  47.490  49.813  1.00  0.00     0.323 C 
HETATM    3  N   UNL     1      23.195  47.974  49.130  1.00  0.00    -0.328 N 
HETATM    4  C   UNL     1      23.183  49.426  48.876  1.00  0.00     0.185 C 
HETATM    5  C   UNL     1      21.781  49.902  48.739  1.00  0.00     0.035 A 
HETATM    6  C   UNL     1      20.640  49.133  48.682  1.00  0.00    -0.020 A 
HETATM    7  C   UNL     1      20.711  47.655  48.785  1.00  0.00     0.061 C 
HETATM    8  C   UNL     1      22.140  47.171  48.462  1.00  0.00     0.132 C 
HETATM    9  N   UNL     1      21.410  51.216  48.657  1.00  0.00    -0.357 N 
HETATM   10  H   UNL     1      22.036  52.009  48.689  1.00  0.00     0.166 HD
HETATM   11  C   UNL     1      20.039  51.309  48.542  1.00  0.00     0.043 A 
HETATM   12  C   UNL     1      19.528  50.007  48.555  1.00  0.00    -0.001 A 
HETATM   13  C   UNL     1      19.218  52.439  48.438  1.00  0.00     0.030 A 
HETATM   14  C   UNL     1      17.839  52.232  48.341  1.00  0.00     0.002 A 
HETATM   15  C   UNL     1      17.303  50.945  48.351  1.00  0.00     0.001 A 
HETATM   16  C   UNL     1      18.136  49.826  48.457  1.00  0.00     0.014 A 
HETATM   17  O   UNL     1      25.148  48.258  50.281  1.00  0.00    -0.247 OA
HETATM   18  H   UNL     1      23.911  45.589  49.214  1.00  0.00     0.170 HD
ENDROOT
BRANCH   1  19
HETATM   19  C   UNL     1      25.256  45.377  50.751  1.00  0.00     0.038 A 
HETATM   20  C   UNL     1      24.997  45.087  52.090  1.00  0.00     0.056 A 
HETATM   21  C   UNL     1      25.896  44.313  52.835  1.00  0.00     0.069 A 
HETATM   22  C   UNL     1      27.062  43.798  52.249  1.00  0.00     0.090 A 
HETATM   23 CL   UNL     1      25.512  43.993  54.493  1.00  0.00    -0.081 Cl
HETATM   24  C   UNL     1      27.322  44.092  50.910  1.00  0.00     0.041 A 
HETATM   25  C   UNL     1      26.424  44.872  50.169  1.00  0.00     0.032 A 
BRANCH  22  26
HETATM   26  O   UNL     1      27.881  43.045  53.048  1.00  0.00    -0.350 OA
BRANCH  26  27
HETATM   27  C   UNL     1      29.052  43.670  53.570  1.00  0.00     0.171 C 
HETATM   28  C   UNL     1      30.241  42.790  53.229  1.00  0.00     0.034 C 
ENDBRANCH  26  27
ENDBRANCH  22  26
ENDBRANCH   1  19
TORSDOF 3
ENDMDL
MODEL 3
REMARK VINA RESULT:      -8.6      5.764      6.413
REMARK  3 active torsions:
REMARK  status: ('A' for Active; 'I' for Inactive)
REMARK    1  A    between atoms: C_2  and  O_3 
REMARK    2  A    between atoms: O_3  and  C_4 
REMARK    3  A    between atoms: C_8  and  N_9 
REMARK       I    between atoms: N_9  and  C_10 
REMARK       I    between atoms: C_10  and  N_11 
ROOT
HETATM    1  N   UNL     1      27.135  41.293  49.336  1.00  0.00    -0.309 N 
HETATM    2  C   UNL     1      26.939  42.474  50.014  1.00  0.00     0.323 C 
HETATM    3  N   UNL     1      27.354  42.479  51.343  1.00  0.00    -0.328 N 
HETATM    4  C   UNL     1      27.006  43.684  52.116  1.00  0.00     0.185 C 
HETATM    5  C   UNL     1      27.972  43.865  53.232  1.00  0.00     0.035 A 
HETATM    6  C   UNL     1      28.957  42.989  53.633  1.00  0.00    -0.020 A 
HETATM    7  C   UNL     1      29.173  41.707  52.920  1.00  0.00     0.061 C 
HETATM    8  C   UNL     1      27.915  41.336  52.106  1.00  0.00     0.132 C 
HETATM    9  N   UNL     1      28.030  44.967  54.041  1.00  0.00    -0.357 N 
HETATM   10  H   UNL     1      27.436  45.782  53.971  1.00  0.00     0.166 HD
HETATM   11  C   UNL     1      29.040  44.814  54.968  1.00  0.00     0.043 A 
HETATM   12  C   UNL     1      29.640  43.573  54.732  1.00  0.00    -0.001 A 
HETATM   13  C   UNL     1      29.469  45.678  55.982  1.00  0.00     0.030 A 
HETATM   14  C   UNL     1      30.539  45.260  56.780  1.00  0.00     0.002 A 
HETATM   15  C   UNL     1      31.155  44.029  56.568  1.00  0.00     0.001 A 
HETATM   16  C   UNL     1      30.717  43.177  55.549  1.00  0.00     0.014 A 
HETATM   17  O   UNL     1      26.437  43.474  49.503  1.00  0.00    -0.247 OA
HETATM   18  H   UNL     1      27.176  40.459  49.896  1.00  0.00     0.170 HD
ENDROOT
BRANCH   1  19
HETATM   19  C   UNL     1      27.041  41.080  47.943  1.00  0.00     0.038 A 
HETATM   20  C   UNL     1      25.838  40.932  47.254  1.00  0.00     0.056 A 
HETATM   21  C   UNL     1      25.833  40.757  45.864  1.00  0.00     0.069 A 
HETATM   22  C   UNL     1      27.031  40.746  45.134  1.00  0.00     0.090 A 
HETATM   23 CL   UNL     1      24.303  40.578  45.074  1.00  0.00    -0.081 Cl
HETATM   24  C   UNL     1      28.235  40.890  45.825  1.00  0.00     0.041 A 
HETATM   25  C   UNL     1      28.238  41.059  47.216  1.00  0.00     0.032 A 
BRANCH  22  26
HETATM   26  O   UNL     1      26.934  40.577  43.778  1.00  0.00    -0.350 OA
BRANCH  26  27
HETATM   27  C   UNL     1      27.602  41.521  42.945  1.00  0.00     0.171 C 
HETATM   28  C   UNL     1      26.698  42.731  42.794  1.00  0.00     0.034 C 
ENDBRANCH  26  27
ENDBRANCH  22  26
ENDBRANCH   1  19
TORSDOF 3
ENDMDL
MODEL 4
REMARK VINA RESULT:      -8.5      3.464      5.273
REMARK  3 active torsions:
REMARK  status: ('A' for Active; 'I' for Inactive)
REMARK    1  A    between atoms: C_2  and  O_3 
REMARK    2  A    between atoms: O_3  and  C_4 
REMARK    3  A    between atoms: C_8  and  N_9 
REMARK       I    between atoms: N_9  and  C_10 
REMARK       I    between atoms: C_10  and  N_11 
ROOT
HETATM    1  N   UNL     1      23.299  48.537  49.472  1.00  0.00    -0.309 N 
HETATM    2  C   UNL     1      23.622  47.217  49.255  1.00  0.00     0.323 C 
HETATM    3  N   UNL     1      24.760  46.761  49.915  1.00  0.00    -0.328 N 
HETATM    4  C   UNL     1      25.199  45.398  49.565  1.00  0.00     0.185 C 
HETATM    5  C   UNL     1      25.963  44.808  50.696  1.00  0.00     0.035 A 
HETATM    6  C   UNL     1      26.372  45.443  51.847  1.00  0.00    -0.020 A 
HETATM    7  C   UNL     1      26.043  46.868  52.091  1.00  0.00     0.061 C 
HETATM    8  C   UNL     1      25.681  47.562  50.761  1.00  0.00     0.132 C 
HETATM    9  N   UNL     1      26.373  43.505  50.761  1.00  0.00    -0.357 N 
HETATM   10  H   UNL     1      26.200  42.795  50.062  1.00  0.00     0.166 HD
HETATM   11  C   UNL     1      27.051  43.287  51.942  1.00  0.00     0.043 A 
HETATM   12  C   UNL     1      27.065  44.495  52.646  1.00  0.00    -0.001 A 
HETATM   13  C   UNL     1      27.639  42.118  52.441  1.00  0.00     0.030 A 
HETATM   14  C   UNL     1      28.262  42.187  53.691  1.00  0.00     0.002 A 
HETATM   15  C   UNL     1      28.291  43.378  54.413  1.00  0.00     0.001 A 
HETATM   16  C   UNL     1      27.697  44.538  53.904  1.00  0.00     0.014 A 
HETATM   17  O   UNL     1      22.964  46.468  48.534  1.00  0.00    -0.247 OA
HETATM   18  H   UNL     1      24.056  49.144  49.731  1.00  0.00     0.170 HD
ENDROOT
BRANCH   1  19
HETATM   19  C   UNL     1      22.091  49.188  49.140  1.00  0.00     0.038 A 
HETATM   20  C   UNL     1      20.827  48.619  49.295  1.00  0.00     0.056 A 
HETATM   21  C   UNL     1      19.676  49.349  48.972  1.00  0.00     0.069 A 
HETATM   22  C   UNL     1      19.766  50.669  48.506  1.00  0.00     0.090 A 
HETATM   23 CL   UNL     1      18.140  48.579  49.188  1.00  0.00    -0.081 Cl
HETATM   24  C   UNL     1      21.031  51.236  48.347  1.00  0.00     0.041 A 
HETATM   25  C   UNL     1      22.181  50.502  48.665  1.00  0.00     0.032 A 
BRANCH  22  26
HETATM   26  O   UNL     1      18.589  51.311  48.220  1.00  0.00    -0.350 OA
BRANCH  26  27
HETATM   27  C   UNL     1      18.347  52.561  48.859  1.00  0.00     0.171 C 
HETATM   28  C   UNL     1      17.225  52.362  49.863  1.00  0.00     0.034 C 
ENDBRANCH  26  27
ENDBRANCH  22  26
ENDBRANCH   1  19
TORSDOF 3
ENDMDL
MODEL 5
REMARK VINA RESULT:      -8.4      2.641      3.173
REMARK  3 active torsions:
REMARK  status: ('A' for Active; 'I' for Inactive)
REMARK    1  A    between atoms: C_2  and  O_3 
REMARK    2  A    between atoms: O_3  and  C_4 
REMARK    3  A    between atoms: C_8  and  N_9 
REMARK       I    between atoms: N_9  and  C_10 
REMARK       I    between atoms: C_10  and  N_11 
ROOT
HETATM    1  N   UNL     1      24.034  45.153  50.656  1.00  0.00    -0.309 N 
HETATM    2  C   UNL     1      24.756  46.014  51.451  1.00  0.00     0.323 C 
HETATM    3  N   UNL     1      25.478  45.417  52.482  1.00  0.00    -0.328 N 
HETATM    4  C   UNL     1      26.125  46.342  53.428  1.00  0.00     0.185 C 
HETATM    5  C   UNL     1      27.305  45.685  54.051  1.00  0.00     0.035 A 
HETATM    6  C   UNL     1      27.686  44.367  53.929  1.00  0.00    -0.020 A 
HETATM    7  C   UNL     1      26.911  43.424  53.086  1.00  0.00     0.061 C 
HETATM    8  C   UNL     1      25.491  43.976  52.842  1.00  0.00     0.132 C 
HETATM    9  N   UNL     1      28.216  46.317  54.851  1.00  0.00    -0.357 N 
HETATM   10  H   UNL     1      28.201  47.296  55.104  1.00  0.00     0.166 HD
HETATM   11  C   UNL     1      29.184  45.422  55.256  1.00  0.00     0.043 A 
HETATM   12  C   UNL     1      28.872  44.183  54.688  1.00  0.00    -0.001 A 
HETATM   13  C   UNL     1      30.307  45.616  56.068  1.00  0.00     0.030 A 
HETATM   14  C   UNL     1      31.133  44.514  56.308  1.00  0.00     0.002 A 
HETATM   15  C   UNL     1      30.845  43.268  55.756  1.00  0.00     0.001 A 
HETATM   16  C   UNL     1      29.720  43.088  54.945  1.00  0.00     0.014 A 
HETATM   17  O   UNL     1      24.782  47.232  51.283  1.00  0.00    -0.247 OA
HETATM   18  H   UNL     1      23.762  44.282  51.076  1.00  0.00     0.170 HD
ENDROOT
BRANCH   1  19
HETATM   19  C   UNL     1      23.422  45.443  49.417  1.00  0.00     0.038 A 
HETATM   20  C   UNL     1      22.810  46.658  49.113  1.00  0.00     0.056 A 
HETATM   21  C   UNL     1      22.255  46.874  47.845  1.00  0.00     0.069 A 
HETATM   22  C   UNL     1      22.320  45.887  46.851  1.00  0.00     0.090 A 
HETATM   23 CL   UNL     1      21.509  48.406  47.536  1.00  0.00    -0.081 Cl
HETATM   24  C   UNL     1      22.929  44.669  47.158  1.00  0.00     0.041 A 
HETATM   25  C   UNL     1      23.478  44.453  48.429  1.00  0.00     0.032 A 
BRANCH  22  26
HETATM   26  O   UNL     1      21.758  46.185  45.637  1.00  0.00    -0.350 OA
BRANCH  26  27
HETATM   27  C   UNL     1      20.506  45.582  45.322  1.00  0.00     0.171 C 
HETATM   28  C   UNL     1      19.613  46.652  44.718  1.00  0.00     0.034 C 
ENDBRANCH  26  27
ENDBRANCH  22  26
ENDBRANCH   1  19
TORSDOF 3
ENDMDL
MODEL 6
REMARK VINA RESULT:      -8.0      3.060     10.161
REMARK  3 active torsions:
REMARK  status: ('A' for Active; 'I' for Inactive)
REMARK    1  A    between atoms: C_2  and  O_3 
REMARK    2  A    between atoms: O_3  and  C_4 
REMARK    3  A    between atoms: C_8  and  N_9 
REMARK       I    between atoms: N_9  and  C_10 
REMARK       I    between atoms: C_10  and  N_11 
ROOT
HETATM    1  N   UNL     1      25.839  45.593  50.846  1.00  0.00    -0.309 N 
HETATM    2  C   UNL     1      25.586  46.905  50.517  1.00  0.00     0.323 C 
HETATM    3  N   UNL     1      24.571  47.105  49.583  1.00  0.00    -0.328 N 
HETATM    4  C   UNL     1      24.401  48.490  49.111  1.00  0.00     0.185 C 
HETATM    5  C   UNL     1      23.000  48.701  48.658  1.00  0.00     0.035 A 
HETATM    6  C   UNL     1      22.016  47.748  48.521  1.00  0.00    -0.020 A 
HETATM    7  C   UNL     1      22.276  46.328  48.860  1.00  0.00     0.061 C 
HETATM    8  C   UNL     1      23.796  46.057  48.872  1.00  0.00     0.132 C 
HETATM    9  N   UNL     1      22.469  49.912  48.311  1.00  0.00    -0.357 N 
HETATM   10  H   UNL     1      22.956  50.798  48.331  1.00  0.00     0.166 HD
HETATM   11  C   UNL     1      21.148  49.756  47.945  1.00  0.00     0.043 A 
HETATM   12  C   UNL     1      20.838  48.398  48.067  1.00  0.00    -0.001 A 
HETATM   13  C   UNL     1      20.211  50.707  47.526  1.00  0.00     0.030 A 
HETATM   14  C   UNL     1      18.922  50.259  47.221  1.00  0.00     0.002 A 
HETATM   15  C   UNL     1      18.586  48.911  47.334  1.00  0.00     0.001 A 
HETATM   16  C   UNL     1      19.532  47.972  47.756  1.00  0.00     0.014 A 
HETATM   17  O   UNL     1      26.196  47.856  51.001  1.00  0.00    -0.247 OA
HETATM   18  H   UNL     1      25.591  44.905  50.157  1.00  0.00     0.170 HD
ENDROOT
BRANCH   1  19
HETATM   19  C   UNL     1      26.622  45.117  51.920  1.00  0.00     0.038 A 
HETATM   20  C   UNL     1      27.685  44.226  51.778  1.00  0.00     0.056 A 
HETATM   21  C   UNL     1      28.432  43.829  52.894  1.00  0.00     0.069 A 
HETATM   22  C   UNL     1      28.143  44.330  54.171  1.00  0.00     0.090 A 
HETATM   23 CL   UNL     1      29.738  42.719  52.644  1.00  0.00    -0.081 Cl
HETATM   24  C   UNL     1      27.076  45.219  54.314  1.00  0.00     0.041 A 
HETATM   25  C   UNL     1      26.326  45.610  53.197  1.00  0.00     0.032 A 
BRANCH  22  26
HETATM   26  O   UNL     1      28.928  43.895  55.206  1.00  0.00    -0.350 OA
BRANCH  26  27
HETATM   27  C   UNL     1      29.973  44.756  55.651  1.00  0.00     0.171 C 
HETATM   28  C   UNL     1      31.062  43.891  56.261  1.00  0.00     0.034 C 
ENDBRANCH  26  27
ENDBRANCH  22  26
ENDBRANCH   1  19
TORSDOF 3
ENDMDL
MODEL 7
REMARK VINA RESULT:      -8.0      7.017     10.349
REMARK  3 active torsions:
REMARK  status: ('A' for Active; 'I' for Inactive)
REMARK    1  A    between atoms: C_2  and  O_3 
REMARK    2  A    between atoms: O_3  and  C_4 
REMARK    3  A    between atoms: C_8  and  N_9 
REMARK       I    between atoms: N_9  and  C_10 
REMARK       I    between atoms: C_10  and  N_11 
ROOT
HETATM    1  N   UNL     1      28.108  42.112  51.770  1.00  0.00    -0.309 N 
HETATM    2  C   UNL     1      28.429  40.803  51.495  1.00  0.00     0.323 C 
HETATM    3  N   UNL     1      28.007  40.329  50.255  1.00  0.00    -0.328 N 
HETATM    4  C   UNL     1      28.211  38.889  50.019  1.00  0.00     0.185 C 
HETATM    5  C   UNL     1      28.324  38.628  48.559  1.00  0.00     0.035 A 
HETATM    6  C   UNL     1      28.114  39.522  47.533  1.00  0.00    -0.020 A 
HETATM    7  C   UNL     1      27.754  40.933  47.813  1.00  0.00     0.061 C 
HETATM    8  C   UNL     1      27.200  41.063  49.248  1.00  0.00     0.132 C 
HETATM    9  N   UNL     1      28.674  37.426  48.008  1.00  0.00    -0.357 N 
HETATM   10  H   UNL     1      28.903  36.586  48.522  1.00  0.00     0.166 HD
HETATM   11  C   UNL     1      28.688  37.528  46.633  1.00  0.00     0.043 A 
HETATM   12  C   UNL     1      28.338  38.842  46.307  1.00  0.00    -0.001 A 
HETATM   13  C   UNL     1      28.992  36.567  45.661  1.00  0.00     0.030 A 
HETATM   14  C   UNL     1      28.932  36.958  44.320  1.00  0.00     0.002 A 
HETATM   15  C   UNL     1      28.585  38.260  43.967  1.00  0.00     0.001 A 
HETATM   16  C   UNL     1      28.286  39.211  44.949  1.00  0.00     0.014 A 
HETATM   17  O   UNL     1      29.051  40.079  52.272  1.00  0.00    -0.247 OA
HETATM   18  H   UNL     1      27.307  42.484  51.290  1.00  0.00     0.170 HD
ENDROOT
BRANCH   1  19
HETATM   19  C   UNL     1      28.609  42.914  52.819  1.00  0.00     0.038 A 
HETATM   20  C   UNL     1      27.948  44.029  53.334  1.00  0.00     0.056 A 
HETATM   21  C   UNL     1      28.501  44.751  54.400  1.00  0.00     0.069 A 
HETATM   22  C   UNL     1      29.715  44.360  54.983  1.00  0.00     0.090 A 
HETATM   23 CL   UNL     1      27.628  46.126  54.989  1.00  0.00    -0.081 Cl
HETATM   24  C   UNL     1      30.378  43.246  54.464  1.00  0.00     0.041 A 
HETATM   25  C   UNL     1      29.825  42.529  53.394  1.00  0.00     0.032 A 
BRANCH  22  26
HETATM   26  O   UNL     1      30.180  45.118  56.026  1.00  0.00    -0.350 OA
BRANCH  26  27
HETATM   27  C   UNL     1      30.976  44.468  57.013  1.00  0.00     0.171 C 
HETATM   28  C   UNL     1      30.797  45.216  58.322  1.00  0.00     0.034 C 
ENDBRANCH  26  27
ENDBRANCH  22  26
ENDBRANCH   1  19
TORSDOF 3
ENDMDL
MODEL 8
REMARK VINA RESULT:      -7.8      3.224      5.087
REMARK  3 active torsions:
REMARK  status: ('A' for Active; 'I' for Inactive)
REMARK    1  A    between atoms: C_2  and  O_3 
REMARK    2  A    between atoms: O_3  and  C_4 
REMARK    3  A    between atoms: C_8  and  N_9 
REMARK       I    between atoms: N_9  and  C_10 
REMARK       I    between atoms: C_10  and  N_11 
ROOT
HETATM    1  N   UNL     1      23.108  48.141  49.413  1.00  0.00    -0.309 N 
HETATM    2  C   UNL     1      23.600  46.867  49.240  1.00  0.00     0.323 C 
HETATM    3  N   UNL     1      24.766  46.573  49.942  1.00  0.00    -0.328 N 
HETATM    4  C   UNL     1      25.381  45.269  49.640  1.00  0.00     0.185 C 
HETATM    5  C   UNL     1      26.179  44.805  50.807  1.00  0.00     0.035 A 
HETATM    6  C   UNL     1      26.472  45.513  51.951  1.00  0.00    -0.020 A 
HETATM    7  C   UNL     1      25.960  46.891  52.147  1.00  0.00     0.061 C 
HETATM    8  C   UNL     1      25.554  47.503  50.790  1.00  0.00     0.132 C 
HETATM    9  N   UNL     1      26.747  43.566  50.918  1.00  0.00    -0.357 N 
HETATM   10  H   UNL     1      26.685  42.824  50.234  1.00  0.00     0.166 HD
HETATM   11  C   UNL     1      27.411  43.462  52.122  1.00  0.00     0.043 A 
HETATM   12  C   UNL     1      27.254  44.679  52.794  1.00  0.00    -0.001 A 
HETATM   13  C   UNL     1      28.126  42.389  52.667  1.00  0.00     0.030 A 
HETATM   14  C   UNL     1      28.698  42.565  53.931  1.00  0.00     0.002 A 
HETATM   15  C   UNL     1      28.557  43.767  54.622  1.00  0.00     0.001 A 
HETATM   16  C   UNL     1      27.838  44.830  54.066  1.00  0.00     0.014 A 
HETATM   17  O   UNL     1      23.063  46.025  48.523  1.00  0.00    -0.247 OA
HETATM   18  H   UNL     1      23.776  48.844  49.676  1.00  0.00     0.170 HD
ENDROOT
BRANCH   1  19
HETATM   19  C   UNL     1      21.839  48.627  49.032  1.00  0.00     0.038 A 
HETATM   20  C   UNL     1      21.507  49.980  48.967  1.00  0.00     0.056 A 
HETATM   21  C   UNL     1      20.232  50.379  48.545  1.00  0.00     0.069 A 
HETATM   22  C   UNL     1      19.270  49.432  48.162  1.00  0.00     0.090 A 
HETATM   23 CL   UNL     1      19.889  52.075  48.490  1.00  0.00    -0.081 Cl
HETATM   24  C   UNL     1      19.602  48.078  48.231  1.00  0.00     0.041 A 
HETATM   25  C   UNL     1      20.876  47.682  48.659  1.00  0.00     0.032 A 
BRANCH  22  26
HETATM   26  O   UNL     1      18.052  49.910  47.756  1.00  0.00    -0.350 OA
BRANCH  26  27
HETATM   27  C   UNL     1      16.950  49.752  48.647  1.00  0.00     0.171 C 
HETATM   28  C   UNL     1      16.245  51.093  48.757  1.00  0.00     0.034 C 
ENDBRANCH  26  27
ENDBRANCH  22  26
ENDBRANCH   1  19
TORSDOF 3
ENDMDL
MODEL 9
REMARK VINA RESULT:      -7.7      4.387      6.517
REMARK  3 active torsions:
REMARK  status: ('A' for Active; 'I' for Inactive)
REMARK    1  A    between atoms: C_2  and  O_3 
REMARK    2  A    between atoms: O_3  and  C_4 
REMARK    3  A    between atoms: C_8  and  N_9 
REMARK       I    between atoms: N_9  and  C_10 
REMARK       I    between atoms: C_10  and  N_11 
ROOT
HETATM    1  N   UNL     1      21.961  48.688  49.409  1.00  0.00    -0.309 N 
HETATM    2  C   UNL     1      22.351  47.489  48.858  1.00  0.00     0.323 C 
HETATM    3  N   UNL     1      23.597  47.018  49.266  1.00  0.00    -0.328 N 
HETATM    4  C   UNL     1      24.088  45.819  48.565  1.00  0.00     0.185 C 
HETATM    5  C   UNL     1      25.034  45.075  49.438  1.00  0.00     0.035 A 
HETATM    6  C   UNL     1      25.541  45.478  50.653  1.00  0.00    -0.020 A 
HETATM    7  C   UNL     1      25.139  46.773  51.255  1.00  0.00     0.061 C 
HETATM    8  C   UNL     1      24.557  47.703  50.169  1.00  0.00     0.132 C 
HETATM    9  N   UNL     1      25.547  43.839  49.154  1.00  0.00    -0.357 N 
HETATM   10  H   UNL     1      25.338  43.287  48.333  1.00  0.00     0.166 HD
HETATM   11  C   UNL     1      26.386  43.436  50.172  1.00  0.00     0.043 A 
HETATM   12  C   UNL     1      26.400  44.454  51.131  1.00  0.00    -0.001 A 
HETATM   13  C   UNL     1      27.121  42.253  50.319  1.00  0.00     0.030 A 
HETATM   14  C   UNL     1      27.893  42.108  51.476  1.00  0.00     0.002 A 
HETATM   15  C   UNL     1      27.926  43.107  52.446  1.00  0.00     0.001 A 
HETATM   16  C   UNL     1      27.185  44.283  52.287  1.00  0.00     0.014 A 
HETATM   17  O   UNL     1      21.665  46.854  48.060  1.00  0.00    -0.247 OA
HETATM   18  H   UNL     1      22.698  49.297  49.718  1.00  0.00     0.170 HD
ENDROOT
BRANCH   1  19
HETATM   19  C   UNL     1      20.675  49.269  49.371  1.00  0.00     0.038 A 
HETATM   20  C   UNL     1      20.415  50.565  48.927  1.00  0.00     0.056 A 
HETATM   21  C   UNL     1      19.103  51.053  48.890  1.00  0.00     0.069 A 
HETATM   22  C   UNL     1      18.022  50.246  49.278  1.00  0.00     0.090 A 
HETATM   23 CL   UNL     1      18.854  52.672  48.330  1.00  0.00    -0.081 Cl
HETATM   24  C   UNL     1      18.283  48.950  49.725  1.00  0.00     0.041 A 
HETATM   25  C   UNL     1      19.598  48.467  49.767  1.00  0.00     0.032 A 
BRANCH  22  26
HETATM   26  O   UNL     1      16.771  50.801  49.203  1.00  0.00    -0.350 OA
BRANCH  26  27
HETATM   27  C   UNL     1      15.863  50.258  48.248  1.00  0.00     0.171 C 
HETATM   28  C   UNL     1      15.710  51.268  47.125  1.00  0.00     0.034 C 
ENDBRANCH  26  27
ENDBRANCH  22  26
ENDBRANCH   1  19
TORSDOF 3
ENDMDL
MODEL 10
REMARK VINA RESULT:      -7.6      4.686     10.039
REMARK  3 active torsions:
REMARK  status: ('A' for Active; 'I' for Inactive)
REMARK    1  A    between atoms: C_2  and  O_3 
REMARK    2  A    between atoms: O_3  and  C_4 
REMARK    3  A    between atoms: C_8  and  N_9 
REMARK       I    between atoms: N_9  and  C_10 
REMARK       I    between atoms: C_10  and  N_11 
ROOT
HETATM    1  N   UNL     1      26.268  43.468  52.627  1.00  0.00    -0.309 N 
HETATM    2  C   UNL     1      26.531  43.017  51.354  1.00  0.00     0.323 C 
HETATM    3  N   UNL     1      25.412  42.754  50.567  1.00  0.00    -0.328 N 
HETATM    4  C   UNL     1      25.682  42.125  49.262  1.00  0.00     0.185 C 
HETATM    5  C   UNL     1      24.591  42.455  48.307  1.00  0.00     0.035 A 
HETATM    6  C   UNL     1      23.407  43.101  48.584  1.00  0.00    -0.020 A 
HETATM    7  C   UNL     1      23.103  43.583  49.954  1.00  0.00     0.061 C 
HETATM    8  C   UNL     1      23.989  42.847  50.981  1.00  0.00     0.132 C 
HETATM    9  N   UNL     1      24.612  42.163  46.971  1.00  0.00    -0.357 N 
HETATM   10  H   UNL     1      25.366  41.703  46.479  1.00  0.00     0.166 HD
HETATM   11  C   UNL     1      23.450  42.609  46.376  1.00  0.00     0.043 A 
HETATM   12  C   UNL     1      22.671  43.205  47.374  1.00  0.00    -0.001 A 
HETATM   13  C   UNL     1      23.037  42.539  45.041  1.00  0.00     0.030 A 
HETATM   14  C   UNL     1      21.793  43.089  44.716  1.00  0.00     0.002 A 
HETATM   15  C   UNL     1      20.997  43.688  45.690  1.00  0.00     0.001 A 
HETATM   16  C   UNL     1      21.423  43.753  47.021  1.00  0.00     0.014 A 
HETATM   17  O   UNL     1      27.667  42.852  50.914  1.00  0.00    -0.247 OA
HETATM   18  H   UNL     1      25.378  43.209  53.016  1.00  0.00     0.170 HD
ENDROOT
BRANCH   1  19
HETATM   19  C   UNL     1      27.183  44.036  53.540  1.00  0.00     0.038 A 
HETATM   20  C   UNL     1      28.345  43.402  53.978  1.00  0.00     0.056 A 
HETATM   21  C   UNL     1      29.217  44.051  54.861  1.00  0.00     0.069 A 
HETATM   22  C   UNL     1      28.954  45.355  55.307  1.00  0.00     0.090 A 
HETATM   23 CL   UNL     1      30.641  43.204  55.365  1.00  0.00    -0.081 Cl
HETATM   24  C   UNL     1      27.789  45.987  54.871  1.00  0.00     0.041 A 
HETATM   25  C   UNL     1      26.915  45.333  53.993  1.00  0.00     0.032 A 
BRANCH  22  26
HETATM   26  O   UNL     1      29.864  45.917  56.163  1.00  0.00    -0.350 OA
BRANCH  26  27
HETATM   27  C   UNL     1      29.509  46.006  57.541  1.00  0.00     0.171 C 
HETATM   28  C   UNL     1      30.580  45.290  58.345  1.00  0.00     0.034 C 
ENDBRANCH  26  27
ENDBRANCH  22  26
ENDBRANCH   1  19
TORSDOF 3
ENDMDL
