MODEL 1
REMARK VINA RESULT:      -8.9      0.000      0.000
REMARK  7 active torsions:
REMARK  status: ('A' for Active; 'I' for Inactive)
REMARK    1  A    between atoms: C_2  and  N_3 
REMARK    2  A    between atoms: C_2  and  C_10 
REMARK    3  A    between atoms: C_10  and  N_11 
REMARK       I    between atoms: N_11  and  C_12 
REMARK       I    between atoms: C_12  and  N_13 
REMARK    4  A    between atoms: N_13  and  C_14 
REMARK    5  A    between atoms: C_14  and  C_15 
REMARK    6  A    between atoms: C_18  and  N_19 
REMARK       I    between atoms: N_19  and  C_20 
REMARK    7  A    between atoms: C_20  and  C_21 
ROOT
HETATM    1  N   UNL     1      23.236  47.167  49.924  1.00  0.00    -0.341 N 
HETATM    2  C   UNL     1      24.226  46.219  49.878  1.00  0.00     0.316 C 
HETATM    3  N   UNL     1      23.836  45.027  50.410  1.00  0.00    -0.339 N 
HETATM    4  O   UNL     1      25.346  46.464  49.452  1.00  0.00    -0.248 OA
HETATM    5  H   UNL     1      22.288  46.822  50.003  1.00  0.00     0.164 HD
HETATM    6  H   UNL     1      22.863  44.843  50.592  1.00  0.00     0.164 HD
ENDROOT
BRANCH   3   7
HETATM    7  C   UNL     1      24.746  43.903  50.500  1.00  0.00     0.162 C 
BRANCH   7   8
HETATM    8  C   UNL     1      25.760  44.000  51.615  1.00  0.00    -0.040 A 
HETATM    9  C   UNL     1      25.435  44.360  52.928  1.00  0.00     0.011 A 
HETATM   10  C   UNL     1      26.412  44.384  53.934  1.00  0.00     0.030 A 
HETATM   11  C   UNL     1      27.731  44.031  53.652  1.00  0.00     0.035 A 
HETATM   12  C   UNL     1      28.063  43.669  52.344  1.00  0.00     0.030 A 
HETATM   13  C   UNL     1      27.091  43.652  51.338  1.00  0.00     0.011 A 
BRANCH  11  14
HETATM   14  N   UNL     1      28.758  43.989  54.611  1.00  0.00    -0.321 N 
HETATM   15  C   UNL     1      29.306  45.033  55.335  1.00  0.00     0.279 C 
HETATM   16  O   UNL     1      29.008  46.217  55.214  1.00  0.00    -0.265 OA
HETATM   17  H   UNL     1      29.149  43.078  54.831  1.00  0.00     0.169 HD
BRANCH  15  18
HETATM   18  C   UNL     1      30.303  44.580  56.289  1.00  0.00     0.142 A 
HETATM   19  O   UNL     1      30.496  45.290  57.449  1.00  0.00    -0.317 OA
HETATM   20  C   UNL     1      31.484  44.665  58.142  1.00  0.00     0.143 A 
HETATM   21  C   UNL     1      31.931  43.561  57.455  1.00  0.00     0.027 A 
HETATM   22  C   UNL     1      31.172  43.504  56.262  1.00  0.00     0.045 A 
ENDBRANCH  15  18
ENDBRANCH  11  14
ENDBRANCH   7   8
ENDBRANCH   3   7
BRANCH   1  23
HETATM   23  C   UNL     1      23.457  48.484  49.351  1.00  0.00     0.162 C 
BRANCH  23  24
HETATM   24  C   UNL     1      22.318  49.024  48.407  1.00  0.00     0.136 C 
HETATM   25  C   UNL     1      21.798  47.969  47.422  1.00  0.00     0.048 C 
HETATM   26  C   UNL     1      22.872  50.237  47.629  1.00  0.00     0.048 C 
BRANCH  24  27
HETATM   27  N   UNL     1      21.112  49.536  49.306  1.00  0.00    -0.061 N 
HETATM   28  H   UNL     1      21.471  49.515  50.270  1.00  0.00     0.280 HD
HETATM   29  C   UNL     1      20.688  50.978  49.050  1.00  0.00     0.236 C 
HETATM   30  C   UNL     1      19.702  51.427  50.121  1.00  0.00     0.028 C 
HETATM   31  C   UNL     1      18.481  50.521  50.178  1.00  0.00     0.003 C 
HETATM   32  C   UNL     1      18.897  49.070  50.355  1.00  0.00     0.028 C 
HETATM   33  C   UNL     1      19.887  48.627  49.285  1.00  0.00     0.236 C 
ENDBRANCH  24  27
ENDBRANCH  23  24
ENDBRANCH   1  23
TORSDOF 7
ENDMDL
MODEL 2
REMARK VINA RESULT:      -8.7      3.738     12.008
REMARK  7 active torsions:
REMARK  status: ('A' for Active; 'I' for Inactive)
REMARK    1  A    between atoms: C_2  and  N_3 
REMARK    2  A    between atoms: C_2  and  C_10 
REMARK    3  A    between atoms: C_10  and  N_11 
REMARK       I    between atoms: N_11  and  C_12 
REMARK       I    between atoms: C_12  and  N_13 
REMARK    4  A    between atoms: N_13  and  C_14 
REMARK    5  A    between atoms: C_14  and  C_15 
REMARK    6  A    between atoms: C_18  and  N_19 
REMARK       I    between atoms: N_19  and  C_20 
REMARK    7  A    between atoms: C_20  and  C_21 
ROOT
HETATM    1  N   UNL     1      24.375  46.516  50.818  1.00  0.00    -0.341 N 
HETATM    2  C   UNL     1      24.258  47.644  50.046  1.00  0.00     0.316 C 
HETATM    3  N   UNL     1      23.005  47.801  49.535  1.00  0.00    -0.339 N 
HETATM    4  O   UNL     1      25.208  48.379  49.814  1.00  0.00    -0.248 OA
HETATM    5  H   UNL     1      23.516  46.142  51.199  1.00  0.00     0.164 HD
HETATM    6  H   UNL     1      22.236  47.258  49.891  1.00  0.00     0.164 HD
ENDROOT
BRANCH   3   7
HETATM    7  C   UNL     1      22.678  48.904  48.654  1.00  0.00     0.162 C 
BRANCH   7   8
HETATM    8  C   UNL     1      21.374  49.598  48.969  1.00  0.00    -0.040 A 
HETATM    9  C   UNL     1      20.284  48.960  49.572  1.00  0.00     0.011 A 
HETATM   10  C   UNL     1      19.115  49.668  49.888  1.00  0.00     0.030 A 
HETATM   11  C   UNL     1      19.019  51.033  49.621  1.00  0.00     0.035 A 
HETATM   12  C   UNL     1      20.102  51.678  49.020  1.00  0.00     0.030 A 
HETATM   13  C   UNL     1      21.266  50.970  48.698  1.00  0.00     0.011 A 
BRANCH  11  14
HETATM   14  N   UNL     1      17.900  51.822  49.943  1.00  0.00    -0.321 N 
HETATM   15  C   UNL     1      16.809  52.136  49.152  1.00  0.00     0.279 C 
HETATM   16  O   UNL     1      16.661  51.808  47.979  1.00  0.00    -0.265 OA
HETATM   17  H   UNL     1      17.858  52.203  50.883  1.00  0.00     0.169 HD
BRANCH  15  18
HETATM   18  C   UNL     1      15.816  52.919  49.867  1.00  0.00     0.142 A 
HETATM   19  O   UNL     1      16.131  54.189  50.282  1.00  0.00    -0.317 OA
HETATM   20  C   UNL     1      15.043  54.681  50.930  1.00  0.00     0.143 A 
HETATM   21  C   UNL     1      14.027  53.755  50.938  1.00  0.00     0.027 A 
HETATM   22  C   UNL     1      14.522  52.620  50.253  1.00  0.00     0.045 A 
ENDBRANCH  15  18
ENDBRANCH  11  14
ENDBRANCH   7   8
ENDBRANCH   3   7
BRANCH   1  23
HETATM   23  C   UNL     1      25.629  46.217  51.490  1.00  0.00     0.162 C 
BRANCH  23  24
HETATM   24  C   UNL     1      26.193  44.762  51.277  1.00  0.00     0.136 C 
HETATM   25  C   UNL     1      26.697  44.510  49.850  1.00  0.00     0.048 C 
HETATM   26  C   UNL     1      25.073  43.757  51.620  1.00  0.00     0.048 C 
BRANCH  24  27
HETATM   27  N   UNL     1      27.386  44.524  52.300  1.00  0.00    -0.061 N 
HETATM   28  H   UNL     1      28.010  45.332  52.174  1.00  0.00     0.280 HD
HETATM   29  C   UNL     1      26.981  44.533  53.771  1.00  0.00     0.236 C 
HETATM   30  C   UNL     1      28.225  44.538  54.650  1.00  0.00     0.028 C 
HETATM   31  C   UNL     1      29.126  43.347  54.359  1.00  0.00     0.003 C 
HETATM   32  C   UNL     1      29.471  43.283  52.880  1.00  0.00     0.028 C 
HETATM   33  C   UNL     1      28.224  43.284  52.004  1.00  0.00     0.236 C 
ENDBRANCH  24  27
ENDBRANCH  23  24
ENDBRANCH   1  23
TORSDOF 7
ENDMDL
MODEL 3
REMARK VINA RESULT:      -8.5      3.041     11.557
REMARK  7 active torsions:
REMARK  status: ('A' for Active; 'I' for Inactive)
REMARK    1  A    between atoms: C_2  and  N_3 
REMARK    2  A    between atoms: C_2  and  C_10 
REMARK    3  A    between atoms: C_10  and  N_11 
REMARK       I    between atoms: N_11  and  C_12 
REMARK       I    between atoms: C_12  and  N_13 
REMARK    4  A    between atoms: N_13  and  C_14 
REMARK    5  A    between atoms: C_14  and  C_15 
REMARK    6  A    between atoms: C_18  and  N_19 
REMARK       I    between atoms: N_19  and  C_20 
REMARK    7  A    between atoms: C_20  and  C_21 
ROOT
HETATM    1  N   UNL     1      25.954  45.479  50.309  1.00  0.00    -0.341 N 
HETATM    2  C   UNL     1      26.107  46.717  49.738  1.00  0.00     0.316 C 
HETATM    3  N   UNL     1      24.942  47.422  49.693  1.00  0.00    -0.339 N 
HETATM    4  O   UNL     1      27.174  47.096  49.277  1.00  0.00    -0.248 OA
HETATM    5  H   UNL     1      25.153  45.361  50.915  1.00  0.00     0.164 HD
HETATM    6  H   UNL     1      24.144  47.124  50.230  1.00  0.00     0.164 HD
ENDROOT
BRANCH   3   7
HETATM    7  C   UNL     1      24.874  48.736  49.088  1.00  0.00     0.162 C 
BRANCH   7   8
HETATM    8  C   UNL     1      23.487  49.332  49.026  1.00  0.00    -0.040 A 
HETATM    9  C   UNL     1      23.240  50.704  48.895  1.00  0.00     0.011 A 
HETATM   10  C   UNL     1      21.931  51.196  48.791  1.00  0.00     0.030 A 
HETATM   11  C   UNL     1      20.842  50.324  48.797  1.00  0.00     0.035 A 
HETATM   12  C   UNL     1      21.081  48.953  48.926  1.00  0.00     0.030 A 
HETATM   13  C   UNL     1      22.387  48.463  49.038  1.00  0.00     0.011 A 
BRANCH  11  14
HETATM   14  N   UNL     1      19.504  50.732  48.657  1.00  0.00    -0.321 N 
HETATM   15  C   UNL     1      18.495  50.722  49.603  1.00  0.00     0.279 C 
HETATM   16  O   UNL     1      18.595  50.290  50.747  1.00  0.00    -0.265 OA
HETATM   17  H   UNL     1      19.228  51.107  47.754  1.00  0.00     0.169 HD
BRANCH  15  18
HETATM   18  C   UNL     1      17.259  51.296  49.098  1.00  0.00     0.142 A 
HETATM   19  O   UNL     1      16.399  51.915  49.971  1.00  0.00    -0.317 OA
HETATM   20  C   UNL     1      15.330  52.339  49.247  1.00  0.00     0.143 A 
HETATM   21  C   UNL     1      15.484  52.011  47.921  1.00  0.00     0.027 A 
HETATM   22  C   UNL     1      16.726  51.339  47.823  1.00  0.00     0.045 A 
ENDBRANCH  15  18
ENDBRANCH  11  14
ENDBRANCH   7   8
ENDBRANCH   3   7
BRANCH   1  23
HETATM   23  C   UNL     1      27.104  44.610  50.490  1.00  0.00     0.162 C 
BRANCH  23  24
HETATM   24  C   UNL     1      26.972  43.520  51.620  1.00  0.00     0.136 C 
HETATM   25  C   UNL     1      26.916  42.087  51.076  1.00  0.00     0.048 C 
HETATM   26  C   UNL     1      25.693  43.821  52.430  1.00  0.00     0.048 C 
BRANCH  24  27
HETATM   27  N   UNL     1      28.211  43.656  52.605  1.00  0.00    -0.061 N 
HETATM   28  H   UNL     1      28.752  44.453  52.244  1.00  0.00     0.280 HD
HETATM   29  C   UNL     1      27.851  44.013  54.043  1.00  0.00     0.236 C 
HETATM   30  C   UNL     1      29.114  44.349  54.826  1.00  0.00     0.028 C 
HETATM   31  C   UNL     1      30.114  43.203  54.802  1.00  0.00     0.003 C 
HETATM   32  C   UNL     1      30.420  42.786  53.372  1.00  0.00     0.028 C 
HETATM   33  C   UNL     1      29.153  42.456  52.592  1.00  0.00     0.236 C 
ENDBRANCH  24  27
ENDBRANCH  23  24
ENDBRANCH   1  23
TORSDOF 7
ENDMDL
MODEL 4
REMARK VINA RESULT:      -8.4      1.921      3.139
REMARK  7 active torsions:
REMARK  status: ('A' for Active; 'I' for Inactive)
REMARK    1  A    between atoms: C_2  and  N_3 
REMARK    2  A    between atoms: C_2  and  C_10 
REMARK    3  A    between atoms: C_10  and  N_11 
REMARK       I    between atoms: N_11  and  C_12 
REMARK       I    between atoms: C_12  and  N_13 
REMARK    4  A    between atoms: N_13  and  C_14 
REMARK    5  A    between atoms: C_14  and  C_15 
REMARK    6  A    between atoms: C_18  and  N_19 
REMARK       I    between atoms: N_19  and  C_20 
REMARK    7  A    between atoms: C_20  and  C_21 
ROOT
HETATM    1  N   UNL     1      20.033  46.021  49.347  1.00  0.00    -0.341 N 
HETATM    2  C   UNL     1      21.142  45.415  48.813  1.00  0.00     0.316 C 
HETATM    3  N   UNL     1      21.688  44.489  49.650  1.00  0.00    -0.339 N 
HETATM    4  O   UNL     1      21.599  45.733  47.724  1.00  0.00    -0.248 OA
HETATM    5  H   UNL     1      19.556  45.515  50.083  1.00  0.00     0.164 HD
HETATM    6  H   UNL     1      21.176  44.162  50.453  1.00  0.00     0.164 HD
ENDROOT
BRANCH   3   7
HETATM    7  C   UNL     1      22.893  43.765  49.298  1.00  0.00     0.162 C 
BRANCH   7   8
HETATM    8  C   UNL     1      24.044  43.949  50.257  1.00  0.00    -0.040 A 
HETATM    9  C   UNL     1      24.407  45.186  50.803  1.00  0.00     0.011 A 
HETATM   10  C   UNL     1      25.454  45.289  51.730  1.00  0.00     0.030 A 
HETATM   11  C   UNL     1      26.149  44.154  52.144  1.00  0.00     0.035 A 
HETATM   12  C   UNL     1      25.793  42.915  51.605  1.00  0.00     0.030 A 
HETATM   13  C   UNL     1      24.753  42.813  50.674  1.00  0.00     0.011 A 
BRANCH  11  14
HETATM   14  N   UNL     1      27.182  44.165  53.097  1.00  0.00    -0.321 N 
HETATM   15  C   UNL     1      28.447  43.612  53.007  1.00  0.00     0.279 C 
HETATM   16  O   UNL     1      28.869  42.950  52.064  1.00  0.00    -0.265 OA
HETATM   17  H   UNL     1      27.004  44.660  53.966  1.00  0.00     0.169 HD
BRANCH  15  18
HETATM   18  C   UNL     1      29.261  43.900  54.176  1.00  0.00     0.142 A 
HETATM   19  O   UNL     1      29.001  45.027  54.916  1.00  0.00    -0.317 OA
HETATM   20  C   UNL     1      29.909  45.061  55.927  1.00  0.00     0.143 A 
HETATM   21  C   UNL     1      30.749  43.975  55.857  1.00  0.00     0.027 A 
HETATM   22  C   UNL     1      30.333  43.226  54.730  1.00  0.00     0.045 A 
ENDBRANCH  15  18
ENDBRANCH  11  14
ENDBRANCH   7   8
ENDBRANCH   3   7
BRANCH   1  23
HETATM   23  C   UNL     1      19.287  46.997  48.570  1.00  0.00     0.162 C 
BRANCH  23  24
HETATM   24  C   UNL     1      19.173  48.436  49.202  1.00  0.00     0.136 C 
HETATM   25  C   UNL     1      18.687  48.421  50.657  1.00  0.00     0.048 C 
HETATM   26  C   UNL     1      18.201  49.265  48.336  1.00  0.00     0.048 C 
BRANCH  24  27
HETATM   27  N   UNL     1      20.597  49.136  49.136  1.00  0.00    -0.061 N 
HETATM   28  H   UNL     1      21.233  48.493  49.628  1.00  0.00     0.280 HD
HETATM   29  C   UNL     1      21.169  49.295  47.731  1.00  0.00     0.236 C 
HETATM   30  C   UNL     1      22.621  49.750  47.811  1.00  0.00     0.028 C 
HETATM   31  C   UNL     1      22.761  51.051  48.587  1.00  0.00     0.003 C 
HETATM   32  C   UNL     1      22.124  50.928  49.962  1.00  0.00     0.028 C 
HETATM   33  C   UNL     1      20.674  50.467  49.877  1.00  0.00     0.236 C 
ENDBRANCH  24  27
ENDBRANCH  23  24
ENDBRANCH   1  23
TORSDOF 7
ENDMDL
MODEL 5
REMARK VINA RESULT:      -8.4      4.375     12.281
REMARK  7 active torsions:
REMARK  status: ('A' for Active; 'I' for Inactive)
REMARK    1  A    between atoms: C_2  and  N_3 
REMARK    2  A    between atoms: C_2  and  C_10 
REMARK    3  A    between atoms: C_10  and  N_11 
REMARK       I    between atoms: N_11  and  C_12 
REMARK       I    between atoms: C_12  and  N_13 
REMARK    4  A    between atoms: N_13  and  C_14 
REMARK    5  A    between atoms: C_14  and  C_15 
REMARK    6  A    between atoms: C_18  and  N_19 
REMARK       I    between atoms: N_19  and  C_20 
REMARK    7  A    between atoms: C_20  and  C_21 
ROOT
HETATM    1  N   UNL     1      23.791  47.721  50.398  1.00  0.00    -0.341 N 
HETATM    2  C   UNL     1      23.242  48.298  49.281  1.00  0.00     0.316 C 
HETATM    3  N   UNL     1      21.929  48.621  49.449  1.00  0.00    -0.339 N 
HETATM    4  O   UNL     1      23.873  48.442  48.243  1.00  0.00    -0.248 OA
HETATM    5  H   UNL     1      23.321  47.905  51.275  1.00  0.00     0.164 HD
HETATM    6  H   UNL     1      21.518  48.626  50.368  1.00  0.00     0.164 HD
ENDROOT
BRANCH   3   7
HETATM    7  C   UNL     1      21.148  49.200  48.375  1.00  0.00     0.162 C 
BRANCH   7   8
HETATM    8  C   UNL     1      20.106  50.199  48.820  1.00  0.00    -0.040 A 
HETATM    9  C   UNL     1      20.079  51.532  48.393  1.00  0.00     0.011 A 
HETATM   10  C   UNL     1      19.057  52.402  48.800  1.00  0.00     0.030 A 
HETATM   11  C   UNL     1      18.031  51.951  49.629  1.00  0.00     0.035 A 
HETATM   12  C   UNL     1      18.049  50.622  50.059  1.00  0.00     0.030 A 
HETATM   13  C   UNL     1      19.073  49.756  49.660  1.00  0.00     0.011 A 
BRANCH  11  14
HETATM   14  N   UNL     1      16.949  52.747  50.048  1.00  0.00    -0.321 N 
HETATM   15  C   UNL     1      15.673  52.816  49.519  1.00  0.00     0.279 C 
HETATM   16  O   UNL     1      15.279  52.211  48.527  1.00  0.00    -0.265 OA
HETATM   17  H   UNL     1      17.098  53.339  50.859  1.00  0.00     0.169 HD
BRANCH  15  18
HETATM   18  C   UNL     1      14.808  53.705  50.277  1.00  0.00     0.142 A 
HETATM   19  O   UNL     1      15.310  54.355  51.377  1.00  0.00    -0.317 OA
HETATM   20  C   UNL     1      14.299  55.097  51.900  1.00  0.00     0.143 A 
HETATM   21  C   UNL     1      13.153  54.943  51.157  1.00  0.00     0.027 A 
HETATM   22  C   UNL     1      13.479  54.047  50.110  1.00  0.00     0.045 A 
ENDBRANCH  15  18
ENDBRANCH  11  14
ENDBRANCH   7   8
ENDBRANCH   3   7
BRANCH   1  23
HETATM   23  C   UNL     1      25.199  47.361  50.418  1.00  0.00     0.162 C 
BRANCH  23  24
HETATM   24  C   UNL     1      25.517  45.843  50.699  1.00  0.00     0.136 C 
HETATM   25  C   UNL     1      26.638  45.286  49.813  1.00  0.00     0.048 C 
HETATM   26  C   UNL     1      24.222  45.032  50.477  1.00  0.00     0.048 C 
BRANCH  24  27
HETATM   27  N   UNL     1      25.931  45.684  52.225  1.00  0.00    -0.061 N 
HETATM   28  H   UNL     1      25.110  45.265  52.682  1.00  0.00     0.280 HD
HETATM   29  C   UNL     1      27.087  44.722  52.479  1.00  0.00     0.236 C 
HETATM   30  C   UNL     1      27.232  44.470  53.974  1.00  0.00     0.028 C 
HETATM   31  C   UNL     1      27.444  45.764  54.746  1.00  0.00     0.003 C 
HETATM   32  C   UNL     1      26.338  46.761  54.438  1.00  0.00     0.028 C 
HETATM   33  C   UNL     1      26.194  47.006  52.942  1.00  0.00     0.236 C 
ENDBRANCH  24  27
ENDBRANCH  23  24
ENDBRANCH   1  23
TORSDOF 7
ENDMDL
MODEL 6
REMARK VINA RESULT:      -8.3      1.876      2.915
REMARK  7 active torsions:
REMARK  status: ('A' for Active; 'I' for Inactive)
REMARK    1  A    between atoms: C_2  and  N_3 
REMARK    2  A    between atoms: C_2  and  C_10 
REMARK    3  A    between atoms: C_10  and  N_11 
REMARK       I    between atoms: N_11  and  C_12 
REMARK       I    between atoms: C_12  and  N_13 
REMARK    4  A    between atoms: N_13  and  C_14 
REMARK    5  A    between atoms: C_14  and  C_15 
REMARK    6  A    between atoms: C_18  and  N_19 
REMARK       I    between atoms: N_19  and  C_20 
REMARK    7  A    between atoms: C_20  and  C_21 
ROOT
HETATM    1  N   UNL     1      20.506  46.710  48.980  1.00  0.00    -0.341 N 
HETATM    2  C   UNL     1      21.719  46.423  48.410  1.00  0.00     0.316 C 
HETATM    3  N   UNL     1      22.454  45.548  49.153  1.00  0.00    -0.339 N 
HETATM    4  O   UNL     1      22.097  46.954  47.375  1.00  0.00    -0.248 OA
HETATM    5  H   UNL     1      20.150  46.033  49.642  1.00  0.00     0.164 HD
HETATM    6  H   UNL     1      22.025  45.028  49.901  1.00  0.00     0.164 HD
ENDROOT
BRANCH   3   7
HETATM    7  C   UNL     1      23.787  45.146  48.752  1.00  0.00     0.162 C 
BRANCH   7   8
HETATM    8  C   UNL     1      24.763  44.971  49.891  1.00  0.00    -0.040 A 
HETATM    9  C   UNL     1      24.384  44.584  51.182  1.00  0.00     0.011 A 
HETATM   10  C   UNL     1      25.341  44.387  52.188  1.00  0.00     0.030 A 
HETATM   11  C   UNL     1      26.699  44.556  51.919  1.00  0.00     0.035 A 
HETATM   12  C   UNL     1      27.085  44.941  50.633  1.00  0.00     0.030 A 
HETATM   13  C   UNL     1      26.130  45.145  49.631  1.00  0.00     0.011 A 
BRANCH  11  14
HETATM   14  N   UNL     1      27.722  44.339  52.859  1.00  0.00    -0.321 N 
HETATM   15  C   UNL     1      28.006  45.057  54.007  1.00  0.00     0.279 C 
HETATM   16  O   UNL     1      27.420  46.070  54.377  1.00  0.00    -0.265 OA
HETATM   17  H   UNL     1      28.330  43.541  52.704  1.00  0.00     0.169 HD
BRANCH  15  18
HETATM   18  C   UNL     1      29.101  44.477  54.765  1.00  0.00     0.142 A 
HETATM   19  O   UNL     1      29.685  45.207  55.770  1.00  0.00    -0.317 OA
HETATM   20  C   UNL     1      30.679  44.444  56.294  1.00  0.00     0.143 A 
HETATM   21  C   UNL     1      30.748  43.232  55.651  1.00  0.00     0.027 A 
HETATM   22  C   UNL     1      29.732  43.250  54.665  1.00  0.00     0.045 A 
ENDBRANCH  15  18
ENDBRANCH  11  14
ENDBRANCH   7   8
ENDBRANCH   3   7
BRANCH   1  23
HETATM   23  C   UNL     1      19.566  47.584  48.298  1.00  0.00     0.162 C 
BRANCH  23  24
HETATM   24  C   UNL     1      18.467  48.255  49.206  1.00  0.00     0.136 C 
HETATM   25  C   UNL     1      18.786  48.171  50.704  1.00  0.00     0.048 C 
HETATM   26  C   UNL     1      17.118  47.560  48.920  1.00  0.00     0.048 C 
BRANCH  24  27
HETATM   27  N   UNL     1      18.323  49.781  48.789  1.00  0.00    -0.061 N 
HETATM   28  H   UNL     1      17.504  49.811  48.166  1.00  0.00     0.280 HD
HETATM   29  C   UNL     1      18.009  50.734  49.938  1.00  0.00     0.236 C 
HETATM   30  C   UNL     1      17.660  52.111  49.388  1.00  0.00     0.028 C 
HETATM   31  C   UNL     1      18.780  52.675  48.528  1.00  0.00     0.003 C 
HETATM   32  C   UNL     1      19.155  51.697  47.425  1.00  0.00     0.028 C 
HETATM   33  C   UNL     1      19.499  50.320  47.979  1.00  0.00     0.236 C 
ENDBRANCH  24  27
ENDBRANCH  23  24
ENDBRANCH   1  23
TORSDOF 7
ENDMDL
MODEL 7
REMARK VINA RESULT:      -8.2      2.468     10.813
REMARK  7 active torsions:
REMARK  status: ('A' for Active; 'I' for Inactive)
REMARK    1  A    between atoms: C_2  and  N_3 
REMARK    2  A    between atoms: C_2  and  C_10 
REMARK    3  A    between atoms: C_10  and  N_11 
REMARK       I    between atoms: N_11  and  C_12 
REMARK       I    between atoms: C_12  and  N_13 
REMARK    4  A    between atoms: N_13  and  C_14 
REMARK    5  A    between atoms: C_14  and  C_15 
REMARK    6  A    between atoms: C_18  and  N_19 
REMARK       I    between atoms: N_19  and  C_20 
REMARK    7  A    between atoms: C_20  and  C_21 
ROOT
HETATM    1  N   UNL     1      26.360  43.529  51.672  1.00  0.00    -0.341 N 
HETATM    2  C   UNL     1      26.125  43.915  50.377  1.00  0.00     0.316 C 
HETATM    3  N   UNL     1      24.828  43.732  50.002  1.00  0.00    -0.339 N 
HETATM    4  O   UNL     1      27.016  44.321  49.645  1.00  0.00    -0.248 OA
HETATM    5  H   UNL     1      25.554  43.494  52.283  1.00  0.00     0.164 HD
HETATM    6  H   UNL     1      24.118  43.550  50.692  1.00  0.00     0.164 HD
ENDROOT
BRANCH   3   7
HETATM    7  C   UNL     1      24.377  44.034  48.659  1.00  0.00     0.162 C 
BRANCH   7   8
HETATM    8  C   UNL     1      23.507  45.264  48.546  1.00  0.00    -0.040 A 
HETATM    9  C   UNL     1      22.333  45.313  47.786  1.00  0.00     0.011 A 
HETATM   10  C   UNL     1      21.536  46.467  47.759  1.00  0.00     0.030 A 
HETATM   11  C   UNL     1      21.889  47.590  48.507  1.00  0.00     0.035 A 
HETATM   12  C   UNL     1      23.059  47.549  49.269  1.00  0.00     0.030 A 
HETATM   13  C   UNL     1      23.858  46.400  49.290  1.00  0.00     0.011 A 
BRANCH  11  14
HETATM   14  N   UNL     1      21.125  48.769  48.566  1.00  0.00    -0.321 N 
HETATM   15  C   UNL     1      19.917  48.984  49.205  1.00  0.00     0.279 C 
HETATM   16  O   UNL     1      19.265  48.132  49.801  1.00  0.00    -0.265 OA
HETATM   17  H   UNL     1      21.505  49.590  48.104  1.00  0.00     0.169 HD
BRANCH  15  18
HETATM   18  C   UNL     1      19.475  50.364  49.103  1.00  0.00     0.142 A 
HETATM   19  O   UNL     1      18.684  50.892  50.093  1.00  0.00    -0.317 OA
HETATM   20  C   UNL     1      18.407  52.175  49.743  1.00  0.00     0.143 A 
HETATM   21  C   UNL     1      19.007  52.489  48.547  1.00  0.00     0.027 A 
HETATM   22  C   UNL     1      19.696  51.324  48.133  1.00  0.00     0.045 A 
ENDBRANCH  15  18
ENDBRANCH  11  14
ENDBRANCH   7   8
ENDBRANCH   3   7
BRANCH   1  23
HETATM   23  C   UNL     1      27.678  43.703  52.260  1.00  0.00     0.162 C 
BRANCH  23  24
HETATM   24  C   UNL     1      27.872  43.102  53.703  1.00  0.00     0.136 C 
HETATM   25  C   UNL     1      28.278  41.623  53.693  1.00  0.00     0.048 C 
HETATM   26  C   UNL     1      26.548  43.274  54.478  1.00  0.00     0.048 C 
BRANCH  24  27
HETATM   27  N   UNL     1      28.987  43.943  54.459  1.00  0.00    -0.061 N 
HETATM   28  H   UNL     1      29.518  44.413  53.713  1.00  0.00     0.280 HD
HETATM   29  C   UNL     1      28.454  45.056  55.355  1.00  0.00     0.236 C 
HETATM   30  C   UNL     1      29.604  45.936  55.829  1.00  0.00     0.028 C 
HETATM   31  C   UNL     1      30.664  45.129  56.565  1.00  0.00     0.003 C 
HETATM   32  C   UNL     1      31.146  43.969  55.709  1.00  0.00     0.028 C 
HETATM   33  C   UNL     1      29.992  43.095  55.233  1.00  0.00     0.236 C 
ENDBRANCH  24  27
ENDBRANCH  23  24
ENDBRANCH   1  23
TORSDOF 7
ENDMDL
MODEL 8
REMARK VINA RESULT:      -8.1      2.525      4.317
REMARK  7 active torsions:
REMARK  status: ('A' for Active; 'I' for Inactive)
REMARK    1  A    between atoms: C_2  and  N_3 
REMARK    2  A    between atoms: C_2  and  C_10 
REMARK    3  A    between atoms: C_10  and  N_11 
REMARK       I    between atoms: N_11  and  C_12 
REMARK       I    between atoms: C_12  and  N_13 
REMARK    4  A    between atoms: N_13  and  C_14 
REMARK    5  A    between atoms: C_14  and  C_15 
REMARK    6  A    between atoms: C_18  and  N_19 
REMARK       I    between atoms: N_19  and  C_20 
REMARK    7  A    between atoms: C_20  and  C_21 
ROOT
HETATM    1  N   UNL     1      20.215  49.507  50.100  1.00  0.00    -0.341 N 
HETATM    2  C   UNL     1      21.238  49.123  49.271  1.00  0.00     0.316 C 
HETATM    3  N   UNL     1      21.408  47.772  49.238  1.00  0.00    -0.339 N 
HETATM    4  O   UNL     1      21.941  49.933  48.682  1.00  0.00    -0.248 OA
HETATM    5  H   UNL     1      19.515  48.805  50.303  1.00  0.00     0.164 HD
HETATM    6  H   UNL     1      20.702  47.159  49.612  1.00  0.00     0.164 HD
ENDROOT
BRANCH   3   7
HETATM    7  C   UNL     1      22.465  47.160  48.458  1.00  0.00     0.162 C 
BRANCH   7   8
HETATM    8  C   UNL     1      23.656  46.695  49.263  1.00  0.00    -0.040 A 
HETATM    9  C   UNL     1      24.375  47.526  50.131  1.00  0.00     0.011 A 
HETATM   10  C   UNL     1      25.441  47.026  50.892  1.00  0.00     0.030 A 
HETATM   11  C   UNL     1      25.800  45.681  50.814  1.00  0.00     0.035 A 
HETATM   12  C   UNL     1      25.086  44.845  49.952  1.00  0.00     0.030 A 
HETATM   13  C   UNL     1      24.027  45.345  49.186  1.00  0.00     0.011 A 
BRANCH  11  14
HETATM   14  N   UNL     1      26.828  45.094  51.573  1.00  0.00    -0.321 N 
HETATM   15  C   UNL     1      26.733  44.409  52.771  1.00  0.00     0.279 C 
HETATM   16  O   UNL     1      25.703  44.243  53.418  1.00  0.00    -0.265 OA
HETATM   17  H   UNL     1      27.769  45.149  51.197  1.00  0.00     0.169 HD
BRANCH  15  18
HETATM   18  C   UNL     1      28.014  43.882  53.210  1.00  0.00     0.142 A 
HETATM   19  O   UNL     1      28.904  43.413  52.275  1.00  0.00    -0.317 OA
HETATM   20  C   UNL     1      29.997  42.970  52.951  1.00  0.00     0.143 A 
HETATM   21  C   UNL     1      29.834  43.148  54.304  1.00  0.00     0.027 A 
HETATM   22  C   UNL     1      28.557  43.736  54.473  1.00  0.00     0.045 A 
ENDBRANCH  15  18
ENDBRANCH  11  14
ENDBRANCH   7   8
ENDBRANCH   3   7
BRANCH   1  23
HETATM   23  C   UNL     1      19.855  50.910  50.217  1.00  0.00     0.162 C 
BRANCH  23  24
HETATM   24  C   UNL     1      18.788  51.435  49.183  1.00  0.00     0.136 C 
HETATM   25  C   UNL     1      19.379  52.385  48.133  1.00  0.00     0.048 C 
HETATM   26  C   UNL     1      17.671  52.153  49.968  1.00  0.00     0.048 C 
BRANCH  24  27
HETATM   27  N   UNL     1      18.137  50.187  48.446  1.00  0.00    -0.061 N 
HETATM   28  H   UNL     1      18.501  49.363  48.944  1.00  0.00     0.280 HD
HETATM   29  C   UNL     1      16.618  50.100  48.553  1.00  0.00     0.236 C 
HETATM   30  C   UNL     1      16.136  48.755  48.025  1.00  0.00     0.028 C 
HETATM   31  C   UNL     1      16.578  48.524  46.587  1.00  0.00     0.003 C 
HETATM   32  C   UNL     1      18.084  48.685  46.455  1.00  0.00     0.028 C 
HETATM   33  C   UNL     1      18.561  50.030  46.989  1.00  0.00     0.236 C 
ENDBRANCH  24  27
ENDBRANCH  23  24
ENDBRANCH   1  23
TORSDOF 7
ENDMDL
MODEL 9
REMARK VINA RESULT:      -8.1     12.314     15.767
REMARK  7 active torsions:
REMARK  status: ('A' for Active; 'I' for Inactive)
REMARK    1  A    between atoms: C_2  and  N_3 
REMARK    2  A    between atoms: C_2  and  C_10 
REMARK    3  A    between atoms: C_10  and  N_11 
REMARK       I    between atoms: N_11  and  C_12 
REMARK       I    between atoms: C_12  and  N_13 
REMARK    4  A    between atoms: N_13  and  C_14 
REMARK    5  A    between atoms: C_14  and  C_15 
REMARK    6  A    between atoms: C_18  and  N_19 
REMARK       I    between atoms: N_19  and  C_20 
REMARK    7  A    between atoms: C_20  and  C_21 
ROOT
HETATM    1  N   UNL     1      31.896  48.214  40.511  1.00  0.00    -0.341 N 
HETATM    2  C   UNL     1      31.017  48.375  39.470  1.00  0.00     0.316 C 
HETATM    3  N   UNL     1      30.135  47.342  39.366  1.00  0.00    -0.339 N 
HETATM    4  O   UNL     1      31.080  49.324  38.703  1.00  0.00    -0.248 OA
HETATM    5  H   UNL     1      31.605  47.591  41.253  1.00  0.00     0.164 HD
HETATM    6  H   UNL     1      30.032  46.680  40.117  1.00  0.00     0.164 HD
ENDROOT
BRANCH   3   7
HETATM    7  C   UNL     1      29.148  47.292  38.305  1.00  0.00     0.162 C 
BRANCH   7   8
HETATM    8  C   UNL     1      27.885  48.073  38.581  1.00  0.00    -0.040 A 
HETATM    9  C   UNL     1      27.683  49.392  38.158  1.00  0.00     0.011 A 
HETATM   10  C   UNL     1      26.468  50.050  38.399  1.00  0.00     0.030 A 
HETATM   11  C   UNL     1      25.424  49.396  39.052  1.00  0.00     0.035 A 
HETATM   12  C   UNL     1      25.617  48.079  39.476  1.00  0.00     0.030 A 
HETATM   13  C   UNL     1      26.832  47.425  39.243  1.00  0.00     0.011 A 
BRANCH  11  14
HETATM   14  N   UNL     1      24.164  49.970  39.295  1.00  0.00    -0.321 N 
HETATM   15  C   UNL     1      23.061  50.018  38.461  1.00  0.00     0.279 C 
HETATM   16  O   UNL     1      23.021  49.596  37.309  1.00  0.00    -0.265 OA
HETATM   17  H   UNL     1      24.016  50.392  40.207  1.00  0.00     0.169 HD
BRANCH  15  18
HETATM   18  C   UNL     1      21.911  50.634  39.100  1.00  0.00     0.142 A 
HETATM   19  O   UNL     1      20.762  50.827  38.373  1.00  0.00    -0.317 OA
HETATM   20  C   UNL     1      19.863  51.428  39.197  1.00  0.00     0.143 A 
HETATM   21  C   UNL     1      20.407  51.622  40.444  1.00  0.00     0.027 A 
HETATM   22  C   UNL     1      21.726  51.111  40.384  1.00  0.00     0.045 A 
ENDBRANCH  15  18
ENDBRANCH  11  14
ENDBRANCH   7   8
ENDBRANCH   3   7
BRANCH   1  23
HETATM   23  C   UNL     1      32.876  49.246  40.807  1.00  0.00     0.162 C 
BRANCH  23  24
HETATM   24  C   UNL     1      32.425  50.346  41.841  1.00  0.00     0.136 C 
HETATM   25  C   UNL     1      33.567  51.274  42.274  1.00  0.00     0.048 C 
HETATM   26  C   UNL     1      31.837  49.631  43.076  1.00  0.00     0.048 C 
BRANCH  24  27
HETATM   27  N   UNL     1      31.266  51.214  41.188  1.00  0.00    -0.061 N 
HETATM   28  H   UNL     1      31.230  50.914  40.204  1.00  0.00     0.280 HD
HETATM   29  C   UNL     1      29.874  50.957  41.754  1.00  0.00     0.236 C 
HETATM   30  C   UNL     1      28.827  51.658  40.897  1.00  0.00     0.028 C 
HETATM   31  C   UNL     1      29.089  53.154  40.802  1.00  0.00     0.003 C 
HETATM   32  C   UNL     1      30.503  53.422  40.312  1.00  0.00     0.028 C 
HETATM   33  C   UNL     1      31.545  52.715  41.169  1.00  0.00     0.236 C 
ENDBRANCH  24  27
ENDBRANCH  23  24
ENDBRANCH   1  23
TORSDOF 7
ENDMDL
MODEL 10
REMARK VINA RESULT:      -8.0     12.764     14.128
REMARK  7 active torsions:
REMARK  status: ('A' for Active; 'I' for Inactive)
REMARK    1  A    between atoms: C_2  and  N_3 
REMARK    2  A    between atoms: C_2  and  C_10 
REMARK    3  A    between atoms: C_10  and  N_11 
REMARK       I    between atoms: N_11  and  C_12 
REMARK       I    between atoms: C_12  and  N_13 
REMARK    4  A    between atoms: N_13  and  C_14 
REMARK    5  A    between atoms: C_14  and  C_15 
REMARK    6  A    between atoms: C_18  and  N_19 
REMARK       I    between atoms: N_19  and  C_20 
REMARK    7  A    between atoms: C_20  and  C_21 
ROOT
HETATM    1  N   UNL     1      26.235  49.680  40.206  1.00  0.00    -0.341 N 
HETATM    2  C   UNL     1      27.119  50.685  39.905  1.00  0.00     0.316 C 
HETATM    3  N   UNL     1      27.251  51.588  40.917  1.00  0.00    -0.339 N 
HETATM    4  O   UNL     1      27.671  50.766  38.817  1.00  0.00    -0.248 OA
HETATM    5  H   UNL     1      26.061  49.515  41.189  1.00  0.00     0.164 HD
HETATM    6  H   UNL     1      26.899  51.378  41.837  1.00  0.00     0.164 HD
ENDROOT
BRANCH   3   7
HETATM    7  C   UNL     1      28.102  52.753  40.788  1.00  0.00     0.162 C 
BRANCH   7   8
HETATM    8  C   UNL     1      29.564  52.502  41.076  1.00  0.00    -0.040 A 
HETATM    9  C   UNL     1      30.552  52.464  40.086  1.00  0.00     0.011 A 
HETATM   10  C   UNL     1      31.902  52.278  40.418  1.00  0.00     0.030 A 
HETATM   11  C   UNL     1      32.293  52.144  41.750  1.00  0.00     0.035 A 
HETATM   12  C   UNL     1      31.312  52.182  42.745  1.00  0.00     0.030 A 
HETATM   13  C   UNL     1      29.965  52.360  42.413  1.00  0.00     0.011 A 
BRANCH  11  14
HETATM   14  N   UNL     1      33.627  51.995  42.169  1.00  0.00    -0.321 N 
HETATM   15  C   UNL     1      34.430  50.870  42.111  1.00  0.00     0.279 C 
HETATM   16  O   UNL     1      34.077  49.763  41.718  1.00  0.00    -0.265 OA
HETATM   17  H   UNL     1      34.087  52.818  42.547  1.00  0.00     0.169 HD
BRANCH  15  18
HETATM   18  C   UNL     1      35.782  51.132  42.575  1.00  0.00     0.142 A 
HETATM   19  O   UNL     1      36.768  50.210  42.325  1.00  0.00    -0.317 OA
HETATM   20  C   UNL     1      37.914  50.691  42.874  1.00  0.00     0.143 A 
HETATM   21  C   UNL     1      37.689  51.908  43.471  1.00  0.00     0.027 A 
HETATM   22  C   UNL     1      36.317  52.195  43.279  1.00  0.00     0.045 A 
ENDBRANCH  15  18
ENDBRANCH  11  14
ENDBRANCH   7   8
ENDBRANCH   3   7
BRANCH   1  23
HETATM   23  C   UNL     1      26.010  48.597  39.263  1.00  0.00     0.162 C 
BRANCH  23  24
HETATM   24  C   UNL     1      27.057  47.420  39.305  1.00  0.00     0.136 C 
HETATM   25  C   UNL     1      27.140  46.636  37.989  1.00  0.00     0.048 C 
HETATM   26  C   UNL     1      26.663  46.469  40.456  1.00  0.00     0.048 C 
BRANCH  24  27
HETATM   27  N   UNL     1      28.487  48.023  39.644  1.00  0.00    -0.061 N 
HETATM   28  H   UNL     1      28.359  49.043  39.620  1.00  0.00     0.280 HD
HETATM   29  C   UNL     1      29.005  47.700  41.042  1.00  0.00     0.236 C 
HETATM   30  C   UNL     1      30.255  48.520  41.334  1.00  0.00     0.028 C 
HETATM   31  C   UNL     1      31.343  48.275  40.300  1.00  0.00     0.003 C 
HETATM   32  C   UNL     1      30.815  48.519  38.895  1.00  0.00     0.028 C 
HETATM   33  C   UNL     1      29.562  47.700  38.610  1.00  0.00     0.236 C 
ENDBRANCH  24  27
ENDBRANCH  23  24
ENDBRANCH   1  23
TORSDOF 7
ENDMDL
