MODEL 1
REMARK VINA RESULT:     -10.3      0.000      0.000
REMARK  9 active torsions:
REMARK  status: ('A' for Active; 'I' for Inactive)
REMARK    1  A    between atoms: C_2  and  C_3 
REMARK    2  A    between atoms: C_4  and  N_5 
REMARK       I    between atoms: N_5  and  C_6 
REMARK    3  A    between atoms: C_6  and  C_7 
REMARK    4  A    between atoms: C_7  and  S_8 
REMARK    5  A    between atoms: S_8  and  C_9 
REMARK    6  A    between atoms: C_13  and  C_14 
REMARK       I    between atoms: C_14  and  N_15 
REMARK    7  A    between atoms: N_15  and  C_16 
REMARK    8  A    between atoms: C_17  and  O_18 
REMARK    9  A    between atoms: C_25  and  C_26 
ROOT
HETATM    1  C   UNL     1      23.236  44.252  49.829  1.00  0.00     0.087 C 
HETATM    2  N   UNL     1      23.679  45.278  50.645  1.00  0.00    -0.353 N 
HETATM    3  C   UNL     1      24.897  45.267  51.301  1.00  0.00     0.019 C 
HETATM    4  C   UNL     1      25.383  46.601  51.812  1.00  0.00     0.069 C 
HETATM    5  C   UNL     1      25.575  44.103  51.412  1.00  0.00     0.046 C 
HETATM    6  C   UNL     1      25.006  42.796  50.858  1.00  0.00     0.104 C 
HETATM    7  C   UNL     1      23.817  43.028  49.915  1.00  0.00     0.055 C 
HETATM    8  C   UNL     1      23.383  41.921  48.968  1.00  0.00     0.019 C 
HETATM    9  N   UNL     1      23.024  41.004  48.182  1.00  0.00    -0.096 N 
HETATM   10  H   UNL     1      23.273  46.186  50.430  1.00  0.00     0.166 HD
ENDROOT
BRANCH   1  11
HETATM   11  S   UNL     1      21.980  44.610  48.648  1.00  0.00    -0.102 SA
BRANCH  11  12
HETATM   12  C   UNL     1      22.147  46.432  48.608  1.00  0.00     0.184 C 
BRANCH  12  13
HETATM   13  C   UNL     1      21.602  47.013  47.312  1.00  0.00     0.231 C 
HETATM   14  N   UNL     1      20.784  48.119  47.340  1.00  0.00    -0.326 N 
HETATM   15  H   UNL     1      20.263  48.170  46.471  1.00  0.00     0.169 HD
HETATM   16  O   UNL     1      21.856  46.521  46.209  1.00  0.00    -0.272 OA
BRANCH  14  17
HETATM   17  C   UNL     1      20.186  48.683  48.479  1.00  0.00     0.041 A 
HETATM   18  C   UNL     1      20.548  49.937  49.003  1.00  0.00    -0.032 A 
HETATM   19  C   UNL     1      19.929  50.368  50.192  1.00  0.00     0.009 A 
HETATM   20  C   UNL     1      18.950  49.593  50.816  1.00  0.00     0.001 A 
HETATM   21  C   UNL     1      18.554  48.387  50.250  1.00  0.00     0.002 A 
HETATM   22  C   UNL     1      19.160  47.941  49.076  1.00  0.00     0.030 A 
BRANCH  18  23
HETATM   23  C   UNL     1      21.478  50.905  48.303  1.00  0.00     0.036 C 
HETATM   24  C   UNL     1      22.867  50.910  48.928  1.00  0.00     0.010 C 
ENDBRANCH  18  23
ENDBRANCH  14  17
ENDBRANCH  12  13
ENDBRANCH  11  12
ENDBRANCH   1  11
BRANCH   6  25
HETATM   25  C   UNL     1      26.071  41.900  50.229  1.00  0.00    -0.044 A 
HETATM   26  C   UNL     1      26.555  40.788  50.941  1.00  0.00     0.008 A 
HETATM   27  C   UNL     1      27.529  39.958  50.384  1.00  0.00     0.001 A 
HETATM   28  C   UNL     1      28.031  40.226  49.114  1.00  0.00     0.000 A 
HETATM   29  C   UNL     1      27.559  41.323  48.396  1.00  0.00     0.001 A 
HETATM   30  C   UNL     1      26.582  42.153  48.945  1.00  0.00     0.008 A 
ENDBRANCH   6  25
BRANCH   5  31
HETATM   31  C   UNL     1      26.973  44.148  51.910  1.00  0.00     0.255 C 
HETATM   32  N   UNL     1      27.077  43.932  53.260  1.00  0.00    -0.321 N 
HETATM   33  H   UNL     1      26.230  43.811  53.806  1.00  0.00     0.169 HD
HETATM   34  O   UNL     1      27.872  44.422  51.123  1.00  0.00    -0.268 OA
BRANCH  32  35
HETATM   35  C   UNL     1      28.261  43.922  54.034  1.00  0.00     0.068 A 
HETATM   36  C   UNL     1      28.483  45.021  54.890  1.00  0.00     0.095 A 
HETATM   37  C   UNL     1      29.639  45.065  55.678  1.00  0.00     0.039 A 
HETATM   38  C   UNL     1      30.573  44.030  55.616  1.00  0.00     0.003 A 
HETATM   39  C   UNL     1      30.356  42.944  54.772  1.00  0.00     0.002 A 
HETATM   40  C   UNL     1      29.203  42.890  53.986  1.00  0.00     0.032 A 
BRANCH  36  41
HETATM   41  O   UNL     1      27.504  45.990  54.874  1.00  0.00    -0.354 OA
HETATM   42  C   UNL     1      27.945  47.342  54.930  1.00  0.00     0.210 C 
ENDBRANCH  36  41
ENDBRANCH  32  35
ENDBRANCH   5  31
TORSDOF 9
ENDMDL
MODEL 2
REMARK VINA RESULT:      -9.8      0.703      1.688
REMARK  9 active torsions:
REMARK  status: ('A' for Active; 'I' for Inactive)
REMARK    1  A    between atoms: C_2  and  C_3 
REMARK    2  A    between atoms: C_4  and  N_5 
REMARK       I    between atoms: N_5  and  C_6 
REMARK    3  A    between atoms: C_6  and  C_7 
REMARK    4  A    between atoms: C_7  and  S_8 
REMARK    5  A    between atoms: S_8  and  C_9 
REMARK    6  A    between atoms: C_13  and  C_14 
REMARK       I    between atoms: C_14  and  N_15 
REMARK    7  A    between atoms: N_15  and  C_16 
REMARK    8  A    between atoms: C_17  and  O_18 
REMARK    9  A    between atoms: C_25  and  C_26 
ROOT
HETATM    1  C   UNL     1      23.061  44.220  49.592  1.00  0.00     0.087 C 
HETATM    2  N   UNL     1      23.491  45.276  50.376  1.00  0.00    -0.353 N 
HETATM    3  C   UNL     1      24.703  45.295  51.044  1.00  0.00     0.019 C 
HETATM    4  C   UNL     1      25.176  46.649  51.513  1.00  0.00     0.069 C 
HETATM    5  C   UNL     1      25.386  44.139  51.200  1.00  0.00     0.046 C 
HETATM    6  C   UNL     1      24.830  42.811  50.687  1.00  0.00     0.104 C 
HETATM    7  C   UNL     1      23.648  43.003  49.725  1.00  0.00     0.055 C 
HETATM    8  C   UNL     1      23.229  41.862  48.813  1.00  0.00     0.019 C 
HETATM    9  N   UNL     1      22.883  40.916  48.056  1.00  0.00    -0.096 N 
HETATM   10  H   UNL     1      23.081  46.174  50.127  1.00  0.00     0.166 HD
ENDROOT
BRANCH   1  11
HETATM   11  S   UNL     1      21.814  44.530  48.389  1.00  0.00    -0.102 SA
BRANCH  11  12
HETATM   12  C   UNL     1      21.932  46.355  48.330  1.00  0.00     0.184 C 
BRANCH  12  13
HETATM   13  C   UNL     1      20.846  46.955  47.449  1.00  0.00     0.231 C 
HETATM   14  N   UNL     1      20.736  48.321  47.321  1.00  0.00    -0.326 N 
HETATM   15  H   UNL     1      19.804  48.551  46.990  1.00  0.00     0.169 HD
HETATM   16  O   UNL     1      20.032  46.259  46.836  1.00  0.00    -0.272 OA
BRANCH  14  17
HETATM   17  C   UNL     1      21.394  49.286  48.101  1.00  0.00     0.041 A 
HETATM   18  C   UNL     1      20.873  49.797  49.304  1.00  0.00    -0.032 A 
HETATM   19  C   UNL     1      21.591  50.815  49.962  1.00  0.00     0.009 A 
HETATM   20  C   UNL     1      22.809  51.277  49.462  1.00  0.00     0.001 A 
HETATM   21  C   UNL     1      23.345  50.714  48.310  1.00  0.00     0.002 A 
HETATM   22  C   UNL     1      22.646  49.711  47.640  1.00  0.00     0.030 A 
BRANCH  18  23
HETATM   23  C   UNL     1      19.647  49.240  49.994  1.00  0.00     0.036 C 
HETATM   24  C   UNL     1      18.397  50.046  49.667  1.00  0.00     0.010 C 
ENDBRANCH  18  23
ENDBRANCH  14  17
ENDBRANCH  12  13
ENDBRANCH  11  12
ENDBRANCH   1  11
BRANCH   6  25
HETATM   25  C   UNL     1      25.906  41.900  50.099  1.00  0.00    -0.044 A 
HETATM   26  C   UNL     1      26.304  40.748  50.800  1.00  0.00     0.008 A 
HETATM   27  C   UNL     1      27.286  39.905  50.280  1.00  0.00     0.001 A 
HETATM   28  C   UNL     1      27.882  40.198  49.057  1.00  0.00     0.000 A 
HETATM   29  C   UNL     1      27.496  41.334  48.349  1.00  0.00     0.001 A 
HETATM   30  C   UNL     1      26.511  42.179  48.862  1.00  0.00     0.008 A 
ENDBRANCH   6  25
BRANCH   5  31
HETATM   31  C   UNL     1      26.779  44.210  51.709  1.00  0.00     0.255 C 
HETATM   32  N   UNL     1      26.883  43.943  53.051  1.00  0.00    -0.321 N 
HETATM   33  H   UNL     1      26.038  43.773  53.585  1.00  0.00     0.169 HD
HETATM   34  O   UNL     1      27.673  44.544  50.940  1.00  0.00    -0.268 OA
BRANCH  32  35
HETATM   35  C   UNL     1      28.063  43.941  53.831  1.00  0.00     0.068 A 
HETATM   36  C   UNL     1      28.236  45.003  54.743  1.00  0.00     0.095 A 
HETATM   37  C   UNL     1      29.386  45.053  55.540  1.00  0.00     0.039 A 
HETATM   38  C   UNL     1      30.360  44.059  55.433  1.00  0.00     0.003 A 
HETATM   39  C   UNL     1      30.190  43.010  54.535  1.00  0.00     0.002 A 
HETATM   40  C   UNL     1      29.045  42.950  53.739  1.00  0.00     0.032 A 
BRANCH  36  41
HETATM   41  O   UNL     1      27.221  45.933  54.767  1.00  0.00    -0.354 OA
HETATM   42  C   UNL     1      27.609  47.302  54.722  1.00  0.00     0.210 C 
ENDBRANCH  36  41
ENDBRANCH  32  35
ENDBRANCH   5  31
TORSDOF 9
ENDMDL
MODEL 3
REMARK VINA RESULT:      -9.7      1.243      1.740
REMARK  9 active torsions:
REMARK  status: ('A' for Active; 'I' for Inactive)
REMARK    1  A    between atoms: C_2  and  C_3 
REMARK    2  A    between atoms: C_4  and  N_5 
REMARK       I    between atoms: N_5  and  C_6 
REMARK    3  A    between atoms: C_6  and  C_7 
REMARK    4  A    between atoms: C_7  and  S_8 
REMARK    5  A    between atoms: S_8  and  C_9 
REMARK    6  A    between atoms: C_13  and  C_14 
REMARK       I    between atoms: C_14  and  N_15 
REMARK    7  A    between atoms: N_15  and  C_16 
REMARK    8  A    between atoms: C_17  and  O_18 
REMARK    9  A    between atoms: C_25  and  C_26 
ROOT
HETATM    1  C   UNL     1      23.005  44.243  49.202  1.00  0.00     0.087 C 
HETATM    2  N   UNL     1      23.438  45.340  49.926  1.00  0.00    -0.353 N 
HETATM    3  C   UNL     1      24.621  45.371  50.642  1.00  0.00     0.019 C 
HETATM    4  C   UNL     1      25.120  46.740  51.033  1.00  0.00     0.069 C 
HETATM    5  C   UNL     1      25.260  44.210  50.909  1.00  0.00     0.046 C 
HETATM    6  C   UNL     1      24.682  42.865  50.467  1.00  0.00     0.104 C 
HETATM    7  C   UNL     1      23.546  43.022  49.446  1.00  0.00     0.055 C 
HETATM    8  C   UNL     1      23.128  41.831  48.599  1.00  0.00     0.019 C 
HETATM    9  N   UNL     1      22.781  40.843  47.897  1.00  0.00    -0.096 N 
HETATM   10  H   UNL     1      23.068  46.229  49.596  1.00  0.00     0.166 HD
ENDROOT
BRANCH   1  11
HETATM   11  S   UNL     1      21.818  44.502  47.927  1.00  0.00    -0.102 SA
BRANCH  11  12
HETATM   12  C   UNL     1      20.825  45.810  48.734  1.00  0.00     0.184 C 
BRANCH  12  13
HETATM   13  C   UNL     1      19.335  45.594  48.512  1.00  0.00     0.231 C 
HETATM   14  N   UNL     1      18.465  46.659  48.575  1.00  0.00    -0.326 N 
HETATM   15  H   UNL     1      17.525  46.312  48.734  1.00  0.00     0.169 HD
HETATM   16  O   UNL     1      18.855  44.481  48.282  1.00  0.00    -0.272 OA
BRANCH  14  17
HETATM   17  C   UNL     1      18.761  47.948  49.050  1.00  0.00     0.041 A 
HETATM   18  C   UNL     1      19.209  48.994  48.223  1.00  0.00    -0.032 A 
HETATM   19  C   UNL     1      19.543  50.223  48.825  1.00  0.00     0.009 A 
HETATM   20  C   UNL     1      19.395  50.417  50.199  1.00  0.00     0.001 A 
HETATM   21  C   UNL     1      18.886  49.396  50.993  1.00  0.00     0.002 A 
HETATM   22  C   UNL     1      18.556  48.170  50.417  1.00  0.00     0.030 A 
BRANCH  18  23
HETATM   23  C   UNL     1      19.244  48.917  46.712  1.00  0.00     0.036 C 
HETATM   24  C   UNL     1      18.925  50.260  46.069  1.00  0.00     0.010 C 
ENDBRANCH  18  23
ENDBRANCH  14  17
ENDBRANCH  12  13
ENDBRANCH  11  12
ENDBRANCH   1  11
BRANCH   6  25
HETATM   25  C   UNL     1      25.750  41.882  49.992  1.00  0.00    -0.044 A 
HETATM   26  C   UNL     1      26.422  42.115  48.779  1.00  0.00     0.008 A 
HETATM   27  C   UNL     1      27.399  41.228  48.328  1.00  0.00     0.001 A 
HETATM   28  C   UNL     1      27.719  40.100  49.078  1.00  0.00     0.000 A 
HETATM   29  C   UNL     1      27.064  39.858  50.284  1.00  0.00     0.001 A 
HETATM   30  C   UNL     1      26.089  40.743  50.743  1.00  0.00     0.008 A 
ENDBRANCH   6  25
BRANCH   5  31
HETATM   31  C   UNL     1      26.633  44.275  51.470  1.00  0.00     0.255 C 
HETATM   32  N   UNL     1      26.686  44.001  52.813  1.00  0.00    -0.321 N 
HETATM   33  H   UNL     1      25.821  43.829  53.314  1.00  0.00     0.169 HD
HETATM   34  O   UNL     1      27.555  44.612  50.737  1.00  0.00    -0.268 OA
BRANCH  32  35
HETATM   35  C   UNL     1      27.835  43.992  53.637  1.00  0.00     0.068 A 
HETATM   36  C   UNL     1      28.036  45.108  54.477  1.00  0.00     0.095 A 
HETATM   37  C   UNL     1      29.158  45.154  55.313  1.00  0.00     0.039 A 
HETATM   38  C   UNL     1      30.078  44.104  55.315  1.00  0.00     0.003 A 
HETATM   39  C   UNL     1      29.881  43.003  54.488  1.00  0.00     0.002 A 
HETATM   40  C   UNL     1      28.763  42.946  53.654  1.00  0.00     0.032 A 
BRANCH  36  41
HETATM   41  O   UNL     1      27.074  46.090  54.396  1.00  0.00    -0.354 OA
HETATM   42  C   UNL     1      27.497  47.421  54.672  1.00  0.00     0.210 C 
ENDBRANCH  36  41
ENDBRANCH  32  35
ENDBRANCH   5  31
TORSDOF 9
ENDMDL
MODEL 4
REMARK VINA RESULT:      -9.4      2.272      9.320
REMARK  9 active torsions:
REMARK  status: ('A' for Active; 'I' for Inactive)
REMARK    1  A    between atoms: C_2  and  C_3 
REMARK    2  A    between atoms: C_4  and  N_5 
REMARK       I    between atoms: N_5  and  C_6 
REMARK    3  A    between atoms: C_6  and  C_7 
REMARK    4  A    between atoms: C_7  and  S_8 
REMARK    5  A    between atoms: S_8  and  C_9 
REMARK    6  A    between atoms: C_13  and  C_14 
REMARK       I    between atoms: C_14  and  N_15 
REMARK    7  A    between atoms: N_15  and  C_16 
REMARK    8  A    between atoms: C_17  and  O_18 
REMARK    9  A    between atoms: C_25  and  C_26 
ROOT
HETATM    1  C   UNL     1      24.347  44.607  50.182  1.00  0.00     0.087 C 
HETATM    2  N   UNL     1      24.737  45.923  50.357  1.00  0.00    -0.353 N 
HETATM    3  C   UNL     1      24.090  47.000  49.777  1.00  0.00     0.019 C 
HETATM    4  C   UNL     1      24.392  48.351  50.377  1.00  0.00     0.069 C 
HETATM    5  C   UNL     1      23.225  46.780  48.762  1.00  0.00     0.046 C 
HETATM    6  C   UNL     1      22.976  45.372  48.221  1.00  0.00     0.104 C 
HETATM    7  C   UNL     1      23.527  44.281  49.150  1.00  0.00     0.055 C 
HETATM    8  C   UNL     1      23.037  42.850  49.002  1.00  0.00     0.019 C 
HETATM    9  N   UNL     1      22.630  41.664  48.879  1.00  0.00    -0.096 N 
HETATM   10  H   UNL     1      25.249  46.095  51.219  1.00  0.00     0.166 HD
ENDROOT
BRANCH   1  11
HETATM   11  S   UNL     1      24.873  43.418  51.369  1.00  0.00    -0.102 SA
BRANCH  11  12
HETATM   12  C   UNL     1      25.748  44.541  52.519  1.00  0.00     0.184 C 
BRANCH  12  13
HETATM   13  C   UNL     1      25.484  44.169  53.970  1.00  0.00     0.231 C 
HETATM   14  N   UNL     1      26.508  43.695  54.760  1.00  0.00    -0.326 N 
HETATM   15  H   UNL     1      26.115  43.201  55.553  1.00  0.00     0.169 HD
HETATM   16  O   UNL     1      24.366  44.263  54.485  1.00  0.00    -0.272 OA
BRANCH  14  17
HETATM   17  C   UNL     1      27.780  43.293  54.320  1.00  0.00     0.041 A 
HETATM   18  C   UNL     1      28.958  44.009  54.597  1.00  0.00    -0.032 A 
HETATM   19  C   UNL     1      30.167  43.547  54.042  1.00  0.00     0.009 A 
HETATM   20  C   UNL     1      30.207  42.384  53.271  1.00  0.00     0.001 A 
HETATM   21  C   UNL     1      29.046  41.649  53.062  1.00  0.00     0.002 A 
HETATM   22  C   UNL     1      27.839  42.094  53.598  1.00  0.00     0.030 A 
BRANCH  18  23
HETATM   23  C   UNL     1      29.025  45.182  55.552  1.00  0.00     0.036 C 
HETATM   24  C   UNL     1      30.426  45.371  56.120  1.00  0.00     0.010 C 
ENDBRANCH  18  23
ENDBRANCH  14  17
ENDBRANCH  12  13
ENDBRANCH  11  12
ENDBRANCH   1  11
BRANCH   6  25
HETATM   25  C   UNL     1      21.515  45.124  47.848  1.00  0.00    -0.044 A 
HETATM   26  C   UNL     1      21.190  44.694  46.550  1.00  0.00     0.008 A 
HETATM   27  C   UNL     1      19.862  44.464  46.191  1.00  0.00     0.001 A 
HETATM   28  C   UNL     1      18.843  44.660  47.120  1.00  0.00     0.000 A 
HETATM   29  C   UNL     1      19.151  45.083  48.411  1.00  0.00     0.001 A 
HETATM   30  C   UNL     1      20.477  45.311  48.777  1.00  0.00     0.008 A 
ENDBRANCH   6  25
BRANCH   5  31
HETATM   31  C   UNL     1      22.372  47.907  48.309  1.00  0.00     0.255 C 
HETATM   32  N   UNL     1      21.742  48.562  49.337  1.00  0.00    -0.321 N 
HETATM   33  H   UNL     1      21.858  48.217  50.283  1.00  0.00     0.169 HD
HETATM   34  O   UNL     1      22.257  48.114  47.106  1.00  0.00    -0.268 OA
BRANCH  32  35
HETATM   35  C   UNL     1      20.859  49.663  49.233  1.00  0.00     0.068 A 
HETATM   36  C   UNL     1      19.576  49.517  49.802  1.00  0.00     0.095 A 
HETATM   37  C   UNL     1      18.661  50.574  49.728  1.00  0.00     0.039 A 
HETATM   38  C   UNL     1      19.012  51.766  49.091  1.00  0.00     0.003 A 
HETATM   39  C   UNL     1      20.277  51.912  48.531  1.00  0.00     0.002 A 
HETATM   40  C   UNL     1      21.198  50.864  48.604  1.00  0.00     0.032 A 
BRANCH  36  41
HETATM   41  O   UNL     1      19.329  48.303  50.400  1.00  0.00    -0.354 OA
HETATM   42  C   UNL     1      18.444  48.310  51.515  1.00  0.00     0.210 C 
ENDBRANCH  36  41
ENDBRANCH  32  35
ENDBRANCH   5  31
TORSDOF 9
ENDMDL
MODEL 5
REMARK VINA RESULT:      -9.1      2.330      9.712
REMARK  9 active torsions:
REMARK  status: ('A' for Active; 'I' for Inactive)
REMARK    1  A    between atoms: C_2  and  C_3 
REMARK    2  A    between atoms: C_4  and  N_5 
REMARK       I    between atoms: N_5  and  C_6 
REMARK    3  A    between atoms: C_6  and  C_7 
REMARK    4  A    between atoms: C_7  and  S_8 
REMARK    5  A    between atoms: S_8  and  C_9 
REMARK    6  A    between atoms: C_13  and  C_14 
REMARK       I    between atoms: C_14  and  N_15 
REMARK    7  A    between atoms: N_15  and  C_16 
REMARK    8  A    between atoms: C_17  and  O_18 
REMARK    9  A    between atoms: C_25  and  C_26 
ROOT
HETATM    1  C   UNL     1      25.271  45.231  49.488  1.00  0.00     0.087 C 
HETATM    2  N   UNL     1      24.286  44.397  48.991  1.00  0.00    -0.353 N 
HETATM    3  C   UNL     1      23.072  44.845  48.504  1.00  0.00     0.019 C 
HETATM    4  C   UNL     1      22.299  43.865  47.656  1.00  0.00     0.069 C 
HETATM    5  C   UNL     1      22.678  46.109  48.778  1.00  0.00     0.046 C 
HETATM    6  C   UNL     1      23.531  47.037  49.644  1.00  0.00     0.104 C 
HETATM    7  C   UNL     1      24.956  46.501  49.849  1.00  0.00     0.055 C 
HETATM    8  C   UNL     1      26.051  47.443  50.322  1.00  0.00     0.019 C 
HETATM    9  N   UNL     1      26.959  48.224  50.714  1.00  0.00    -0.096 N 
HETATM   10  H   UNL     1      24.633  43.508  48.635  1.00  0.00     0.166 HD
ENDROOT
BRANCH   1  11
HETATM   11  S   UNL     1      26.923  44.625  49.551  1.00  0.00    -0.102 SA
BRANCH  11  12
HETATM   12  C   UNL     1      27.125  44.559  51.369  1.00  0.00     0.184 C 
BRANCH  12  13
HETATM   13  C   UNL     1      26.539  43.280  51.948  1.00  0.00     0.231 C 
HETATM   14  N   UNL     1      26.883  42.874  53.217  1.00  0.00    -0.326 N 
HETATM   15  H   UNL     1      26.684  41.884  53.316  1.00  0.00     0.169 HD
HETATM   16  O   UNL     1      25.758  42.564  51.314  1.00  0.00    -0.272 OA
BRANCH  14  17
HETATM   17  C   UNL     1      27.918  43.401  54.007  1.00  0.00     0.041 A 
HETATM   18  C   UNL     1      27.830  44.636  54.676  1.00  0.00    -0.032 A 
HETATM   19  C   UNL     1      28.960  45.095  55.381  1.00  0.00     0.009 A 
HETATM   20  C   UNL     1      30.125  44.329  55.452  1.00  0.00     0.001 A 
HETATM   21  C   UNL     1      30.173  43.081  54.843  1.00  0.00     0.002 A 
HETATM   22  C   UNL     1      29.068  42.612  54.136  1.00  0.00     0.030 A 
BRANCH  18  23
HETATM   23  C   UNL     1      26.557  45.446  54.783  1.00  0.00     0.036 C 
HETATM   24  C   UNL     1      26.741  46.864  54.255  1.00  0.00     0.010 C 
ENDBRANCH  18  23
ENDBRANCH  14  17
ENDBRANCH  12  13
ENDBRANCH  11  12
ENDBRANCH   1  11
BRANCH   6  25
HETATM   25  C   UNL     1      23.527  48.484  49.154  1.00  0.00    -0.044 A 
HETATM   26  C   UNL     1      22.551  49.378  49.630  1.00  0.00     0.008 A 
HETATM   27  C   UNL     1      22.530  50.702  49.193  1.00  0.00     0.001 A 
HETATM   28  C   UNL     1      23.479  51.152  48.278  1.00  0.00     0.000 A 
HETATM   29  C   UNL     1      24.453  50.278  47.801  1.00  0.00     0.001 A 
HETATM   30  C   UNL     1      24.483  48.954  48.237  1.00  0.00     0.008 A 
ENDBRANCH   6  25
BRANCH   5  31
HETATM   31  C   UNL     1      21.495  46.648  48.063  1.00  0.00     0.255 C 
HETATM   32  N   UNL     1      20.326  46.519  48.769  1.00  0.00    -0.321 N 
HETATM   33  H   UNL     1      20.343  46.044  49.665  1.00  0.00     0.169 HD
HETATM   34  O   UNL     1      21.640  47.089  46.928  1.00  0.00    -0.268 OA
BRANCH  32  35
HETATM   35  C   UNL     1      19.033  46.921  48.360  1.00  0.00     0.068 A 
HETATM   36  C   UNL     1      18.443  47.999  49.053  1.00  0.00     0.095 A 
HETATM   37  C   UNL     1      17.163  48.439  48.692  1.00  0.00     0.039 A 
HETATM   38  C   UNL     1      16.470  47.813  47.655  1.00  0.00     0.003 A 
HETATM   39  C   UNL     1      17.051  46.750  46.970  1.00  0.00     0.002 A 
HETATM   40  C   UNL     1      18.329  46.307  47.320  1.00  0.00     0.032 A 
BRANCH  36  41
HETATM   41  O   UNL     1      19.206  48.543  50.062  1.00  0.00    -0.354 OA
HETATM   42  C   UNL     1      18.594  48.642  51.343  1.00  0.00     0.210 C 
ENDBRANCH  36  41
ENDBRANCH  32  35
ENDBRANCH   5  31
TORSDOF 9
ENDMDL
MODEL 6
REMARK VINA RESULT:      -9.0      4.214      6.673
REMARK  9 active torsions:
REMARK  status: ('A' for Active; 'I' for Inactive)
REMARK    1  A    between atoms: C_2  and  C_3 
REMARK    2  A    between atoms: C_4  and  N_5 
REMARK       I    between atoms: N_5  and  C_6 
REMARK    3  A    between atoms: C_6  and  C_7 
REMARK    4  A    between atoms: C_7  and  S_8 
REMARK    5  A    between atoms: S_8  and  C_9 
REMARK    6  A    between atoms: C_13  and  C_14 
REMARK       I    between atoms: C_14  and  N_15 
REMARK    7  A    between atoms: N_15  and  C_16 
REMARK    8  A    between atoms: C_17  and  O_18 
REMARK    9  A    between atoms: C_25  and  C_26 
ROOT
HETATM    1  C   UNL     1      18.416  47.629  48.934  1.00  0.00     0.087 C 
HETATM    2  N   UNL     1      19.064  48.715  49.497  1.00  0.00    -0.353 N 
HETATM    3  C   UNL     1      20.403  48.999  49.299  1.00  0.00     0.019 C 
HETATM    4  C   UNL     1      20.839  50.400  49.649  1.00  0.00     0.069 C 
HETATM    5  C   UNL     1      21.210  48.044  48.785  1.00  0.00     0.046 C 
HETATM    6  C   UNL     1      20.679  46.648  48.454  1.00  0.00     0.104 C 
HETATM    7  C   UNL     1      19.145  46.592  48.447  1.00  0.00     0.055 C 
HETATM    8  C   UNL     1      18.439  45.434  47.761  1.00  0.00     0.019 C 
HETATM    9  N   UNL     1      17.854  44.474  47.191  1.00  0.00    -0.096 N 
HETATM   10  H   UNL     1      18.450  49.494  49.724  1.00  0.00     0.166 HD
ENDROOT
BRANCH   1  11
HETATM   11  S   UNL     1      16.661  47.683  48.800  1.00  0.00    -0.102 SA
BRANCH  11  12
HETATM   12  C   UNL     1      16.533  48.281  47.075  1.00  0.00     0.184 C 
BRANCH  12  13
HETATM   13  C   UNL     1      15.266  49.096  46.862  1.00  0.00     0.231 C 
HETATM   14  N   UNL     1      15.275  50.456  47.071  1.00  0.00    -0.326 N 
HETATM   15  H   UNL     1      14.322  50.779  47.208  1.00  0.00     0.169 HD
HETATM   16  O   UNL     1      14.200  48.581  46.512  1.00  0.00    -0.272 OA
BRANCH  14  17
HETATM   17  C   UNL     1      16.296  51.196  47.689  1.00  0.00     0.041 A 
HETATM   18  C   UNL     1      17.423  51.684  47.003  1.00  0.00    -0.032 A 
HETATM   19  C   UNL     1      18.418  52.352  47.743  1.00  0.00     0.009 A 
HETATM   20  C   UNL     1      18.275  52.564  49.115  1.00  0.00     0.001 A 
HETATM   21  C   UNL     1      17.124  52.136  49.767  1.00  0.00     0.002 A 
HETATM   22  C   UNL     1      16.131  51.467  49.053  1.00  0.00     0.030 A 
BRANCH  18  23
HETATM   23  C   UNL     1      17.577  51.639  45.498  1.00  0.00     0.036 C 
HETATM   24  C   UNL     1      17.033  52.897  44.834  1.00  0.00     0.010 C 
ENDBRANCH  18  23
ENDBRANCH  14  17
ENDBRANCH  12  13
ENDBRANCH  11  12
ENDBRANCH   1  11
BRANCH   6  25
HETATM   25  C   UNL     1      21.281  46.068  47.175  1.00  0.00    -0.044 A 
HETATM   26  C   UNL     1      22.326  45.132  47.259  1.00  0.00     0.008 A 
HETATM   27  C   UNL     1      22.889  44.592  46.103  1.00  0.00     0.001 A 
HETATM   28  C   UNL     1      22.418  44.977  44.850  1.00  0.00     0.000 A 
HETATM   29  C   UNL     1      21.381  45.902  44.752  1.00  0.00     0.001 A 
HETATM   30  C   UNL     1      20.811  46.443  45.905  1.00  0.00     0.008 A 
ENDBRANCH   6  25
BRANCH   5  31
HETATM   31  C   UNL     1      22.580  48.431  48.366  1.00  0.00     0.255 C 
HETATM   32  N   UNL     1      23.538  48.153  49.308  1.00  0.00    -0.321 N 
HETATM   33  H   UNL     1      23.251  47.766  50.200  1.00  0.00     0.169 HD
HETATM   34  O   UNL     1      22.731  48.997  47.289  1.00  0.00    -0.268 OA
BRANCH  32  35
HETATM   35  C   UNL     1      24.926  48.409  49.215  1.00  0.00     0.068 A 
HETATM   36  C   UNL     1      25.801  47.401  49.671  1.00  0.00     0.095 A 
HETATM   37  C   UNL     1      27.185  47.601  49.605  1.00  0.00     0.039 A 
HETATM   38  C   UNL     1      27.700  48.794  49.095  1.00  0.00     0.003 A 
HETATM   39  C   UNL     1      26.838  49.790  48.644  1.00  0.00     0.002 A 
HETATM   40  C   UNL     1      25.456  49.597  48.702  1.00  0.00     0.032 A 
BRANCH  36  41
HETATM   41  O   UNL     1      25.192  46.266  50.160  1.00  0.00    -0.354 OA
HETATM   42  C   UNL     1      25.436  45.056  49.451  1.00  0.00     0.210 C 
ENDBRANCH  36  41
ENDBRANCH  32  35
ENDBRANCH   5  31
TORSDOF 9
ENDMDL
MODEL 7
REMARK VINA RESULT:      -8.8      2.086      8.837
REMARK  9 active torsions:
REMARK  status: ('A' for Active; 'I' for Inactive)
REMARK    1  A    between atoms: C_2  and  C_3 
REMARK    2  A    between atoms: C_4  and  N_5 
REMARK       I    between atoms: N_5  and  C_6 
REMARK    3  A    between atoms: C_6  and  C_7 
REMARK    4  A    between atoms: C_7  and  S_8 
REMARK    5  A    between atoms: S_8  and  C_9 
REMARK    6  A    between atoms: C_13  and  C_14 
REMARK       I    between atoms: C_14  and  N_15 
REMARK    7  A    between atoms: N_15  and  C_16 
REMARK    8  A    between atoms: C_17  and  O_18 
REMARK    9  A    between atoms: C_25  and  C_26 
ROOT
HETATM    1  C   UNL     1      24.096  43.901  49.355  1.00  0.00     0.087 C 
HETATM    2  N   UNL     1      24.563  45.111  49.835  1.00  0.00    -0.353 N 
HETATM    3  C   UNL     1      23.994  46.333  49.524  1.00  0.00     0.019 C 
HETATM    4  C   UNL     1      24.369  47.484  50.424  1.00  0.00     0.069 C 
HETATM    5  C   UNL     1      23.134  46.413  48.484  1.00  0.00     0.046 C 
HETATM    6  C   UNL     1      22.808  45.190  47.626  1.00  0.00     0.104 C 
HETATM    7  C   UNL     1      23.275  43.879  48.274  1.00  0.00     0.055 C 
HETATM    8  C   UNL     1      22.700  42.557  47.793  1.00  0.00     0.019 C 
HETATM    9  N   UNL     1      22.223  41.461  47.394  1.00  0.00    -0.096 N 
HETATM   10  H   UNL     1      25.071  45.043  50.714  1.00  0.00     0.166 HD
ENDROOT
BRANCH   1  11
HETATM   11  S   UNL     1      24.528  42.435  50.230  1.00  0.00    -0.102 SA
BRANCH  11  12
HETATM   12  C   UNL     1      26.265  42.851  50.629  1.00  0.00     0.184 C 
BRANCH  12  13
HETATM   13  C   UNL     1      26.902  41.792  51.516  1.00  0.00     0.231 C 
HETATM   14  N   UNL     1      27.225  42.086  52.821  1.00  0.00    -0.326 N 
HETATM   15  H   UNL     1      27.913  41.418  53.153  1.00  0.00     0.169 HD
HETATM   16  O   UNL     1      27.160  40.656  51.108  1.00  0.00    -0.272 OA
BRANCH  14  17
HETATM   17  C   UNL     1      27.237  43.362  53.408  1.00  0.00     0.041 A 
HETATM   18  C   UNL     1      28.393  43.960  53.940  1.00  0.00    -0.032 A 
HETATM   19  C   UNL     1      28.268  45.214  54.569  1.00  0.00     0.009 A 
HETATM   20  C   UNL     1      27.037  45.870  54.628  1.00  0.00     0.001 A 
HETATM   21  C   UNL     1      25.917  45.298  54.038  1.00  0.00     0.002 A 
HETATM   22  C   UNL     1      26.019  44.054  53.417  1.00  0.00     0.030 A 
BRANCH  18  23
HETATM   23  C   UNL     1      29.786  43.392  53.775  1.00  0.00     0.036 C 
HETATM   24  C   UNL     1      30.543  43.353  55.096  1.00  0.00     0.010 C 
ENDBRANCH  18  23
ENDBRANCH  14  17
ENDBRANCH  12  13
ENDBRANCH  11  12
ENDBRANCH   1  11
BRANCH   6  25
HETATM   25  C   UNL     1      21.340  45.131  47.204  1.00  0.00    -0.044 A 
HETATM   26  C   UNL     1      21.005  45.196  45.840  1.00  0.00     0.008 A 
HETATM   27  C   UNL     1      19.671  45.145  45.435  1.00  0.00     0.001 A 
HETATM   28  C   UNL     1      18.657  45.028  46.382  1.00  0.00     0.000 A 
HETATM   29  C   UNL     1      18.975  44.959  47.737  1.00  0.00     0.001 A 
HETATM   30  C   UNL     1      20.307  45.005  48.148  1.00  0.00     0.008 A 
ENDBRANCH   6  25
BRANCH   5  31
HETATM   31  C   UNL     1      22.360  47.667  48.307  1.00  0.00     0.255 C 
HETATM   32  N   UNL     1      21.463  47.902  49.318  1.00  0.00    -0.321 N 
HETATM   33  H   UNL     1      21.361  47.212  50.054  1.00  0.00     0.169 HD
HETATM   34  O   UNL     1      22.533  48.330  47.290  1.00  0.00    -0.268 OA
BRANCH  32  35
HETATM   35  C   UNL     1      20.575  48.997  49.434  1.00  0.00     0.068 A 
HETATM   36  C   UNL     1      21.134  50.248  49.771  1.00  0.00     0.095 A 
HETATM   37  C   UNL     1      20.303  51.367  49.901  1.00  0.00     0.039 A 
HETATM   38  C   UNL     1      18.926  51.248  49.704  1.00  0.00     0.003 A 
HETATM   39  C   UNL     1      18.373  50.015  49.371  1.00  0.00     0.002 A 
HETATM   40  C   UNL     1      19.195  48.895  49.235  1.00  0.00     0.032 A 
BRANCH  36  41
HETATM   41  O   UNL     1      22.500  50.257  49.949  1.00  0.00    -0.354 OA
HETATM   42  C   UNL     1      23.250  51.100  49.082  1.00  0.00     0.210 C 
ENDBRANCH  36  41
ENDBRANCH  32  35
ENDBRANCH   5  31
TORSDOF 9
ENDMDL
MODEL 8
REMARK VINA RESULT:      -8.2      4.500      7.642
REMARK  9 active torsions:
REMARK  status: ('A' for Active; 'I' for Inactive)
REMARK    1  A    between atoms: C_2  and  C_3 
REMARK    2  A    between atoms: C_4  and  N_5 
REMARK       I    between atoms: N_5  and  C_6 
REMARK    3  A    between atoms: C_6  and  C_7 
REMARK    4  A    between atoms: C_7  and  S_8 
REMARK    5  A    between atoms: S_8  and  C_9 
REMARK    6  A    between atoms: C_13  and  C_14 
REMARK       I    between atoms: C_14  and  N_15 
REMARK    7  A    between atoms: N_15  and  C_16 
REMARK    8  A    between atoms: C_17  and  O_18 
REMARK    9  A    between atoms: C_25  and  C_26 
ROOT
HETATM    1  C   UNL     1      18.179  48.904  48.501  1.00  0.00     0.087 C 
HETATM    2  N   UNL     1      18.870  50.075  48.758  1.00  0.00    -0.353 N 
HETATM    3  C   UNL     1      20.242  50.202  48.629  1.00  0.00     0.019 C 
HETATM    4  C   UNL     1      20.770  51.614  48.562  1.00  0.00     0.069 C 
HETATM    5  C   UNL     1      21.001  49.087  48.539  1.00  0.00     0.046 C 
HETATM    6  C   UNL     1      20.377  47.693  48.613  1.00  0.00     0.104 C 
HETATM    7  C   UNL     1      18.850  47.725  48.454  1.00  0.00     0.055 C 
HETATM    8  C   UNL     1      18.105  46.449  48.098  1.00  0.00     0.019 C 
HETATM    9  N   UNL     1      17.488  45.391  47.802  1.00  0.00    -0.096 N 
HETATM   10  H   UNL     1      18.311  50.920  48.656  1.00  0.00     0.166 HD
ENDROOT
BRANCH   1  11
HETATM   11  S   UNL     1      16.454  49.011  48.164  1.00  0.00    -0.102 SA
BRANCH  11  12
HETATM   12  C   UNL     1      16.178  50.746  48.678  1.00  0.00     0.184 C 
BRANCH  12  13
HETATM   13  C   UNL     1      16.377  51.709  47.516  1.00  0.00     0.231 C 
HETATM   14  N   UNL     1      15.807  52.961  47.550  1.00  0.00    -0.326 N 
HETATM   15  H   UNL     1      15.755  53.329  46.606  1.00  0.00     0.169 HD
HETATM   16  O   UNL     1      17.033  51.410  46.514  1.00  0.00    -0.272 OA
BRANCH  14  17
HETATM   17  C   UNL     1      14.845  53.412  48.469  1.00  0.00     0.041 A 
HETATM   18  C   UNL     1      13.790  54.277  48.124  1.00  0.00    -0.032 A 
HETATM   19  C   UNL     1      12.928  54.719  49.146  1.00  0.00     0.009 A 
HETATM   20  C   UNL     1      13.085  54.280  50.462  1.00  0.00     0.001 A 
HETATM   21  C   UNL     1      14.090  53.371  50.774  1.00  0.00     0.002 A 
HETATM   22  C   UNL     1      14.958  52.928  49.778  1.00  0.00     0.030 A 
BRANCH  18  23
HETATM   23  C   UNL     1      13.454  54.669  46.701  1.00  0.00     0.036 C 
HETATM   24  C   UNL     1      11.968  54.515  46.406  1.00  0.00     0.010 C 
ENDBRANCH  18  23
ENDBRANCH  14  17
ENDBRANCH  12  13
ENDBRANCH  11  12
ENDBRANCH   1  11
BRANCH   6  25
HETATM   25  C   UNL     1      21.032  46.694  47.660  1.00  0.00    -0.044 A 
HETATM   26  C   UNL     1      21.863  45.683  48.174  1.00  0.00     0.008 A 
HETATM   27  C   UNL     1      22.471  44.763  47.320  1.00  0.00     0.001 A 
HETATM   28  C   UNL     1      22.259  44.839  45.946  1.00  0.00     0.000 A 
HETATM   29  C   UNL     1      21.436  45.834  45.423  1.00  0.00     0.001 A 
HETATM   30  C   UNL     1      20.822  46.754  46.272  1.00  0.00     0.008 A 
ENDBRANCH   6  25
BRANCH   5  31
HETATM   31  C   UNL     1      22.431  49.238  48.173  1.00  0.00     0.255 C 
HETATM   32  N   UNL     1      23.292  48.857  49.171  1.00  0.00    -0.321 N 
HETATM   33  H   UNL     1      22.911  48.560  50.062  1.00  0.00     0.169 HD
HETATM   34  O   UNL     1      22.714  49.724  47.084  1.00  0.00    -0.268 OA
BRANCH  32  35
HETATM   35  C   UNL     1      24.706  48.891  49.137  1.00  0.00     0.068 A 
HETATM   36  C   UNL     1      25.393  47.867  49.822  1.00  0.00     0.095 A 
HETATM   37  C   UNL     1      26.793  47.852  49.824  1.00  0.00     0.039 A 
HETATM   38  C   UNL     1      27.509  48.845  49.154  1.00  0.00     0.003 A 
HETATM   39  C   UNL     1      26.833  49.855  48.477  1.00  0.00     0.002 A 
HETATM   40  C   UNL     1      25.436  49.877  48.466  1.00  0.00     0.032 A 
BRANCH  36  41
HETATM   41  O   UNL     1      24.595  46.940  50.454  1.00  0.00    -0.354 OA
HETATM   42  C   UNL     1      25.156  46.281  51.584  1.00  0.00     0.210 C 
ENDBRANCH  36  41
ENDBRANCH  32  35
ENDBRANCH   5  31
TORSDOF 9
ENDMDL
MODEL 9
REMARK VINA RESULT:      -8.0      3.806      8.889
REMARK  9 active torsions:
REMARK  status: ('A' for Active; 'I' for Inactive)
REMARK    1  A    between atoms: C_2  and  C_3 
REMARK    2  A    between atoms: C_4  and  N_5 
REMARK       I    between atoms: N_5  and  C_6 
REMARK    3  A    between atoms: C_6  and  C_7 
REMARK    4  A    between atoms: C_7  and  S_8 
REMARK    5  A    between atoms: S_8  and  C_9 
REMARK    6  A    between atoms: C_13  and  C_14 
REMARK       I    between atoms: C_14  and  N_15 
REMARK    7  A    between atoms: N_15  and  C_16 
REMARK    8  A    between atoms: C_17  and  O_18 
REMARK    9  A    between atoms: C_25  and  C_26 
ROOT
HETATM    1  C   UNL     1      25.615  43.425  49.528  1.00  0.00     0.087 C 
HETATM    2  N   UNL     1      26.738  42.619  49.491  1.00  0.00    -0.353 N 
HETATM    3  C   UNL     1      26.813  41.436  48.778  1.00  0.00     0.019 C 
HETATM    4  C   UNL     1      28.202  40.902  48.529  1.00  0.00     0.069 C 
HETATM    5  C   UNL     1      25.673  40.864  48.330  1.00  0.00     0.046 C 
HETATM    6  C   UNL     1      24.305  41.480  48.626  1.00  0.00     0.104 C 
HETATM    7  C   UNL     1      24.412  42.918  49.155  1.00  0.00     0.055 C 
HETATM    8  C   UNL     1      23.191  43.822  49.122  1.00  0.00     0.019 C 
HETATM    9  N   UNL     1      22.179  44.573  49.094  1.00  0.00    -0.096 N 
HETATM   10  H   UNL     1      27.611  43.112  49.670  1.00  0.00     0.166 HD
ENDROOT
BRANCH   1  11
HETATM   11  S   UNL     1      25.815  45.114  49.985  1.00  0.00    -0.102 SA
BRANCH  11  12
HETATM   12  C   UNL     1      26.671  44.869  51.584  1.00  0.00     0.184 C 
BRANCH  12  13
HETATM   13  C   UNL     1      25.708  44.400  52.664  1.00  0.00     0.231 C 
HETATM   14  N   UNL     1      26.178  44.081  53.918  1.00  0.00    -0.326 N 
HETATM   15  H   UNL     1      25.497  43.495  54.390  1.00  0.00     0.169 HD
HETATM   16  O   UNL     1      24.497  44.278  52.463  1.00  0.00    -0.272 OA
BRANCH  14  17
HETATM   17  C   UNL     1      27.524  43.924  54.287  1.00  0.00     0.041 A 
HETATM   18  C   UNL     1      28.261  42.749  54.048  1.00  0.00    -0.032 A 
HETATM   19  C   UNL     1      29.583  42.682  54.528  1.00  0.00     0.009 A 
HETATM   20  C   UNL     1      30.167  43.765  55.186  1.00  0.00     0.001 A 
HETATM   21  C   UNL     1      29.450  44.944  55.354  1.00  0.00     0.002 A 
HETATM   22  C   UNL     1      28.137  45.028  54.893  1.00  0.00     0.030 A 
BRANCH  18  23
HETATM   23  C   UNL     1      27.758  41.597  53.205  1.00  0.00     0.036 C 
HETATM   24  C   UNL     1      28.881  40.944  52.410  1.00  0.00     0.010 C 
ENDBRANCH  18  23
ENDBRANCH  14  17
ENDBRANCH  12  13
ENDBRANCH  11  12
ENDBRANCH   1  11
BRANCH   6  25
HETATM   25  C   UNL     1      23.333  41.370  47.453  1.00  0.00    -0.044 A 
HETATM   26  C   UNL     1      22.260  40.466  47.519  1.00  0.00     0.008 A 
HETATM   27  C   UNL     1      21.363  40.350  46.457  1.00  0.00     0.001 A 
HETATM   28  C   UNL     1      21.525  41.133  45.317  1.00  0.00     0.000 A 
HETATM   29  C   UNL     1      22.583  42.037  45.239  1.00  0.00     0.001 A 
HETATM   30  C   UNL     1      23.480  42.160  46.299  1.00  0.00     0.008 A 
ENDBRANCH   6  25
BRANCH   5  31
HETATM   31  C   UNL     1      25.782  39.730  47.378  1.00  0.00     0.255 C 
HETATM   32  N   UNL     1      25.478  38.516  47.940  1.00  0.00    -0.321 N 
HETATM   33  H   UNL     1      25.258  38.474  48.929  1.00  0.00     0.169 HD
HETATM   34  O   UNL     1      26.175  39.951  46.238  1.00  0.00    -0.268 OA
BRANCH  32  35
HETATM   35  C   UNL     1      25.497  37.253  47.304  1.00  0.00     0.068 A 
HETATM   36  C   UNL     1      26.587  36.403  47.589  1.00  0.00     0.095 A 
HETATM   37  C   UNL     1      26.659  35.142  46.987  1.00  0.00     0.039 A 
HETATM   38  C   UNL     1      25.661  34.725  46.104  1.00  0.00     0.003 A 
HETATM   39  C   UNL     1      24.585  35.561  45.822  1.00  0.00     0.002 A 
HETATM   40  C   UNL     1      24.503  36.820  46.422  1.00  0.00     0.032 A 
BRANCH  36  41
HETATM   41  O   UNL     1      27.518  36.910  48.467  1.00  0.00    -0.354 OA
HETATM   42  C   UNL     1      27.374  36.540  49.834  1.00  0.00     0.210 C 
ENDBRANCH  36  41
ENDBRANCH  32  35
ENDBRANCH   5  31
TORSDOF 9
ENDMDL
MODEL 10
REMARK VINA RESULT:      -8.0     19.008     22.559
REMARK  9 active torsions:
REMARK  status: ('A' for Active; 'I' for Inactive)
REMARK    1  A    between atoms: C_2  and  C_3 
REMARK    2  A    between atoms: C_4  and  N_5 
REMARK       I    between atoms: N_5  and  C_6 
REMARK    3  A    between atoms: C_6  and  C_7 
REMARK    4  A    between atoms: C_7  and  S_8 
REMARK    5  A    between atoms: S_8  and  C_9 
REMARK    6  A    between atoms: C_13  and  C_14 
REMARK       I    between atoms: C_14  and  N_15 
REMARK    7  A    between atoms: N_15  and  C_16 
REMARK    8  A    between atoms: C_17  and  O_18 
REMARK    9  A    between atoms: C_25  and  C_26 
ROOT
HETATM    1  C   UNL     1      41.402  42.123  66.416  1.00  0.00     0.087 C 
HETATM    2  N   UNL     1      40.130  42.462  66.841  1.00  0.00    -0.353 N 
HETATM    3  C   UNL     1      39.756  43.743  67.205  1.00  0.00     0.019 C 
HETATM    4  C   UNL     1      38.272  44.008  67.258  1.00  0.00     0.069 C 
HETATM    5  C   UNL     1      40.715  44.664  67.450  1.00  0.00     0.046 C 
HETATM    6  C   UNL     1      42.200  44.306  67.368  1.00  0.00     0.104 C 
HETATM    7  C   UNL     1      42.440  42.958  66.673  1.00  0.00     0.055 C 
HETATM    8  C   UNL     1      43.824  42.625  66.141  1.00  0.00     0.019 C 
HETATM    9  N   UNL     1      44.972  42.348  65.699  1.00  0.00    -0.096 N 
HETATM   10  H   UNL     1      39.398  41.840  66.503  1.00  0.00     0.166 HD
ENDROOT
BRANCH   1  11
HETATM   11  S   UNL     1      41.602  40.645  65.480  1.00  0.00    -0.102 SA
BRANCH  11  12
HETATM   12  C   UNL     1      39.851  40.367  65.023  1.00  0.00     0.184 C 
BRANCH  12  13
HETATM   13  C   UNL     1      39.693  40.161  63.524  1.00  0.00     0.231 C 
HETATM   14  N   UNL     1      39.574  41.246  62.686  1.00  0.00    -0.326 N 
HETATM   15  H   UNL     1      39.158  40.947  61.810  1.00  0.00     0.169 HD
HETATM   16  O   UNL     1      39.653  39.040  63.011  1.00  0.00    -0.272 OA
BRANCH  14  17
HETATM   17  C   UNL     1      39.359  42.579  63.075  1.00  0.00     0.041 A 
HETATM   18  C   UNL     1      38.088  43.103  63.374  1.00  0.00    -0.032 A 
HETATM   19  C   UNL     1      37.988  44.474  63.684  1.00  0.00     0.009 A 
HETATM   20  C   UNL     1      39.121  45.286  63.735  1.00  0.00     0.001 A 
HETATM   21  C   UNL     1      40.378  44.739  63.504  1.00  0.00     0.002 A 
HETATM   22  C   UNL     1      40.498  43.386  63.190  1.00  0.00     0.030 A 
BRANCH  18  23
HETATM   23  C   UNL     1      36.838  42.260  63.498  1.00  0.00     0.036 C 
HETATM   24  C   UNL     1      36.531  41.911  64.949  1.00  0.00     0.010 C 
ENDBRANCH  18  23
ENDBRANCH  14  17
ENDBRANCH  12  13
ENDBRANCH  11  12
ENDBRANCH   1  11
BRANCH   6  25
HETATM   25  C   UNL     1      43.051  45.423  66.766  1.00  0.00    -0.044 A 
HETATM   26  C   UNL     1      43.911  46.167  67.592  1.00  0.00     0.008 A 
HETATM   27  C   UNL     1      44.695  47.191  67.061  1.00  0.00     0.001 A 
HETATM   28  C   UNL     1      44.631  47.487  65.702  1.00  0.00     0.000 A 
HETATM   29  C   UNL     1      43.785  46.756  64.870  1.00  0.00     0.001 A 
HETATM   30  C   UNL     1      43.002  45.727  65.395  1.00  0.00     0.008 A 
ENDBRANCH   6  25
BRANCH   5  31
HETATM   31  C   UNL     1      40.304  46.081  67.612  1.00  0.00     0.255 C 
HETATM   32  N   UNL     1      39.779  46.630  66.470  1.00  0.00    -0.321 N 
HETATM   33  H   UNL     1      39.755  46.072  65.623  1.00  0.00     0.169 HD
HETATM   34  O   UNL     1      40.513  46.638  68.684  1.00  0.00    -0.268 OA
BRANCH  32  35
HETATM   35  C   UNL     1      39.310  47.953  66.297  1.00  0.00     0.068 A 
HETATM   36  C   UNL     1      37.914  48.153  66.335  1.00  0.00     0.095 A 
HETATM   37  C   UNL     1      37.392  49.441  66.168  1.00  0.00     0.039 A 
HETATM   38  C   UNL     1      38.247  50.525  65.960  1.00  0.00     0.003 A 
HETATM   39  C   UNL     1      39.624  50.330  65.922  1.00  0.00     0.002 A 
HETATM   40  C   UNL     1      40.154  49.049  66.092  1.00  0.00     0.032 A 
BRANCH  36  41
HETATM   41  O   UNL     1      37.159  47.019  66.541  1.00  0.00    -0.354 OA
HETATM   42  C   UNL     1      35.925  46.939  65.837  1.00  0.00     0.210 C 
ENDBRANCH  36  41
ENDBRANCH  32  35
ENDBRANCH   5  31
TORSDOF 9
ENDMDL
