MODEL 1
REMARK VINA RESULT:      -8.7      0.000      0.000
REMARK  6 active torsions:
REMARK  status: ('A' for Active; 'I' for Inactive)
REMARK    1  A    between atoms: C_4  and  C_5 
REMARK    2  A    between atoms: C_5  and  N_6 
REMARK       I    between atoms: N_6  and  C_7 
REMARK       I    between atoms: C_7  and  N_8 
REMARK    3  A    between atoms: N_8  and  C_9 
REMARK    4  A    between atoms: C_9  and  C_10 
REMARK    5  A    between atoms: C_12  and  O_13 
REMARK    6  A    between atoms: O_13  and  C_14 
ROOT
HETATM    1  N   UNL     1      27.040  46.165  53.462  1.00  0.00    -0.333 N 
HETATM    2  C   UNL     1      25.987  47.016  53.402  1.00  0.00     0.317 C 
HETATM    3  N   UNL     1      25.439  47.212  52.176  1.00  0.00    -0.339 N 
HETATM    4  O   UNL     1      25.519  47.593  54.377  1.00  0.00    -0.247 OA
HETATM    5  H   UNL     1      27.216  45.546  52.684  1.00  0.00     0.165 HD
HETATM    6  H   UNL     1      24.679  47.880  52.199  1.00  0.00     0.164 HD
ENDROOT
BRANCH   3   7
HETATM    7  C   UNL     1      25.971  46.845  50.880  1.00  0.00     0.163 C 
BRANCH   7   8
HETATM    8  C   UNL     1      26.064  47.973  49.884  1.00  0.00    -0.035 A 
HETATM    9  C   UNL     1      24.954  48.479  49.202  1.00  0.00     0.066 A 
HETATM   10  C   UNL     1      25.146  49.482  48.265  1.00  0.00     0.164 A 
HETATM   11  N   UNL     1      26.342  50.046  47.993  1.00  0.00    -0.237 NA
HETATM   12  C   UNL     1      27.396  49.576  48.689  1.00  0.00     0.120 A 
HETATM   13  C   UNL     1      27.310  48.556  49.627  1.00  0.00     0.028 A 
BRANCH  10  14
HETATM   14  O   UNL     1      24.029  49.901  47.569  1.00  0.00    -0.329 OA
BRANCH  14  15
HETATM   15  C   UNL     1      22.797  49.925  48.319  1.00  0.00     0.130 C 
HETATM   16  C   UNL     1      22.520  51.190  49.176  1.00  0.00     0.032 C 
HETATM   17  C   UNL     1      21.051  51.098  48.732  1.00  0.00     0.005 C 
HETATM   18  C   UNL     1      21.545  50.326  47.495  1.00  0.00     0.032 C 
ENDBRANCH  14  15
ENDBRANCH  10  14
ENDBRANCH   7   8
ENDBRANCH   3   7
BRANCH   1  19
HETATM   19  C   UNL     1      27.647  45.770  54.720  1.00  0.00     0.139 C 
HETATM   20  C   UNL     1      28.577  46.859  55.240  1.00  0.00     0.039 C 
BRANCH  19  21
HETATM   21  C   UNL     1      28.385  44.488  54.497  1.00  0.00     0.075 A 
HETATM   22  O   UNL     1      27.708  43.476  53.873  1.00  0.00    -0.318 OA
HETATM   23  C   UNL     1      28.547  42.406  53.815  1.00  0.00     0.049 A 
HETATM   24  C   UNL     1      28.010  41.179  53.193  1.00  0.00     0.076 C 
HETATM   25  C   UNL     1      29.763  42.724  54.377  1.00  0.00     0.035 A 
HETATM   26  C   UNL     1      29.658  44.065  54.820  1.00  0.00     0.037 A 
ENDBRANCH  19  21
ENDBRANCH   1  19
TORSDOF 6
ENDMDL
MODEL 2
REMARK VINA RESULT:      -8.6      1.712      2.267
REMARK  6 active torsions:
REMARK  status: ('A' for Active; 'I' for Inactive)
REMARK    1  A    between atoms: C_4  and  C_5 
REMARK    2  A    between atoms: C_5  and  N_6 
REMARK       I    between atoms: N_6  and  C_7 
REMARK       I    between atoms: C_7  and  N_8 
REMARK    3  A    between atoms: N_8  and  C_9 
REMARK    4  A    between atoms: C_9  and  C_10 
REMARK    5  A    between atoms: C_12  and  O_13 
REMARK    6  A    between atoms: O_13  and  C_14 
ROOT
HETATM    1  N   UNL     1      26.425  45.158  52.698  1.00  0.00    -0.333 N 
HETATM    2  C   UNL     1      26.736  44.987  51.390  1.00  0.00     0.317 C 
HETATM    3  N   UNL     1      26.461  46.027  50.562  1.00  0.00    -0.339 N 
HETATM    4  O   UNL     1      27.245  43.967  50.937  1.00  0.00    -0.247 OA
HETATM    5  H   UNL     1      26.242  46.090  53.040  1.00  0.00     0.165 HD
HETATM    6  H   UNL     1      26.690  45.820  49.599  1.00  0.00     0.164 HD
ENDROOT
BRANCH   3   7
HETATM    7  C   UNL     1      25.651  47.198  50.824  1.00  0.00     0.163 C 
BRANCH   7   8
HETATM    8  C   UNL     1      25.653  48.234  49.728  1.00  0.00    -0.035 A 
HETATM    9  C   UNL     1      24.489  48.652  49.075  1.00  0.00     0.066 A 
HETATM   10  C   UNL     1      24.597  49.571  48.044  1.00  0.00     0.164 A 
HETATM   11  N   UNL     1      25.758  50.134  47.648  1.00  0.00    -0.237 NA
HETATM   12  C   UNL     1      26.865  49.751  48.314  1.00  0.00     0.120 A 
HETATM   13  C   UNL     1      26.864  48.818  49.341  1.00  0.00     0.028 A 
BRANCH  10  14
HETATM   14  O   UNL     1      23.428  49.901  47.385  1.00  0.00    -0.329 OA
BRANCH  14  15
HETATM   15  C   UNL     1      22.247  49.983  48.210  1.00  0.00     0.130 C 
HETATM   16  C   UNL     1      22.067  51.276  49.053  1.00  0.00     0.032 C 
HETATM   17  C   UNL     1      20.571  51.225  48.703  1.00  0.00     0.005 C 
HETATM   18  C   UNL     1      20.959  50.411  47.456  1.00  0.00     0.032 C 
ENDBRANCH  14  15
ENDBRANCH  10  14
ENDBRANCH   7   8
ENDBRANCH   3   7
BRANCH   1  19
HETATM   19  C   UNL     1      26.772  44.180  53.711  1.00  0.00     0.139 C 
HETATM   20  C   UNL     1      25.579  43.882  54.610  1.00  0.00     0.039 C 
BRANCH  19  21
HETATM   21  C   UNL     1      27.924  44.717  54.501  1.00  0.00     0.075 A 
HETATM   22  O   UNL     1      28.932  43.844  54.810  1.00  0.00    -0.318 OA
HETATM   23  C   UNL     1      29.841  44.528  55.557  1.00  0.00     0.049 A 
HETATM   24  C   UNL     1      31.016  43.767  56.026  1.00  0.00     0.076 C 
HETATM   25  C   UNL     1      29.440  45.836  55.714  1.00  0.00     0.035 A 
HETATM   26  C   UNL     1      28.203  45.958  55.036  1.00  0.00     0.037 A 
ENDBRANCH  19  21
ENDBRANCH   1  19
TORSDOF 6
ENDMDL
MODEL 3
REMARK VINA RESULT:      -8.4      1.611      2.129
REMARK  6 active torsions:
REMARK  status: ('A' for Active; 'I' for Inactive)
REMARK    1  A    between atoms: C_4  and  C_5 
REMARK    2  A    between atoms: C_5  and  N_6 
REMARK       I    between atoms: N_6  and  C_7 
REMARK       I    between atoms: C_7  and  N_8 
REMARK    3  A    between atoms: N_8  and  C_9 
REMARK    4  A    between atoms: C_9  and  C_10 
REMARK    5  A    between atoms: C_12  and  O_13 
REMARK    6  A    between atoms: O_13  and  C_14 
ROOT
HETATM    1  N   UNL     1      27.009  45.338  53.176  1.00  0.00    -0.333 N 
HETATM    2  C   UNL     1      25.760  44.888  52.904  1.00  0.00     0.317 C 
HETATM    3  N   UNL     1      25.433  44.773  51.592  1.00  0.00    -0.339 N 
HETATM    4  O   UNL     1      24.942  44.583  53.765  1.00  0.00    -0.247 OA
HETATM    5  H   UNL     1      27.702  45.335  52.443  1.00  0.00     0.165 HD
HETATM    6  H   UNL     1      24.479  44.461  51.462  1.00  0.00     0.164 HD
ENDROOT
BRANCH   3   7
HETATM    7  C   UNL     1      26.130  45.301  50.438  1.00  0.00     0.163 C 
BRANCH   7   8
HETATM    8  C   UNL     1      25.682  46.668  49.991  1.00  0.00    -0.035 A 
HETATM    9  C   UNL     1      24.337  47.048  49.935  1.00  0.00     0.066 A 
HETATM   10  C   UNL     1      24.019  48.310  49.460  1.00  0.00     0.164 A 
HETATM   11  N   UNL     1      24.931  49.231  49.084  1.00  0.00    -0.237 NA
HETATM   12  C   UNL     1      26.225  48.865  49.182  1.00  0.00     0.120 A 
HETATM   13  C   UNL     1      26.643  47.616  49.619  1.00  0.00     0.028 A 
BRANCH  10  14
HETATM   14  O   UNL     1      22.675  48.613  49.360  1.00  0.00    -0.329 OA
BRANCH  14  15
HETATM   15  C   UNL     1      22.363  49.886  48.757  1.00  0.00     0.130 C 
HETATM   16  C   UNL     1      21.076  49.957  47.892  1.00  0.00     0.032 C 
HETATM   17  C   UNL     1      20.809  51.341  48.506  1.00  0.00     0.005 C 
HETATM   18  C   UNL     1      21.666  50.898  49.706  1.00  0.00     0.032 C 
ENDBRANCH  14  15
ENDBRANCH  10  14
ENDBRANCH   7   8
ENDBRANCH   3   7
BRANCH   1  19
HETATM   19  C   UNL     1      27.535  45.397  54.528  1.00  0.00     0.139 C 
HETATM   20  C   UNL     1      27.899  46.826  54.908  1.00  0.00     0.039 C 
BRANCH  19  21
HETATM   21  C   UNL     1      28.727  44.496  54.602  1.00  0.00     0.075 A 
HETATM   22  O   UNL     1      29.527  44.605  55.708  1.00  0.00    -0.318 OA
HETATM   23  C   UNL     1      30.559  43.733  55.545  1.00  0.00     0.049 A 
HETATM   24  C   UNL     1      31.569  43.699  56.622  1.00  0.00     0.076 C 
HETATM   25  C   UNL     1      30.421  43.049  54.358  1.00  0.00     0.035 A 
HETATM   26  C   UNL     1      29.242  43.542  53.748  1.00  0.00     0.037 A 
ENDBRANCH  19  21
ENDBRANCH   1  19
TORSDOF 6
ENDMDL
MODEL 4
REMARK VINA RESULT:      -8.0      2.263      2.962
REMARK  6 active torsions:
REMARK  status: ('A' for Active; 'I' for Inactive)
REMARK    1  A    between atoms: C_4  and  C_5 
REMARK    2  A    between atoms: C_5  and  N_6 
REMARK       I    between atoms: N_6  and  C_7 
REMARK       I    between atoms: C_7  and  N_8 
REMARK    3  A    between atoms: N_8  and  C_9 
REMARK    4  A    between atoms: C_9  and  C_10 
REMARK    5  A    between atoms: C_12  and  O_13 
REMARK    6  A    between atoms: O_13  and  C_14 
ROOT
HETATM    1  N   UNL     1      26.283  45.500  53.662  1.00  0.00    -0.333 N 
HETATM    2  C   UNL     1      25.309  44.558  53.654  1.00  0.00     0.317 C 
HETATM    3  N   UNL     1      25.120  43.895  52.485  1.00  0.00    -0.339 N 
HETATM    4  O   UNL     1      24.617  44.283  54.628  1.00  0.00    -0.247 OA
HETATM    5  H   UNL     1      26.967  45.505  52.920  1.00  0.00     0.165 HD
HETATM    6  H   UNL     1      24.360  43.230  52.541  1.00  0.00     0.164 HD
ENDROOT
BRANCH   3   7
HETATM    7  C   UNL     1      25.634  44.219  51.170  1.00  0.00     0.163 C 
BRANCH   7   8
HETATM    8  C   UNL     1      24.738  45.096  50.333  1.00  0.00    -0.035 A 
HETATM    9  C   UNL     1      24.753  46.492  50.411  1.00  0.00     0.066 A 
HETATM   10  C   UNL     1      23.855  47.213  49.640  1.00  0.00     0.164 A 
HETATM   11  N   UNL     1      22.985  46.657  48.771  1.00  0.00    -0.237 NA
HETATM   12  C   UNL     1      23.011  45.313  48.677  1.00  0.00     0.120 A 
HETATM   13  C   UNL     1      23.853  44.502  49.426  1.00  0.00     0.028 A 
BRANCH  10  14
HETATM   14  O   UNL     1      23.861  48.584  49.802  1.00  0.00    -0.329 OA
BRANCH  14  15
HETATM   15  C   UNL     1      22.810  49.301  49.121  1.00  0.00     0.130 C 
HETATM   16  C   UNL     1      22.338  50.634  49.763  1.00  0.00     0.032 C 
HETATM   17  C   UNL     1      22.254  51.219  48.343  1.00  0.00     0.005 C 
HETATM   18  C   UNL     1      23.286  50.159  47.918  1.00  0.00     0.032 C 
ENDBRANCH  14  15
ENDBRANCH  10  14
ENDBRANCH   7   8
ENDBRANCH   3   7
BRANCH   1  19
HETATM   19  C   UNL     1      26.674  46.201  54.872  1.00  0.00     0.139 C 
HETATM   20  C   UNL     1      26.665  47.708  54.654  1.00  0.00     0.039 C 
BRANCH  19  21
HETATM   21  C   UNL     1      28.033  45.719  55.270  1.00  0.00     0.075 A 
HETATM   22  O   UNL     1      28.525  44.622  54.615  1.00  0.00    -0.318 OA
HETATM   23  C   UNL     1      29.740  44.339  55.161  1.00  0.00     0.049 A 
HETATM   24  C   UNL     1      30.451  43.165  54.616  1.00  0.00     0.076 C 
HETATM   25  C   UNL     1      30.044  45.254  56.144  1.00  0.00     0.035 A 
HETATM   26  C   UNL     1      28.943  46.141  56.218  1.00  0.00     0.037 A 
ENDBRANCH  19  21
ENDBRANCH   1  19
TORSDOF 6
ENDMDL
MODEL 5
REMARK VINA RESULT:      -7.9      2.329      3.841
REMARK  6 active torsions:
REMARK  status: ('A' for Active; 'I' for Inactive)
REMARK    1  A    between atoms: C_4  and  C_5 
REMARK    2  A    between atoms: C_5  and  N_6 
REMARK       I    between atoms: N_6  and  C_7 
REMARK       I    between atoms: C_7  and  N_8 
REMARK    3  A    between atoms: N_8  and  C_9 
REMARK    4  A    between atoms: C_9  and  C_10 
REMARK    5  A    between atoms: C_12  and  O_13 
REMARK    6  A    between atoms: O_13  and  C_14 
ROOT
HETATM    1  N   UNL     1      27.181  42.622  52.059  1.00  0.00    -0.333 N 
HETATM    2  C   UNL     1      26.888  42.305  50.775  1.00  0.00     0.317 C 
HETATM    3  N   UNL     1      25.742  42.829  50.270  1.00  0.00    -0.339 N 
HETATM    4  O   UNL     1      27.593  41.591  50.069  1.00  0.00    -0.247 OA
HETATM    5  H   UNL     1      26.701  43.395  52.495  1.00  0.00     0.165 HD
HETATM    6  H   UNL     1      25.570  42.528  49.320  1.00  0.00     0.164 HD
ENDROOT
BRANCH   3   7
HETATM    7  C   UNL     1      24.655  43.472  50.978  1.00  0.00     0.163 C 
BRANCH   7   8
HETATM    8  C   UNL     1      24.694  44.979  50.976  1.00  0.00    -0.035 A 
HETATM    9  C   UNL     1      24.161  45.752  49.940  1.00  0.00     0.066 A 
HETATM   10  C   UNL     1      24.292  47.130  50.000  1.00  0.00     0.164 A 
HETATM   11  N   UNL     1      24.865  47.793  51.027  1.00  0.00    -0.237 NA
HETATM   12  C   UNL     1      25.337  47.036  52.037  1.00  0.00     0.120 A 
HETATM   13  C   UNL     1      25.279  45.650  52.056  1.00  0.00     0.028 A 
BRANCH  10  14
HETATM   14  O   UNL     1      23.810  47.845  48.921  1.00  0.00    -0.329 OA
BRANCH  14  15
HETATM   15  C   UNL     1      23.740  49.276  49.099  1.00  0.00     0.130 C 
HETATM   16  C   UNL     1      23.728  50.144  47.811  1.00  0.00     0.032 C 
HETATM   17  C   UNL     1      22.681  51.039  48.495  1.00  0.00     0.005 C 
HETATM   18  C   UNL     1      22.314  49.826  49.368  1.00  0.00     0.032 C 
ENDBRANCH  14  15
ENDBRANCH  10  14
ENDBRANCH   7   8
ENDBRANCH   3   7
BRANCH   1  19
HETATM   19  C   UNL     1      28.429  42.231  52.688  1.00  0.00     0.139 C 
HETATM   20  C   UNL     1      28.295  40.871  53.362  1.00  0.00     0.039 C 
BRANCH  19  21
HETATM   21  C   UNL     1      28.803  43.291  53.676  1.00  0.00     0.075 A 
HETATM   22  O   UNL     1      29.902  43.058  54.459  1.00  0.00    -0.318 OA
HETATM   23  C   UNL     1      30.029  44.120  55.301  1.00  0.00     0.049 A 
HETATM   24  C   UNL     1      31.149  44.069  56.261  1.00  0.00     0.076 C 
HETATM   25  C   UNL     1      29.037  45.043  55.054  1.00  0.00     0.035 A 
HETATM   26  C   UNL     1      28.245  44.508  54.010  1.00  0.00     0.037 A 
ENDBRANCH  19  21
ENDBRANCH   1  19
TORSDOF 6
ENDMDL
MODEL 6
REMARK VINA RESULT:      -7.8      1.940      3.376
REMARK  6 active torsions:
REMARK  status: ('A' for Active; 'I' for Inactive)
REMARK    1  A    between atoms: C_4  and  C_5 
REMARK    2  A    between atoms: C_5  and  N_6 
REMARK       I    between atoms: N_6  and  C_7 
REMARK       I    between atoms: C_7  and  N_8 
REMARK    3  A    between atoms: N_8  and  C_9 
REMARK    4  A    between atoms: C_9  and  C_10 
REMARK    5  A    between atoms: C_12  and  O_13 
REMARK    6  A    between atoms: O_13  and  C_14 
ROOT
HETATM    1  N   UNL     1      26.436  45.451  51.617  1.00  0.00    -0.333 N 
HETATM    2  C   UNL     1      26.596  45.515  50.273  1.00  0.00     0.317 C 
HETATM    3  N   UNL     1      25.838  46.429  49.617  1.00  0.00    -0.339 N 
HETATM    4  O   UNL     1      27.377  44.809  49.643  1.00  0.00    -0.247 OA
HETATM    5  H   UNL     1      25.972  46.211  52.092  1.00  0.00     0.165 HD
HETATM    6  H   UNL     1      25.985  46.402  48.616  1.00  0.00     0.164 HD
ENDROOT
BRANCH   3   7
HETATM    7  C   UNL     1      24.696  47.174  50.107  1.00  0.00     0.163 C 
BRANCH   7   8
HETATM    8  C   UNL     1      24.318  48.379  49.285  1.00  0.00    -0.035 A 
HETATM    9  C   UNL     1      22.993  48.778  49.086  1.00  0.00     0.066 A 
HETATM   10  C   UNL     1      22.740  49.869  48.270  1.00  0.00     0.164 A 
HETATM   11  N   UNL     1      23.699  50.614  47.680  1.00  0.00    -0.237 NA
HETATM   12  C   UNL     1      24.973  50.241  47.915  1.00  0.00     0.120 A 
HETATM   13  C   UNL     1      25.327  49.148  48.694  1.00  0.00     0.028 A 
BRANCH  10  14
HETATM   14  O   UNL     1      21.413  50.183  48.050  1.00  0.00    -0.329 OA
BRANCH  14  15
HETATM   15  C   UNL     1      20.854  51.185  48.925  1.00  0.00     0.130 C 
HETATM   16  C   UNL     1      19.604  51.949  48.409  1.00  0.00     0.032 C 
HETATM   17  C   UNL     1      19.033  51.859  49.834  1.00  0.00     0.005 C 
HETATM   18  C   UNL     1      19.932  50.627  50.043  1.00  0.00     0.032 C 
ENDBRANCH  14  15
ENDBRANCH  10  14
ENDBRANCH   7   8
ENDBRANCH   3   7
BRANCH   1  19
HETATM   19  C   UNL     1      27.265  44.607  52.457  1.00  0.00     0.139 C 
HETATM   20  C   UNL     1      26.569  43.284  52.753  1.00  0.00     0.039 C 
BRANCH  19  21
HETATM   21  C   UNL     1      27.564  45.355  53.717  1.00  0.00     0.075 A 
HETATM   22  O   UNL     1      26.867  46.512  53.939  1.00  0.00    -0.318 OA
HETATM   23  C   UNL     1      27.325  47.041  55.107  1.00  0.00     0.049 A 
HETATM   24  C   UNL     1      26.721  48.318  55.535  1.00  0.00     0.076 C 
HETATM   25  C   UNL     1      28.295  46.226  55.649  1.00  0.00     0.035 A 
HETATM   26  C   UNL     1      28.452  45.142  54.752  1.00  0.00     0.037 A 
ENDBRANCH  19  21
ENDBRANCH   1  19
TORSDOF 6
ENDMDL
MODEL 7
REMARK VINA RESULT:      -7.8      2.453      9.247
REMARK  6 active torsions:
REMARK  status: ('A' for Active; 'I' for Inactive)
REMARK    1  A    between atoms: C_4  and  C_5 
REMARK    2  A    between atoms: C_5  and  N_6 
REMARK       I    between atoms: N_6  and  C_7 
REMARK       I    between atoms: C_7  and  N_8 
REMARK    3  A    between atoms: N_8  and  C_9 
REMARK    4  A    between atoms: C_9  and  C_10 
REMARK    5  A    between atoms: C_12  and  O_13 
REMARK    6  A    between atoms: O_13  and  C_14 
ROOT
HETATM    1  N   UNL     1      23.543  48.640  49.312  1.00  0.00    -0.333 N 
HETATM    2  C   UNL     1      23.562  47.288  49.400  1.00  0.00     0.317 C 
HETATM    3  N   UNL     1      24.244  46.761  50.448  1.00  0.00    -0.339 N 
HETATM    4  O   UNL     1      23.003  46.544  48.602  1.00  0.00    -0.247 OA
HETATM    5  H   UNL     1      23.806  49.188  50.118  1.00  0.00     0.165 HD
HETATM    6  H   UNL     1      24.243  45.749  50.436  1.00  0.00     0.164 HD
ENDROOT
BRANCH   3   7
HETATM    7  C   UNL     1      25.168  47.420  51.348  1.00  0.00     0.163 C 
BRANCH   7   8
HETATM    8  C   UNL     1      25.717  46.552  52.451  1.00  0.00    -0.035 A 
HETATM    9  C   UNL     1      26.449  47.061  53.527  1.00  0.00     0.066 A 
HETATM   10  C   UNL     1      26.958  46.178  54.465  1.00  0.00     0.164 A 
HETATM   11  N   UNL     1      26.756  44.844  54.439  1.00  0.00    -0.237 NA
HETATM   12  C   UNL     1      26.013  44.373  53.418  1.00  0.00     0.120 A 
HETATM   13  C   UNL     1      25.484  45.172  52.415  1.00  0.00     0.028 A 
BRANCH  10  14
HETATM   14  O   UNL     1      27.731  46.723  55.472  1.00  0.00    -0.329 OA
BRANCH  14  15
HETATM   15  C   UNL     1      28.504  45.782  56.247  1.00  0.00     0.130 C 
HETATM   16  C   UNL     1      30.047  45.834  56.078  1.00  0.00     0.032 C 
HETATM   17  C   UNL     1      30.162  45.608  57.595  1.00  0.00     0.005 C 
HETATM   18  C   UNL     1      28.747  46.202  57.721  1.00  0.00     0.032 C 
ENDBRANCH  14  15
ENDBRANCH  10  14
ENDBRANCH   7   8
ENDBRANCH   3   7
BRANCH   1  19
HETATM   19  C   UNL     1      22.756  49.341  48.314  1.00  0.00     0.139 C 
HETATM   20  C   UNL     1      23.574  50.441  47.651  1.00  0.00     0.039 C 
BRANCH  19  21
HETATM   21  C   UNL     1      21.542  49.899  48.988  1.00  0.00     0.075 A 
HETATM   22  O   UNL     1      20.720  49.014  49.632  1.00  0.00    -0.318 OA
HETATM   23  C   UNL     1      19.672  49.726  50.128  1.00  0.00     0.049 A 
HETATM   24  C   UNL     1      18.637  48.960  50.851  1.00  0.00     0.076 C 
HETATM   25  C   UNL     1      19.821  51.062  49.829  1.00  0.00     0.035 A 
HETATM   26  C   UNL     1      21.024  51.174  49.091  1.00  0.00     0.037 A 
ENDBRANCH  19  21
ENDBRANCH   1  19
TORSDOF 6
ENDMDL
MODEL 8
REMARK VINA RESULT:      -7.8      2.447      3.779
REMARK  6 active torsions:
REMARK  status: ('A' for Active; 'I' for Inactive)
REMARK    1  A    between atoms: C_4  and  C_5 
REMARK    2  A    between atoms: C_5  and  N_6 
REMARK       I    between atoms: N_6  and  C_7 
REMARK       I    between atoms: C_7  and  N_8 
REMARK    3  A    between atoms: N_8  and  C_9 
REMARK    4  A    between atoms: C_9  and  C_10 
REMARK    5  A    between atoms: C_12  and  O_13 
REMARK    6  A    between atoms: O_13  and  C_14 
ROOT
HETATM    1  N   UNL     1      27.116  44.686  53.867  1.00  0.00    -0.333 N 
HETATM    2  C   UNL     1      25.930  44.047  54.021  1.00  0.00     0.317 C 
HETATM    3  N   UNL     1      25.411  43.464  52.911  1.00  0.00    -0.339 N 
HETATM    4  O   UNL     1      25.329  43.970  55.087  1.00  0.00    -0.247 OA
HETATM    5  H   UNL     1      27.666  44.506  53.041  1.00  0.00     0.165 HD
HETATM    6  H   UNL     1      24.514  43.032  53.091  1.00  0.00     0.164 HD
ENDROOT
BRANCH   3   7
HETATM    7  C   UNL     1      25.808  43.638  51.530  1.00  0.00     0.163 C 
BRANCH   7   8
HETATM    8  C   UNL     1      24.942  44.577  50.729  1.00  0.00    -0.035 A 
HETATM    9  C   UNL     1      25.182  45.953  50.652  1.00  0.00     0.066 A 
HETATM   10  C   UNL     1      24.300  46.744  49.935  1.00  0.00     0.164 A 
HETATM   11  N   UNL     1      23.234  46.269  49.256  1.00  0.00    -0.237 NA
HETATM   12  C   UNL     1      23.040  44.937  49.306  1.00  0.00     0.120 A 
HETATM   13  C   UNL     1      23.850  44.064  50.019  1.00  0.00     0.028 A 
BRANCH  10  14
HETATM   14  O   UNL     1      24.541  48.104  49.945  1.00  0.00    -0.329 OA
BRANCH  14  15
HETATM   15  C   UNL     1      25.308  48.613  48.833  1.00  0.00     0.130 C 
HETATM   16  C   UNL     1      25.121  50.113  48.478  1.00  0.00     0.032 C 
HETATM   17  C   UNL     1      26.637  50.182  48.228  1.00  0.00     0.005 C 
HETATM   18  C   UNL     1      26.778  48.975  49.173  1.00  0.00     0.032 C 
ENDBRANCH  14  15
ENDBRANCH  10  14
ENDBRANCH   7   8
ENDBRANCH   3   7
BRANCH   1  19
HETATM   19  C   UNL     1      27.843  45.250  54.989  1.00  0.00     0.139 C 
HETATM   20  C   UNL     1      28.150  46.723  54.752  1.00  0.00     0.039 C 
BRANCH  19  21
HETATM   21  C   UNL     1      29.098  44.458  55.174  1.00  0.00     0.075 A 
HETATM   22  O   UNL     1      29.814  44.676  56.321  1.00  0.00    -0.318 OA
HETATM   23  C   UNL     1      30.923  43.890  56.259  1.00  0.00     0.049 A 
HETATM   24  C   UNL     1      31.861  43.982  57.396  1.00  0.00     0.076 C 
HETATM   25  C   UNL     1      30.919  43.153  55.095  1.00  0.00     0.035 A 
HETATM   26  C   UNL     1      29.746  43.521  54.394  1.00  0.00     0.037 A 
ENDBRANCH  19  21
ENDBRANCH   1  19
TORSDOF 6
ENDMDL
MODEL 9
REMARK VINA RESULT:      -7.6      2.001      8.903
REMARK  6 active torsions:
REMARK  status: ('A' for Active; 'I' for Inactive)
REMARK    1  A    between atoms: C_4  and  C_5 
REMARK    2  A    between atoms: C_5  and  N_6 
REMARK       I    between atoms: N_6  and  C_7 
REMARK       I    between atoms: C_7  and  N_8 
REMARK    3  A    between atoms: N_8  and  C_9 
REMARK    4  A    between atoms: C_9  and  C_10 
REMARK    5  A    between atoms: C_12  and  O_13 
REMARK    6  A    between atoms: O_13  and  C_14 
ROOT
HETATM    1  N   UNL     1      24.539  47.876  50.143  1.00  0.00    -0.333 N 
HETATM    2  C   UNL     1      24.936  46.594  50.325  1.00  0.00     0.317 C 
HETATM    3  N   UNL     1      25.262  46.237  51.593  1.00  0.00    -0.339 N 
HETATM    4  O   UNL     1      25.006  45.766  49.424  1.00  0.00    -0.247 OA
HETATM    5  H   UNL     1      24.272  48.426  50.946  1.00  0.00     0.165 HD
HETATM    6  H   UNL     1      25.578  45.278  51.652  1.00  0.00     0.164 HD
ENDROOT
BRANCH   3   7
HETATM    7  C   UNL     1      25.492  47.091  52.740  1.00  0.00     0.163 C 
BRANCH   7   8
HETATM    8  C   UNL     1      26.552  46.605  53.696  1.00  0.00    -0.035 A 
HETATM    9  C   UNL     1      26.993  45.278  53.732  1.00  0.00     0.066 A 
HETATM   10  C   UNL     1      27.933  44.913  54.682  1.00  0.00     0.164 A 
HETATM   11  N   UNL     1      28.496  45.770  55.560  1.00  0.00    -0.237 NA
HETATM   12  C   UNL     1      28.090  47.053  55.486  1.00  0.00     0.120 A 
HETATM   13  C   UNL     1      27.135  47.511  54.590  1.00  0.00     0.028 A 
BRANCH  10  14
HETATM   14  O   UNL     1      28.286  43.579  54.721  1.00  0.00    -0.329 OA
BRANCH  14  15
HETATM   15  C   UNL     1      28.333  42.905  53.446  1.00  0.00     0.130 C 
HETATM   16  C   UNL     1      29.724  42.412  52.963  1.00  0.00     0.032 C 
HETATM   17  C   UNL     1      29.030  41.138  52.453  1.00  0.00     0.005 C 
HETATM   18  C   UNL     1      27.923  41.409  53.488  1.00  0.00     0.032 C 
ENDBRANCH  14  15
ENDBRANCH  10  14
ENDBRANCH   7   8
ENDBRANCH   3   7
BRANCH   1  19
HETATM   19  C   UNL     1      24.048  48.362  48.866  1.00  0.00     0.139 C 
HETATM   20  C   UNL     1      24.801  49.614  48.435  1.00  0.00     0.039 C 
BRANCH  19  21
HETATM   21  C   UNL     1      22.583  48.631  49.003  1.00  0.00     0.075 A 
HETATM   22  O   UNL     1      22.212  49.876  49.436  1.00  0.00    -0.318 OA
HETATM   23  C   UNL     1      20.854  49.883  49.526  1.00  0.00     0.049 A 
HETATM   24  C   UNL     1      20.231  51.135  50.000  1.00  0.00     0.076 C 
HETATM   25  C   UNL     1      20.346  48.663  49.137  1.00  0.00     0.035 A 
HETATM   26  C   UNL     1      21.459  47.855  48.803  1.00  0.00     0.037 A 
ENDBRANCH  19  21
ENDBRANCH   1  19
TORSDOF 6
ENDMDL
MODEL 10
REMARK VINA RESULT:      -7.5      1.864      2.103
REMARK  6 active torsions:
REMARK  status: ('A' for Active; 'I' for Inactive)
REMARK    1  A    between atoms: C_4  and  C_5 
REMARK    2  A    between atoms: C_5  and  N_6 
REMARK       I    between atoms: N_6  and  C_7 
REMARK       I    between atoms: C_7  and  N_8 
REMARK    3  A    between atoms: N_8  and  C_9 
REMARK    4  A    between atoms: C_9  and  C_10 
REMARK    5  A    between atoms: C_12  and  O_13 
REMARK    6  A    between atoms: O_13  and  C_14 
ROOT
HETATM    1  N   UNL     1      26.401  45.212  52.646  1.00  0.00    -0.333 N 
HETATM    2  C   UNL     1      25.238  45.287  51.955  1.00  0.00     0.317 C 
HETATM    3  N   UNL     1      25.203  46.172  50.927  1.00  0.00    -0.339 N 
HETATM    4  O   UNL     1      24.249  44.608  52.207  1.00  0.00    -0.247 OA
HETATM    5  H   UNL     1      27.237  45.608  52.244  1.00  0.00     0.165 HD
HETATM    6  H   UNL     1      24.298  46.198  50.475  1.00  0.00     0.164 HD
ENDROOT
BRANCH   3   7
HETATM    7  C   UNL     1      26.140  47.231  50.615  1.00  0.00     0.163 C 
BRANCH   7   8
HETATM    8  C   UNL     1      25.657  48.232  49.597  1.00  0.00    -0.035 A 
HETATM    9  C   UNL     1      24.303  48.427  49.304  1.00  0.00     0.066 A 
HETATM   10  C   UNL     1      23.958  49.333  48.315  1.00  0.00     0.164 A 
HETATM   11  N   UNL     1      24.846  50.087  47.633  1.00  0.00    -0.237 NA
HETATM   12  C   UNL     1      26.144  49.918  47.956  1.00  0.00     0.120 A 
HETATM   13  C   UNL     1      26.592  49.017  48.912  1.00  0.00     0.028 A 
BRANCH  10  14
HETATM   14  O   UNL     1      22.614  49.439  48.015  1.00  0.00    -0.329 OA
BRANCH  14  15
HETATM   15  C   UNL     1      21.774  48.381  48.522  1.00  0.00     0.130 C 
HETATM   16  C   UNL     1      20.469  48.808  49.248  1.00  0.00     0.032 C 
HETATM   17  C   UNL     1      19.764  47.636  48.545  1.00  0.00     0.005 C 
HETATM   18  C   UNL     1      20.854  47.720  47.461  1.00  0.00     0.032 C 
ENDBRANCH  14  15
ENDBRANCH  10  14
ENDBRANCH   7   8
ENDBRANCH   3   7
BRANCH   1  19
HETATM   19  C   UNL     1      26.619  44.228  53.691  1.00  0.00     0.139 C 
HETATM   20  C   UNL     1      27.064  44.899  54.985  1.00  0.00     0.039 C 
BRANCH  19  21
HETATM   21  C   UNL     1      27.646  43.255  53.205  1.00  0.00     0.075 A 
HETATM   22  O   UNL     1      27.311  42.473  52.133  1.00  0.00    -0.318 OA
HETATM   23  C   UNL     1      28.363  41.644  51.893  1.00  0.00     0.049 A 
HETATM   24  C   UNL     1      28.209  40.687  50.780  1.00  0.00     0.076 C 
HETATM   25  C   UNL     1      29.381  41.898  52.786  1.00  0.00     0.035 A 
HETATM   26  C   UNL     1      28.918  42.933  53.635  1.00  0.00     0.037 A 
ENDBRANCH  19  21
ENDBRANCH   1  19
TORSDOF 6
ENDMDL
