MODEL 1
REMARK VINA RESULT:     -10.2      0.000      0.000
REMARK  4 active torsions:
REMARK  status: ('A' for Active; 'I' for Inactive)
REMARK    1  A    between atoms: C_5  and  C_6 
REMARK       I    between atoms: C_6  and  N_7 
REMARK    2  A    between atoms: N_7  and  C_8 
REMARK    3  A    between atoms: C_12  and  C_13 
REMARK    4  A    between atoms: C_13  and  C_14 
ROOT
HETATM    1  C   UNL     1      26.362  44.866  51.367  1.00  0.00     0.747 A 
HETATM    2  N   UNL     1      25.419  43.935  51.539  1.00  0.00     0.020 NA
HETATM    3  N   UNL     1      26.041  43.063  52.351  1.00  0.00    -0.248 N 
HETATM    4  H   UNL     1      25.563  42.216  52.635  1.00  0.00     0.191 HD
HETATM    5  C   UNL     1      27.309  43.475  52.638  1.00  0.00     0.144 A 
HETATM    6  N   UNL     1      27.518  44.629  52.044  1.00  0.00    -0.046 NA
ENDROOT
BRANCH   1   7
HETATM    7  N   UNL     1      26.156  45.927  50.534  1.00  0.00    -0.150 N 
HETATM    8  C   UNL     1      25.612  47.128  50.913  1.00  0.00     0.271 C 
HETATM    9  O   UNL     1      25.188  47.435  52.021  1.00  0.00    -0.267 OA
HETATM   10  H   UNL     1      26.535  45.792  49.611  1.00  0.00     0.188 HD
BRANCH   8  11
HETATM   11  C   UNL     1      25.623  48.175  49.862  1.00  0.00     0.045 A 
HETATM   12  C   UNL     1      24.448  48.629  49.215  1.00  0.00     0.008 A 
HETATM   13  C   UNL     1      24.583  49.584  48.200  1.00  0.00     0.043 A 
HETATM   14  C   UNL     1      23.047  48.379  49.345  1.00  0.00     0.032 A 
HETATM   15  C   UNL     1      25.820  50.118  47.816  1.00  0.00     0.030 A 
HETATM   16  N   UNL     1      23.323  49.855  47.715  1.00  0.00    -0.365 N 
HETATM   17  C   UNL     1      26.961  49.680  48.492  1.00  0.00     0.003 A 
HETATM   18  C   UNL     1      26.866  48.726  49.500  1.00  0.00     0.018 A 
HETATM   19  H   UNL     1      23.125  50.511  46.971  1.00  0.00     0.165 HD
HETATM   20  C   UNL     1      22.387  49.134  48.402  1.00  0.00     0.089 A 
ENDBRANCH   8  11
ENDBRANCH   1   7
BRANCH   5  21
HETATM   21  C   UNL     1      28.278  42.676  53.436  1.00  0.00     0.119 C 
BRANCH  21  22
HETATM   22  C   UNL     1      29.028  43.502  54.460  1.00  0.00    -0.045 A 
HETATM   23  C   UNL     1      28.526  44.736  54.907  1.00  0.00     0.050 A 
HETATM   24  C   UNL     1      29.221  45.475  55.862  1.00  0.00     0.119 A 
HETATM   25  F   UNL     1      28.735  46.657  56.262  1.00  0.00    -0.206 F 
HETATM   26  C   UNL     1      30.407  45.008  56.407  1.00  0.00     0.084 A 
HETATM   27  C   UNL     1      30.893  43.779  55.986  1.00  0.00     0.119 A 
HETATM   28  F   UNL     1      32.031  43.306  56.510  1.00  0.00    -0.206 F 
HETATM   29  C   UNL     1      30.219  43.023  55.026  1.00  0.00     0.050 A 
ENDBRANCH  21  22
ENDBRANCH   5  21
TORSDOF 4
ENDMDL
MODEL 2
REMARK VINA RESULT:     -10.1      0.884      1.916
REMARK  4 active torsions:
REMARK  status: ('A' for Active; 'I' for Inactive)
REMARK    1  A    between atoms: C_5  and  C_6 
REMARK       I    between atoms: C_6  and  N_7 
REMARK    2  A    between atoms: N_7  and  C_8 
REMARK    3  A    between atoms: C_12  and  C_13 
REMARK    4  A    between atoms: C_13  and  C_14 
ROOT
HETATM    1  C   UNL     1      26.336  44.687  51.733  1.00  0.00     0.747 A 
HETATM    2  N   UNL     1      25.541  43.773  52.298  1.00  0.00     0.020 NA
HETATM    3  N   UNL     1      26.426  43.030  52.985  1.00  0.00    -0.248 N 
HETATM    4  H   UNL     1      26.103  42.222  53.504  1.00  0.00     0.191 HD
HETATM    5  C   UNL     1      27.696  43.498  52.820  1.00  0.00     0.144 A 
HETATM    6  N   UNL     1      27.653  44.563  52.051  1.00  0.00    -0.046 NA
ENDROOT
BRANCH   1   7
HETATM    7  N   UNL     1      25.832  45.622  50.876  1.00  0.00    -0.150 N 
HETATM    8  C   UNL     1      25.309  46.832  51.254  1.00  0.00     0.271 C 
HETATM    9  O   UNL     1      25.166  47.256  52.395  1.00  0.00    -0.267 OA
HETATM   10  H   UNL     1      25.965  45.389  49.905  1.00  0.00     0.188 HD
BRANCH   8  11
HETATM   11  C   UNL     1      24.956  47.735  50.131  1.00  0.00     0.045 A 
HETATM   12  C   UNL     1      25.903  48.562  49.479  1.00  0.00     0.008 A 
HETATM   13  C   UNL     1      25.447  49.412  48.465  1.00  0.00     0.043 A 
HETATM   14  C   UNL     1      27.317  48.760  49.562  1.00  0.00     0.032 A 
HETATM   15  C   UNL     1      24.107  49.464  48.060  1.00  0.00     0.030 A 
HETATM   16  N   UNL     1      26.532  50.120  47.998  1.00  0.00    -0.365 N 
HETATM   17  C   UNL     1      23.197  48.615  48.694  1.00  0.00     0.003 A 
HETATM   18  C   UNL     1      23.613  47.763  49.711  1.00  0.00     0.018 A 
HETATM   19  H   UNL     1      26.491  50.811  47.262  1.00  0.00     0.165 HD
HETATM   20  C   UNL     1      27.668  49.731  48.653  1.00  0.00     0.089 A 
ENDBRANCH   8  11
ENDBRANCH   1   7
BRANCH   5  21
HETATM   21  C   UNL     1      28.903  42.832  53.381  1.00  0.00     0.119 C 
BRANCH  21  22
HETATM   22  C   UNL     1      29.505  43.578  54.552  1.00  0.00    -0.045 A 
HETATM   23  C   UNL     1      28.923  44.763  55.034  1.00  0.00     0.050 A 
HETATM   24  C   UNL     1      29.480  45.429  56.125  1.00  0.00     0.119 A 
HETATM   25  F   UNL     1      28.922  46.567  56.557  1.00  0.00    -0.206 F 
HETATM   26  C   UNL     1      30.603  44.933  56.771  1.00  0.00     0.084 A 
HETATM   27  C   UNL     1      31.164  43.751  56.313  1.00  0.00     0.119 A 
HETATM   28  F   UNL     1      32.241  43.250  56.931  1.00  0.00    -0.206 F 
HETATM   29  C   UNL     1      30.629  43.069  55.219  1.00  0.00     0.050 A 
ENDBRANCH  21  22
ENDBRANCH   5  21
TORSDOF 4
ENDMDL
MODEL 3
REMARK VINA RESULT:     -10.0      0.876      2.496
REMARK  4 active torsions:
REMARK  status: ('A' for Active; 'I' for Inactive)
REMARK    1  A    between atoms: C_5  and  C_6 
REMARK       I    between atoms: C_6  and  N_7 
REMARK    2  A    between atoms: N_7  and  C_8 
REMARK    3  A    between atoms: C_12  and  C_13 
REMARK    4  A    between atoms: C_13  and  C_14 
ROOT
HETATM    1  C   UNL     1      26.369  44.465  51.454  1.00  0.00     0.747 A 
HETATM    2  N   UNL     1      25.650  43.374  51.736  1.00  0.00     0.020 NA
HETATM    3  N   UNL     1      26.525  42.650  52.455  1.00  0.00    -0.248 N 
HETATM    4  H   UNL     1      26.257  41.731  52.789  1.00  0.00     0.191 HD
HETATM    5  C   UNL     1      27.716  43.301  52.584  1.00  0.00     0.144 A 
HETATM    6  N   UNL     1      27.625  44.463  51.978  1.00  0.00    -0.046 NA
ENDROOT
BRANCH   1   7
HETATM    7  N   UNL     1      25.862  45.454  50.663  1.00  0.00    -0.150 N 
HETATM    8  C   UNL     1      25.274  46.605  51.125  1.00  0.00     0.271 C 
HETATM    9  O   UNL     1      25.068  46.917  52.292  1.00  0.00    -0.267 OA
HETATM   10  H   UNL     1      26.044  45.316  49.682  1.00  0.00     0.188 HD
BRANCH   8  11
HETATM   11  C   UNL     1      24.931  47.593  50.073  1.00  0.00     0.045 A 
HETATM   12  C   UNL     1      25.883  48.468  49.496  1.00  0.00     0.008 A 
HETATM   13  C   UNL     1      25.435  49.395  48.547  1.00  0.00     0.043 A 
HETATM   14  C   UNL     1      27.296  48.658  49.605  1.00  0.00     0.032 A 
HETATM   15  C   UNL     1      24.099  49.479  48.136  1.00  0.00     0.030 A 
HETATM   16  N   UNL     1      26.524  50.136  48.146  1.00  0.00    -0.365 N 
HETATM   17  C   UNL     1      23.184  48.583  48.694  1.00  0.00     0.003 A 
HETATM   18  C   UNL     1      23.591  47.653  49.645  1.00  0.00     0.018 A 
HETATM   19  H   UNL     1      26.488  50.883  47.466  1.00  0.00     0.165 HD
HETATM   20  C   UNL     1      27.654  49.697  48.778  1.00  0.00     0.089 A 
ENDBRANCH   8  11
ENDBRANCH   1   7
BRANCH   5  21
HETATM   21  C   UNL     1      28.912  42.714  53.248  1.00  0.00     0.119 C 
BRANCH  21  22
HETATM   22  C   UNL     1      29.413  43.543  54.411  1.00  0.00    -0.045 A 
HETATM   23  C   UNL     1      30.594  43.200  55.091  1.00  0.00     0.050 A 
HETATM   24  C   UNL     1      31.050  43.983  56.150  1.00  0.00     0.119 A 
HETATM   25  F   UNL     1      32.168  43.629  56.797  1.00  0.00    -0.206 F 
HETATM   26  C   UNL     1      30.367  45.123  56.545  1.00  0.00     0.084 A 
HETATM   27  C   UNL     1      29.214  45.477  55.861  1.00  0.00     0.119 A 
HETATM   28  F   UNL     1      28.547  46.582  56.220  1.00  0.00    -0.206 F 
HETATM   29  C   UNL     1      28.733  44.706  54.802  1.00  0.00     0.050 A 
ENDBRANCH  21  22
ENDBRANCH   5  21
TORSDOF 4
ENDMDL
MODEL 4
REMARK VINA RESULT:      -9.5      4.340      9.390
REMARK  4 active torsions:
REMARK  status: ('A' for Active; 'I' for Inactive)
REMARK    1  A    between atoms: C_5  and  C_6 
REMARK       I    between atoms: C_6  and  N_7 
REMARK    2  A    between atoms: N_7  and  C_8 
REMARK    3  A    between atoms: C_12  and  C_13 
REMARK    4  A    between atoms: C_13  and  C_14 
ROOT
HETATM    1  C   UNL     1      24.838  47.594  50.017  1.00  0.00     0.747 A 
HETATM    2  N   UNL     1      25.379  48.728  49.559  1.00  0.00     0.020 NA
HETATM    3  N   UNL     1      24.392  49.205  48.780  1.00  0.00    -0.248 N 
HETATM    4  H   UNL     1      24.535  50.066  48.265  1.00  0.00     0.191 HD
HETATM    5  C   UNL     1      23.313  48.371  48.785  1.00  0.00     0.144 A 
HETATM    6  N   UNL     1      23.569  47.360  49.585  1.00  0.00    -0.046 NA
ENDROOT
BRANCH   1   7
HETATM    7  N   UNL     1      25.553  46.748  50.814  1.00  0.00    -0.150 N 
HETATM    8  C   UNL     1      25.666  46.861  52.177  1.00  0.00     0.271 C 
HETATM    9  O   UNL     1      25.196  47.739  52.891  1.00  0.00    -0.267 OA
HETATM   10  H   UNL     1      25.925  45.952  50.321  1.00  0.00     0.188 HD
BRANCH   8  11
HETATM   11  C   UNL     1      26.378  45.739  52.836  1.00  0.00     0.045 A 
HETATM   12  C   UNL     1      27.256  45.922  53.932  1.00  0.00     0.008 A 
HETATM   13  C   UNL     1      27.914  44.796  54.442  1.00  0.00     0.043 A 
HETATM   14  C   UNL     1      27.664  47.026  54.743  1.00  0.00     0.032 A 
HETATM   15  C   UNL     1      27.726  43.506  53.930  1.00  0.00     0.030 A 
HETATM   16  N   UNL     1      28.715  45.219  55.479  1.00  0.00    -0.365 N 
HETATM   17  C   UNL     1      26.829  43.346  52.871  1.00  0.00     0.003 A 
HETATM   18  C   UNL     1      26.164  44.442  52.333  1.00  0.00     0.018 A 
HETATM   19  H   UNL     1      29.308  44.612  56.029  1.00  0.00     0.165 HD
HETATM   20  C   UNL     1      28.569  46.565  55.671  1.00  0.00     0.089 A 
ENDBRANCH   8  11
ENDBRANCH   1   7
BRANCH   5  21
HETATM   21  C   UNL     1      22.101  48.582  47.948  1.00  0.00     0.119 C 
BRANCH  21  22
HETATM   22  C   UNL     1      21.069  49.470  48.609  1.00  0.00    -0.045 A 
HETATM   23  C   UNL     1      20.851  50.786  48.164  1.00  0.00     0.050 A 
HETATM   24  C   UNL     1      19.885  51.585  48.772  1.00  0.00     0.119 A 
HETATM   25  F   UNL     1      19.706  52.842  48.346  1.00  0.00    -0.206 F 
HETATM   26  C   UNL     1      19.105  51.101  49.812  1.00  0.00     0.084 A 
HETATM   27  C   UNL     1      19.301  49.796  50.237  1.00  0.00     0.119 A 
HETATM   28  F   UNL     1      18.549  49.307  51.232  1.00  0.00    -0.206 F 
HETATM   29  C   UNL     1      20.266  48.978  49.649  1.00  0.00     0.050 A 
ENDBRANCH  21  22
ENDBRANCH   5  21
TORSDOF 4
ENDMDL
MODEL 5
REMARK VINA RESULT:      -9.4      4.459      9.576
REMARK  4 active torsions:
REMARK  status: ('A' for Active; 'I' for Inactive)
REMARK    1  A    between atoms: C_5  and  C_6 
REMARK       I    between atoms: C_6  and  N_7 
REMARK    2  A    between atoms: N_7  and  C_8 
REMARK    3  A    between atoms: C_12  and  C_13 
REMARK    4  A    between atoms: C_13  and  C_14 
ROOT
HETATM    1  C   UNL     1      23.739  47.589  49.710  1.00  0.00     0.747 A 
HETATM    2  N   UNL     1      23.141  46.965  48.690  1.00  0.00     0.020 NA
HETATM    3  N   UNL     1      22.556  47.991  48.048  1.00  0.00    -0.248 N 
HETATM    4  H   UNL     1      21.991  47.809  47.226  1.00  0.00     0.191 HD
HETATM    5  C   UNL     1      22.806  49.174  48.678  1.00  0.00     0.144 A 
HETATM    6  N   UNL     1      23.575  48.940  49.717  1.00  0.00    -0.046 NA
ENDROOT
BRANCH   1   7
HETATM    7  N   UNL     1      24.409  46.885  50.667  1.00  0.00    -0.150 N 
HETATM    8  C   UNL     1      25.689  47.150  51.085  1.00  0.00     0.271 C 
HETATM    9  O   UNL     1      26.447  48.010  50.655  1.00  0.00    -0.267 OA
HETATM   10  H   UNL     1      23.840  46.193  51.128  1.00  0.00     0.188 HD
BRANCH   8  11
HETATM   11  C   UNL     1      26.147  46.336  52.238  1.00  0.00     0.045 A 
HETATM   12  C   UNL     1      26.360  44.938  52.158  1.00  0.00     0.008 A 
HETATM   13  C   UNL     1      26.743  44.264  53.324  1.00  0.00     0.043 A 
HETATM   14  C   UNL     1      26.314  43.953  51.123  1.00  0.00     0.032 A 
HETATM   15  C   UNL     1      26.941  44.913  54.550  1.00  0.00     0.030 A 
HETATM   16  N   UNL     1      26.872  42.930  53.008  1.00  0.00    -0.365 N 
HETATM   17  C   UNL     1      26.759  46.297  54.595  1.00  0.00     0.003 A 
HETATM   18  C   UNL     1      26.370  46.999  53.459  1.00  0.00     0.018 A 
HETATM   19  H   UNL     1      27.139  42.209  53.665  1.00  0.00     0.165 HD
HETATM   20  C   UNL     1      26.618  42.732  51.679  1.00  0.00     0.089 A 
ENDBRANCH   8  11
ENDBRANCH   1   7
BRANCH   5  21
HETATM   21  C   UNL     1      22.218  50.475  48.259  1.00  0.00     0.119 C 
BRANCH  21  22
HETATM   22  C   UNL     1      20.850  50.730  48.856  1.00  0.00    -0.045 A 
HETATM   23  C   UNL     1      20.302  49.858  49.813  1.00  0.00     0.050 A 
HETATM   24  C   UNL     1      19.048  50.116  50.365  1.00  0.00     0.119 A 
HETATM   25  F   UNL     1      18.535  49.264  51.261  1.00  0.00    -0.206 F 
HETATM   26  C   UNL     1      18.324  51.242  50.003  1.00  0.00     0.084 A 
HETATM   27  C   UNL     1      18.873  52.117  49.078  1.00  0.00     0.119 A 
HETATM   28  F   UNL     1      18.193  53.215  48.726  1.00  0.00    -0.206 F 
HETATM   29  C   UNL     1      20.123  51.877  48.506  1.00  0.00     0.050 A 
ENDBRANCH  21  22
ENDBRANCH   5  21
TORSDOF 4
ENDMDL
MODEL 6
REMARK VINA RESULT:      -9.4      4.124      6.498
REMARK  4 active torsions:
REMARK  status: ('A' for Active; 'I' for Inactive)
REMARK    1  A    between atoms: C_5  and  C_6 
REMARK       I    between atoms: C_6  and  N_7 
REMARK    2  A    between atoms: N_7  and  C_8 
REMARK    3  A    between atoms: C_12  and  C_13 
REMARK    4  A    between atoms: C_13  and  C_14 
ROOT
HETATM    1  C   UNL     1      23.823  49.712  48.311  1.00  0.00     0.747 A 
HETATM    2  N   UNL     1      24.627  50.325  47.436  1.00  0.00     0.020 NA
HETATM    3  N   UNL     1      25.839  49.907  47.840  1.00  0.00    -0.248 N 
HETATM    4  H   UNL     1      26.667  50.245  47.365  1.00  0.00     0.191 HD
HETATM    5  C   UNL     1      25.741  49.080  48.920  1.00  0.00     0.144 A 
HETATM    6  N   UNL     1      24.469  48.925  49.214  1.00  0.00    -0.046 NA
ENDROOT
BRANCH   1   7
HETATM    7  N   UNL     1      22.475  49.924  48.294  1.00  0.00    -0.150 N 
HETATM    8  C   UNL     1      21.765  50.541  49.293  1.00  0.00     0.271 C 
HETATM    9  O   UNL     1      22.194  50.956  50.362  1.00  0.00    -0.267 OA
HETATM   10  H   UNL     1      22.042  49.673  47.420  1.00  0.00     0.188 HD
BRANCH   8  11
HETATM   11  C   UNL     1      20.334  50.783  48.979  1.00  0.00     0.045 A 
HETATM   12  C   UNL     1      19.344  49.774  49.071  1.00  0.00     0.008 A 
HETATM   13  C   UNL     1      18.035  50.103  48.701  1.00  0.00     0.043 A 
HETATM   14  C   UNL     1      19.309  48.411  49.499  1.00  0.00     0.032 A 
HETATM   15  C   UNL     1      17.664  51.383  48.267  1.00  0.00     0.030 A 
HETATM   16  N   UNL     1      17.264  48.973  48.856  1.00  0.00    -0.365 N 
HETATM   17  C   UNL     1      18.651  52.370  48.218  1.00  0.00     0.003 A 
HETATM   18  C   UNL     1      19.965  52.077  48.570  1.00  0.00     0.018 A 
HETATM   19  H   UNL     1      16.274  48.924  48.658  1.00  0.00     0.165 HD
HETATM   20  C   UNL     1      18.024  47.945  49.341  1.00  0.00     0.089 A 
ENDBRANCH   8  11
ENDBRANCH   1   7
BRANCH   5  21
HETATM   21  C   UNL     1      26.915  48.530  49.650  1.00  0.00     0.119 C 
BRANCH  21  22
HETATM   22  C   UNL     1      26.636  47.193  50.303  1.00  0.00    -0.045 A 
HETATM   23  C   UNL     1      26.099  47.116  51.600  1.00  0.00     0.050 A 
HETATM   24  C   UNL     1      25.834  45.877  52.180  1.00  0.00     0.119 A 
HETATM   25  F   UNL     1      25.339  45.824  53.423  1.00  0.00    -0.206 F 
HETATM   26  C   UNL     1      26.072  44.697  51.492  1.00  0.00     0.084 A 
HETATM   27  C   UNL     1      26.579  44.770  50.203  1.00  0.00     0.119 A 
HETATM   28  F   UNL     1      26.804  43.642  49.519  1.00  0.00    -0.206 F 
HETATM   29  C   UNL     1      26.860  45.998  49.603  1.00  0.00     0.050 A 
ENDBRANCH  21  22
ENDBRANCH   5  21
TORSDOF 4
ENDMDL
MODEL 7
REMARK VINA RESULT:      -9.2      1.741      2.178
REMARK  4 active torsions:
REMARK  status: ('A' for Active; 'I' for Inactive)
REMARK    1  A    between atoms: C_5  and  C_6 
REMARK       I    between atoms: C_6  and  N_7 
REMARK    2  A    between atoms: N_7  and  C_8 
REMARK    3  A    between atoms: C_12  and  C_13 
REMARK    4  A    between atoms: C_13  and  C_14 
ROOT
HETATM    1  C   UNL     1      25.638  44.983  52.152  1.00  0.00     0.747 A 
HETATM    2  N   UNL     1      24.973  44.132  52.940  1.00  0.00     0.020 NA
HETATM    3  N   UNL     1      25.975  43.407  53.465  1.00  0.00    -0.248 N 
HETATM    4  H   UNL     1      25.761  42.644  54.097  1.00  0.00     0.191 HD
HETATM    5  C   UNL     1      27.185  43.822  52.993  1.00  0.00     0.144 A 
HETATM    6  N   UNL     1      26.991  44.837  52.181  1.00  0.00    -0.046 NA
ENDROOT
BRANCH   1   7
HETATM    7  N   UNL     1      24.973  45.877  51.365  1.00  0.00    -0.150 N 
HETATM    8  C   UNL     1      24.812  45.761  50.007  1.00  0.00     0.271 C 
HETATM    9  O   UNL     1      25.262  44.884  49.279  1.00  0.00    -0.267 OA
HETATM   10  H   UNL     1      24.510  46.604  51.887  1.00  0.00     0.188 HD
BRANCH   8  11
HETATM   11  C   UNL     1      23.929  46.784  49.395  1.00  0.00     0.045 A 
HETATM   12  C   UNL     1      22.736  46.459  48.705  1.00  0.00     0.008 A 
HETATM   13  C   UNL     1      22.008  47.503  48.123  1.00  0.00     0.043 A 
HETATM   14  C   UNL     1      21.999  45.262  48.444  1.00  0.00     0.032 A 
HETATM   15  C   UNL     1      22.397  48.846  48.212  1.00  0.00     0.030 A 
HETATM   16  N   UNL     1      20.912  46.948  47.502  1.00  0.00    -0.365 N 
HETATM   17  C   UNL     1      23.559  49.145  48.927  1.00  0.00     0.003 A 
HETATM   18  C   UNL     1      24.313  48.133  49.512  1.00  0.00     0.018 A 
HETATM   19  H   UNL     1      20.212  47.475  46.997  1.00  0.00     0.165 HD
HETATM   20  C   UNL     1      20.895  45.594  47.692  1.00  0.00     0.089 A 
ENDBRANCH   8  11
ENDBRANCH   1   7
BRANCH   5  21
HETATM   21  C   UNL     1      28.473  43.154  53.319  1.00  0.00     0.119 C 
BRANCH  21  22
HETATM   22  C   UNL     1      29.197  43.792  54.486  1.00  0.00    -0.045 A 
HETATM   23  C   UNL     1      28.709  44.965  55.088  1.00  0.00     0.050 A 
HETATM   24  C   UNL     1      29.378  45.531  56.172  1.00  0.00     0.119 A 
HETATM   25  F   UNL     1      28.908  46.659  56.720  1.00  0.00    -0.206 F 
HETATM   26  C   UNL     1      30.522  44.946  56.694  1.00  0.00     0.084 A 
HETATM   27  C   UNL     1      30.992  43.776  56.117  1.00  0.00     0.119 A 
HETATM   28  F   UNL     1      32.088  43.190  56.614  1.00  0.00    -0.206 F 
HETATM   29  C   UNL     1      30.344  43.193  55.026  1.00  0.00     0.050 A 
ENDBRANCH  21  22
ENDBRANCH   5  21
TORSDOF 4
ENDMDL
MODEL 8
REMARK VINA RESULT:      -9.1      4.144      8.765
REMARK  4 active torsions:
REMARK  status: ('A' for Active; 'I' for Inactive)
REMARK    1  A    between atoms: C_5  and  C_6 
REMARK       I    between atoms: C_6  and  N_7 
REMARK    2  A    between atoms: N_7  and  C_8 
REMARK    3  A    between atoms: C_12  and  C_13 
REMARK    4  A    between atoms: C_13  and  C_14 
ROOT
HETATM    1  C   UNL     1      26.371  48.251  49.697  1.00  0.00     0.747 A 
HETATM    2  N   UNL     1      27.317  48.797  48.927  1.00  0.00     0.020 NA
HETATM    3  N   UNL     1      26.598  49.646  48.173  1.00  0.00    -0.248 N 
HETATM    4  H   UNL     1      27.061  50.192  47.456  1.00  0.00     0.191 HD
HETATM    5  C   UNL     1      25.274  49.591  48.495  1.00  0.00     0.144 A 
HETATM    6  N   UNL     1      25.118  48.732  49.477  1.00  0.00    -0.046 NA
ENDROOT
BRANCH   1   7
HETATM    7  N   UNL     1      26.676  47.262  50.587  1.00  0.00    -0.150 N 
HETATM    8  C   UNL     1      25.987  47.010  51.747  1.00  0.00     0.271 C 
HETATM    9  O   UNL     1      25.035  47.636  52.196  1.00  0.00    -0.267 OA
HETATM   10  H   UNL     1      27.410  46.649  50.269  1.00  0.00     0.188 HD
BRANCH   8  11
HETATM   11  C   UNL     1      26.422  45.792  52.475  1.00  0.00     0.045 A 
HETATM   12  C   UNL     1      26.279  44.486  51.946  1.00  0.00     0.008 A 
HETATM   13  C   UNL     1      26.676  43.407  52.744  1.00  0.00     0.043 A 
HETATM   14  C   UNL     1      25.830  43.926  50.710  1.00  0.00     0.032 A 
HETATM   15  C   UNL     1      27.222  43.566  54.025  1.00  0.00     0.030 A 
HETATM   16  N   UNL     1      26.431  42.253  52.034  1.00  0.00    -0.365 N 
HETATM   17  C   UNL     1      27.385  44.865  54.511  1.00  0.00     0.003 A 
HETATM   18  C   UNL     1      26.993  45.962  53.750  1.00  0.00     0.018 A 
HETATM   19  H   UNL     1      26.621  41.320  52.373  1.00  0.00     0.165 HD
HETATM   20  C   UNL     1      25.922  42.556  50.802  1.00  0.00     0.089 A 
ENDBRANCH   8  11
ENDBRANCH   1   7
BRANCH   5  21
HETATM   21  C   UNL     1      24.215  50.346  47.773  1.00  0.00     0.119 C 
BRANCH  21  22
HETATM   22  C   UNL     1      22.820  50.046  48.279  1.00  0.00    -0.045 A 
HETATM   23  C   UNL     1      22.128  50.963  49.088  1.00  0.00     0.050 A 
HETATM   24  C   UNL     1      20.838  50.679  49.532  1.00  0.00     0.119 A 
HETATM   25  F   UNL     1      20.202  51.558  50.317  1.00  0.00    -0.206 F 
HETATM   26  C   UNL     1      20.200  49.500  49.174  1.00  0.00     0.084 A 
HETATM   27  C   UNL     1      20.871  48.604  48.356  1.00  0.00     0.119 A 
HETATM   28  F   UNL     1      20.266  47.467  47.990  1.00  0.00    -0.206 F 
HETATM   29  C   UNL     1      22.166  48.863  47.904  1.00  0.00     0.050 A 
ENDBRANCH  21  22
ENDBRANCH   5  21
TORSDOF 4
ENDMDL
MODEL 9
REMARK VINA RESULT:      -9.0      4.920      7.951
REMARK  4 active torsions:
REMARK  status: ('A' for Active; 'I' for Inactive)
REMARK    1  A    between atoms: C_5  and  C_6 
REMARK       I    between atoms: C_6  and  N_7 
REMARK    2  A    between atoms: N_7  and  C_8 
REMARK    3  A    between atoms: C_12  and  C_13 
REMARK    4  A    between atoms: C_13  and  C_14 
ROOT
HETATM    1  C   UNL     1      26.845  43.596  50.590  1.00  0.00     0.747 A 
HETATM    2  N   UNL     1      25.807  44.031  49.868  1.00  0.00     0.020 NA
HETATM    3  N   UNL     1      25.806  43.164  48.841  1.00  0.00    -0.248 N 
HETATM    4  H   UNL     1      25.126  43.271  48.098  1.00  0.00     0.191 HD
HETATM    5  C   UNL     1      26.816  42.255  48.962  1.00  0.00     0.144 A 
HETATM    6  N   UNL     1      27.466  42.499  50.078  1.00  0.00    -0.046 NA
ENDROOT
BRANCH   1   7
HETATM    7  N   UNL     1      27.243  44.256  51.716  1.00  0.00    -0.150 N 
HETATM    8  C   UNL     1      27.406  43.677  52.949  1.00  0.00     0.271 C 
HETATM    9  O   UNL     1      27.187  42.511  53.257  1.00  0.00    -0.267 OA
HETATM   10  H   UNL     1      27.510  45.212  51.547  1.00  0.00     0.188 HD
BRANCH   8  11
HETATM   11  C   UNL     1      27.984  44.570  53.984  1.00  0.00     0.045 A 
HETATM   12  C   UNL     1      29.134  44.232  54.737  1.00  0.00     0.008 A 
HETATM   13  C   UNL     1      29.560  45.130  55.724  1.00  0.00     0.043 A 
HETATM   14  C   UNL     1      30.070  43.152  54.747  1.00  0.00     0.032 A 
HETATM   15  C   UNL     1      28.912  46.345  55.980  1.00  0.00     0.030 A 
HETATM   16  N   UNL     1      30.672  44.586  56.327  1.00  0.00    -0.365 N 
HETATM   17  C   UNL     1      27.800  46.671  55.200  1.00  0.00     0.003 A 
HETATM   18  C   UNL     1      27.342  45.801  54.217  1.00  0.00     0.018 A 
HETATM   19  H   UNL     1      31.186  45.022  57.080  1.00  0.00     0.165 HD
HETATM   20  C   UNL     1      30.990  43.392  55.742  1.00  0.00     0.089 A 
ENDBRANCH   8  11
ENDBRANCH   1   7
BRANCH   5  21
HETATM   21  C   UNL     1      27.129  41.226  47.935  1.00  0.00     0.119 C 
BRANCH  21  22
HETATM   22  C   UNL     1      27.634  39.928  48.528  1.00  0.00    -0.045 A 
HETATM   23  C   UNL     1      29.010  39.655  48.614  1.00  0.00     0.050 A 
HETATM   24  C   UNL     1      29.458  38.462  49.178  1.00  0.00     0.119 A 
HETATM   25  F   UNL     1      30.772  38.212  49.235  1.00  0.00    -0.206 F 
HETATM   26  C   UNL     1      28.566  37.528  49.684  1.00  0.00     0.084 A 
HETATM   27  C   UNL     1      27.208  37.805  49.622  1.00  0.00     0.119 A 
HETATM   28  F   UNL     1      26.332  36.921  50.116  1.00  0.00    -0.206 F 
HETATM   29  C   UNL     1      26.735  38.989  49.056  1.00  0.00     0.050 A 
ENDBRANCH  21  22
ENDBRANCH   5  21
TORSDOF 4
ENDMDL
MODEL 10
REMARK VINA RESULT:      -9.0      5.515      8.532
REMARK  4 active torsions:
REMARK  status: ('A' for Active; 'I' for Inactive)
REMARK    1  A    between atoms: C_5  and  C_6 
REMARK       I    between atoms: C_6  and  N_7 
REMARK    2  A    between atoms: N_7  and  C_8 
REMARK    3  A    between atoms: C_12  and  C_13 
REMARK    4  A    between atoms: C_13  and  C_14 
ROOT
HETATM    1  C   UNL     1      27.402  42.912  51.979  1.00  0.00     0.747 A 
HETATM    2  N   UNL     1      27.523  43.529  50.800  1.00  0.00     0.020 NA
HETATM    3  N   UNL     1      27.103  42.576  49.949  1.00  0.00    -0.248 N 
HETATM    4  H   UNL     1      27.114  42.756  48.952  1.00  0.00     0.191 HD
HETATM    5  C   UNL     1      26.753  41.439  50.616  1.00  0.00     0.144 A 
HETATM    6  N   UNL     1      26.910  41.645  51.905  1.00  0.00    -0.046 NA
ENDROOT
BRANCH   1   7
HETATM    7  N   UNL     1      27.794  43.523  53.135  1.00  0.00    -0.150 N 
HETATM    8  C   UNL     1      29.093  43.632  53.563  1.00  0.00     0.271 C 
HETATM    9  O   UNL     1      30.094  43.176  53.023  1.00  0.00    -0.267 OA
HETATM   10  H   UNL     1      27.042  43.988  53.617  1.00  0.00     0.188 HD
BRANCH   8  11
HETATM   11  C   UNL     1      29.279  44.465  54.777  1.00  0.00     0.045 A 
HETATM   12  C   UNL     1      30.215  44.149  55.792  1.00  0.00     0.008 A 
HETATM   13  C   UNL     1      30.268  44.979  56.918  1.00  0.00     0.043 A 
HETATM   14  C   UNL     1      31.220  43.151  55.982  1.00  0.00     0.032 A 
HETATM   15  C   UNL     1      29.455  46.110  57.071  1.00  0.00     0.030 A 
HETATM   16  N   UNL     1      31.229  44.470  57.763  1.00  0.00    -0.365 N 
HETATM   17  C   UNL     1      28.564  46.420  56.041  1.00  0.00     0.003 A 
HETATM   18  C   UNL     1      28.477  45.614  54.911  1.00  0.00     0.018 A 
HETATM   19  H   UNL     1      31.476  44.872  58.657  1.00  0.00     0.165 HD
HETATM   20  C   UNL     1      31.812  43.366  57.205  1.00  0.00     0.089 A 
ENDBRANCH   8  11
ENDBRANCH   1   7
BRANCH   5  21
HETATM   21  C   UNL     1      26.337  40.180  49.942  1.00  0.00     0.119 C 
BRANCH  21  22
HETATM   22  C   UNL     1      27.507  39.360  49.441  1.00  0.00    -0.045 A 
HETATM   23  C   UNL     1      27.563  38.913  48.109  1.00  0.00     0.050 A 
HETATM   24  C   UNL     1      28.655  38.173  47.659  1.00  0.00     0.119 A 
HETATM   25  F   UNL     1      28.681  37.742  46.392  1.00  0.00    -0.206 F 
HETATM   26  C   UNL     1      29.716  37.877  48.501  1.00  0.00     0.084 A 
HETATM   27  C   UNL     1      29.675  38.337  49.809  1.00  0.00     0.119 A 
HETATM   28  F   UNL     1      30.696  38.071  50.633  1.00  0.00    -0.206 F 
HETATM   29  C   UNL     1      28.590  39.073  50.285  1.00  0.00     0.050 A 
ENDBRANCH  21  22
ENDBRANCH   5  21
TORSDOF 4
ENDMDL
