MODEL 1
REMARK VINA RESULT:      -9.5      0.000      0.000
REMARK  2 active torsions:
REMARK  status: ('A' for Active; 'I' for Inactive)
REMARK       I    between atoms: N_8  and  C_9 
REMARK    1  A    between atoms: C_9  and  C_10 
REMARK    2  A    between atoms: N_12  and  C_13 
ROOT
HETATM    1  C   UNL     1      26.527  47.397  51.625  1.00  0.00     0.021 C 
HETATM    2  C   UNL     1      26.337  47.291  50.115  1.00  0.00     0.087 C 
HETATM    3  C   UNL     1      25.267  48.242  49.606  1.00  0.00     0.207 C 
HETATM    4  O   UNL     1      25.499  49.102  48.763  1.00  0.00    -0.279 OA
HETATM    5  N   UNL     1      24.000  47.977  50.102  1.00  0.00    -0.227 NA
HETATM    6  C   UNL     1      23.280  47.030  49.327  1.00  0.00     0.042 A 
HETATM    7  C   UNL     1      23.582  45.657  49.437  1.00  0.00     0.059 A 
HETATM    8  N   UNL     1      24.793  45.229  50.104  1.00  0.00    -0.309 N 
HETATM    9  C   UNL     1      24.790  44.038  50.880  1.00  0.00     0.298 C 
HETATM   10  O   UNL     1      23.753  43.402  51.087  1.00  0.00    -0.264 OA
HETATM   11  C   UNL     1      26.029  45.880  49.588  1.00  0.00     0.145 C 
HETATM   12  C   UNL     1      22.195  47.485  48.579  1.00  0.00     0.026 A 
HETATM   13  C   UNL     1      21.372  46.563  47.939  1.00  0.00     0.002 A 
HETATM   14  C   UNL     1      21.630  45.198  48.061  1.00  0.00     0.002 A 
HETATM   15  C   UNL     1      22.727  44.746  48.806  1.00  0.00     0.031 A 
HETATM   16  H   UNL     1      24.098  47.573  51.028  1.00  0.00     0.136 HD
ENDROOT
BRANCH   9  17
HETATM   17  C   UNL     1      26.060  43.588  51.519  1.00  0.00     0.239 A 
HETATM   18  N   UNL     1      26.591  44.206  52.591  1.00  0.00    -0.140 NA
HETATM   19  N   UNL     1      27.749  43.540  52.802  1.00  0.00    -0.225 N 
HETATM   20  C   UNL     1      27.876  42.551  51.862  1.00  0.00     0.237 A 
HETATM   21  N   UNL     1      26.850  42.560  51.046  1.00  0.00    -0.216 NA
BRANCH  19  22
HETATM   22  C   UNL     1      28.639  43.879  53.854  1.00  0.00     0.059 A 
HETATM   23  C   UNL     1      29.726  43.037  54.136  1.00  0.00     0.031 A 
HETATM   24  C   UNL     1      30.606  43.354  55.173  1.00  0.00     0.002 A 
HETATM   25  C   UNL     1      30.411  44.507  55.930  1.00  0.00     0.000 A 
HETATM   26  C   UNL     1      29.335  45.348  55.652  1.00  0.00     0.002 A 
HETATM   27  C   UNL     1      28.448  45.039  54.619  1.00  0.00     0.031 A 
ENDBRANCH  19  22
ENDBRANCH   9  17
TORSDOF 2
ENDMDL
MODEL 2
REMARK VINA RESULT:      -9.4      2.255      3.120
REMARK  2 active torsions:
REMARK  status: ('A' for Active; 'I' for Inactive)
REMARK       I    between atoms: N_8  and  C_9 
REMARK    1  A    between atoms: C_9  and  C_10 
REMARK    2  A    between atoms: N_12  and  C_13 
ROOT
HETATM    1  C   UNL     1      26.048  45.544  53.183  1.00  0.00     0.021 C 
HETATM    2  C   UNL     1      26.034  45.611  51.659  1.00  0.00     0.087 C 
HETATM    3  C   UNL     1      24.622  45.646  51.103  1.00  0.00     0.207 C 
HETATM    4  O   UNL     1      24.215  46.566  50.400  1.00  0.00    -0.279 OA
HETATM    5  N   UNL     1      23.883  44.506  51.374  1.00  0.00    -0.227 NA
HETATM    6  C   UNL     1      24.052  43.482  50.405  1.00  0.00     0.042 A 
HETATM    7  C   UNL     1      25.222  42.694  50.411  1.00  0.00     0.059 A 
HETATM    8  N   UNL     1      26.366  43.098  51.201  1.00  0.00    -0.309 N 
HETATM    9  C   UNL     1      27.170  42.112  51.836  1.00  0.00     0.298 C 
HETATM   10  O   UNL     1      26.864  40.916  51.818  1.00  0.00    -0.264 OA
HETATM   11  C   UNL     1      26.815  44.495  50.945  1.00  0.00     0.145 C 
HETATM   12  C   UNL     1      22.981  43.199  49.558  1.00  0.00     0.026 A 
HETATM   13  C   UNL     1      23.055  42.099  48.708  1.00  0.00     0.002 A 
HETATM   14  C   UNL     1      24.188  41.285  48.721  1.00  0.00     0.002 A 
HETATM   15  C   UNL     1      25.265  41.579  49.567  1.00  0.00     0.031 A 
HETATM   16  H   UNL     1      24.205  44.119  52.257  1.00  0.00     0.136 HD
ENDROOT
BRANCH   9  17
HETATM   17  C   UNL     1      28.372  42.544  52.603  1.00  0.00     0.239 A 
HETATM   18  N   UNL     1      28.291  43.088  53.832  1.00  0.00    -0.140 NA
HETATM   19  N   UNL     1      29.575  43.394  54.131  1.00  0.00    -0.225 N 
HETATM   20  C   UNL     1      30.379  43.027  53.085  1.00  0.00     0.237 A 
HETATM   21  N   UNL     1      29.664  42.505  52.118  1.00  0.00    -0.216 NA
BRANCH  19  22
HETATM   22  C   UNL     1      29.944  44.003  55.359  1.00  0.00     0.059 A 
HETATM   23  C   UNL     1      30.923  43.399  56.162  1.00  0.00     0.031 A 
HETATM   24  C   UNL     1      31.291  43.983  57.376  1.00  0.00     0.002 A 
HETATM   25  C   UNL     1      30.691  45.168  57.794  1.00  0.00     0.000 A 
HETATM   26  C   UNL     1      29.720  45.775  56.999  1.00  0.00     0.002 A 
HETATM   27  C   UNL     1      29.343  45.197  55.785  1.00  0.00     0.031 A 
ENDBRANCH  19  22
ENDBRANCH   9  17
TORSDOF 2
ENDMDL
MODEL 3
REMARK VINA RESULT:      -9.4      2.323      7.537
REMARK  2 active torsions:
REMARK  status: ('A' for Active; 'I' for Inactive)
REMARK       I    between atoms: N_8  and  C_9 
REMARK    1  A    between atoms: C_9  and  C_10 
REMARK    2  A    between atoms: N_12  and  C_13 
ROOT
HETATM    1  C   UNL     1      26.407  47.526  53.477  1.00  0.00     0.021 C 
HETATM    2  C   UNL     1      26.447  46.637  54.716  1.00  0.00     0.087 C 
HETATM    3  C   UNL     1      27.596  46.997  55.640  1.00  0.00     0.207 C 
HETATM    4  O   UNL     1      27.421  47.334  56.806  1.00  0.00    -0.279 OA
HETATM    5  N   UNL     1      28.849  46.810  55.078  1.00  0.00    -0.227 NA
HETATM    6  C   UNL     1      29.353  45.494  55.251  1.00  0.00     0.042 A 
HETATM    7  C   UNL     1      28.863  44.443  54.448  1.00  0.00     0.059 A 
HETATM    8  N   UNL     1      27.665  44.628  53.658  1.00  0.00    -0.309 N 
HETATM    9  C   UNL     1      27.561  44.017  52.378  1.00  0.00     0.298 C 
HETATM   10  O   UNL     1      28.507  43.408  51.871  1.00  0.00    -0.264 OA
HETATM   11  C   UNL     1      26.497  45.125  54.437  1.00  0.00     0.145 C 
HETATM   12  C   UNL     1      30.424  45.312  56.125  1.00  0.00     0.026 A 
HETATM   13  C   UNL     1      31.044  44.068  56.197  1.00  0.00     0.002 A 
HETATM   14  C   UNL     1      30.599  43.023  55.387  1.00  0.00     0.002 A 
HETATM   15  C   UNL     1      29.517  43.207  54.518  1.00  0.00     0.031 A 
HETATM   16  H   UNL     1      28.774  46.957  54.075  1.00  0.00     0.136 HD
ENDROOT
BRANCH   9  17
HETATM   17  C   UNL     1      26.299  44.179  51.601  1.00  0.00     0.239 A 
HETATM   18  N   UNL     1      25.977  45.325  50.973  1.00  0.00    -0.140 NA
HETATM   19  N   UNL     1      24.750  45.074  50.461  1.00  0.00    -0.225 N 
HETATM   20  C   UNL     1      24.378  43.798  50.792  1.00  0.00     0.237 A 
HETATM   21  N   UNL     1      25.312  43.219  51.506  1.00  0.00    -0.216 NA
BRANCH  19  22
HETATM   22  C   UNL     1      24.027  46.040  49.712  1.00  0.00     0.059 A 
HETATM   23  C   UNL     1      24.287  47.404  49.914  1.00  0.00     0.031 A 
HETATM   24  C   UNL     1      23.579  48.366  49.190  1.00  0.00     0.002 A 
HETATM   25  C   UNL     1      22.615  47.976  48.263  1.00  0.00     0.000 A 
HETATM   26  C   UNL     1      22.355  46.622  48.056  1.00  0.00     0.002 A 
HETATM   27  C   UNL     1      23.056  45.653  48.777  1.00  0.00     0.031 A 
ENDBRANCH  19  22
ENDBRANCH   9  17
TORSDOF 2
ENDMDL
MODEL 4
REMARK VINA RESULT:      -9.2      2.097      7.741
REMARK  2 active torsions:
REMARK  status: ('A' for Active; 'I' for Inactive)
REMARK       I    between atoms: N_8  and  C_9 
REMARK    1  A    between atoms: C_9  and  C_10 
REMARK    2  A    between atoms: N_12  and  C_13 
ROOT
HETATM    1  C   UNL     1      25.261  42.318  50.165  1.00  0.00     0.021 C 
HETATM    2  C   UNL     1      26.762  42.589  50.154  1.00  0.00     0.087 C 
HETATM    3  C   UNL     1      27.530  41.583  50.994  1.00  0.00     0.207 C 
HETATM    4  O   UNL     1      28.413  40.873  50.524  1.00  0.00    -0.279 OA
HETATM    5  N   UNL     1      27.213  41.619  52.342  1.00  0.00    -0.227 NA
HETATM    6  C   UNL     1      27.986  42.557  53.077  1.00  0.00     0.042 A 
HETATM    7  C   UNL     1      27.683  43.933  52.995  1.00  0.00     0.059 A 
HETATM    8  N   UNL     1      26.794  44.422  51.964  1.00  0.00    -0.309 N 
HETATM    9  C   UNL     1      25.905  45.495  52.248  1.00  0.00     0.298 C 
HETATM   10  O   UNL     1      25.796  45.963  53.385  1.00  0.00    -0.264 OA
HETATM   11  C   UNL     1      27.177  44.006  50.587  1.00  0.00     0.145 C 
HETATM   12  C   UNL     1      28.938  42.066  53.969  1.00  0.00     0.026 A 
HETATM   13  C   UNL     1      29.597  42.950  54.819  1.00  0.00     0.002 A 
HETATM   14  C   UNL     1      29.290  44.311  54.780  1.00  0.00     0.002 A 
HETATM   15  C   UNL     1      28.340  44.800  53.876  1.00  0.00     0.031 A 
HETATM   16  H   UNL     1      26.245  41.911  52.435  1.00  0.00     0.136 HD
ENDROOT
BRANCH   9  17
HETATM   17  C   UNL     1      25.032  46.018  51.159  1.00  0.00     0.239 A 
HETATM   18  N   UNL     1      24.984  47.324  50.832  1.00  0.00    -0.140 NA
HETATM   19  N   UNL     1      24.038  47.376  49.866  1.00  0.00    -0.225 N 
HETATM   20  C   UNL     1      23.554  46.114  49.643  1.00  0.00     0.237 A 
HETATM   21  N   UNL     1      24.143  45.251  50.435  1.00  0.00    -0.216 NA
BRANCH  19  22
HETATM   22  C   UNL     1      23.663  48.591  49.236  1.00  0.00     0.059 A 
HETATM   23  C   UNL     1      22.317  48.987  49.248  1.00  0.00     0.031 A 
HETATM   24  C   UNL     1      21.931  50.176  48.626  1.00  0.00     0.002 A 
HETATM   25  C   UNL     1      22.881  50.976  47.993  1.00  0.00     0.000 A 
HETATM   26  C   UNL     1      24.220  50.590  47.981  1.00  0.00     0.002 A 
HETATM   27  C   UNL     1      24.615  49.400  48.598  1.00  0.00     0.031 A 
ENDBRANCH  19  22
ENDBRANCH   9  17
TORSDOF 2
ENDMDL
MODEL 5
REMARK VINA RESULT:      -8.8      3.284      8.744
REMARK  2 active torsions:
REMARK  status: ('A' for Active; 'I' for Inactive)
REMARK       I    between atoms: N_8  and  C_9 
REMARK    1  A    between atoms: C_9  and  C_10 
REMARK    2  A    between atoms: N_12  and  C_13 
ROOT
HETATM    1  C   UNL     1      20.718  45.962  48.703  1.00  0.00     0.021 C 
HETATM    2  C   UNL     1      21.891  45.161  48.148  1.00  0.00     0.087 C 
HETATM    3  C   UNL     1      22.066  43.833  48.865  1.00  0.00     0.207 C 
HETATM    4  O   UNL     1      22.023  42.758  48.276  1.00  0.00    -0.279 OA
HETATM    5  N   UNL     1      22.378  43.958  50.209  1.00  0.00    -0.227 NA
HETATM    6  C   UNL     1      23.772  44.074  50.455  1.00  0.00     0.042 A 
HETATM    7  C   UNL     1      24.427  45.300  50.216  1.00  0.00     0.059 A 
HETATM    8  N   UNL     1      23.767  46.344  49.461  1.00  0.00    -0.309 N 
HETATM    9  C   UNL     1      23.971  47.706  49.810  1.00  0.00     0.298 C 
HETATM   10  O   UNL     1      24.622  48.029  50.808  1.00  0.00    -0.264 OA
HETATM   11  C   UNL     1      23.243  45.895  48.141  1.00  0.00     0.145 C 
HETATM   12  C   UNL     1      24.422  43.000  51.061  1.00  0.00     0.026 A 
HETATM   13  C   UNL     1      25.747  43.142  51.462  1.00  0.00     0.002 A 
HETATM   14  C   UNL     1      26.406  44.356  51.266  1.00  0.00     0.002 A 
HETATM   15  C   UNL     1      25.752  45.429  50.649  1.00  0.00     0.031 A 
HETATM   16  H   UNL     1      21.954  44.814  50.557  1.00  0.00     0.136 HD
ENDROOT
BRANCH   9  17
HETATM   17  C   UNL     1      23.322  48.768  48.989  1.00  0.00     0.239 A 
HETATM   18  N   UNL     1      22.022  49.094  49.123  1.00  0.00    -0.140 NA
HETATM   19  N   UNL     1      21.828  50.030  48.165  1.00  0.00    -0.225 N 
HETATM   20  C   UNL     1      23.004  50.237  47.495  1.00  0.00     0.237 A 
HETATM   21  N   UNL     1      23.948  49.463  47.975  1.00  0.00    -0.216 NA
BRANCH  19  22
HETATM   22  C   UNL     1      20.568  50.649  47.953  1.00  0.00     0.059 A 
HETATM   23  C   UNL     1      20.226  51.789  48.696  1.00  0.00     0.031 A 
HETATM   24  C   UNL     1      18.987  52.404  48.503  1.00  0.00     0.002 A 
HETATM   25  C   UNL     1      18.088  51.891  47.571  1.00  0.00     0.000 A 
HETATM   26  C   UNL     1      18.423  50.761  46.828  1.00  0.00     0.002 A 
HETATM   27  C   UNL     1      19.659  50.137  47.016  1.00  0.00     0.031 A 
ENDBRANCH  19  22
ENDBRANCH   9  17
TORSDOF 2
ENDMDL
MODEL 6
REMARK VINA RESULT:      -8.6      2.103      7.265
REMARK  2 active torsions:
REMARK  status: ('A' for Active; 'I' for Inactive)
REMARK       I    between atoms: N_8  and  C_9 
REMARK    1  A    between atoms: C_9  and  C_10 
REMARK    2  A    between atoms: N_12  and  C_13 
ROOT
HETATM    1  C   UNL     1      26.126  46.931  52.748  1.00  0.00     0.021 C 
HETATM    2  C   UNL     1      25.820  45.599  53.425  1.00  0.00     0.087 C 
HETATM    3  C   UNL     1      26.993  45.094  54.247  1.00  0.00     0.207 C 
HETATM    4  O   UNL     1      26.904  44.872  55.451  1.00  0.00    -0.279 OA
HETATM    5  N   UNL     1      28.125  44.814  53.498  1.00  0.00    -0.227 NA
HETATM    6  C   UNL     1      28.144  43.492  52.981  1.00  0.00     0.042 A 
HETATM    7  C   UNL     1      27.352  43.164  51.861  1.00  0.00     0.059 A 
HETATM    8  N   UNL     1      26.315  44.068  51.413  1.00  0.00    -0.309 N 
HETATM    9  C   UNL     1      26.051  44.207  50.023  1.00  0.00     0.298 C 
HETATM   10  O   UNL     1      26.750  43.651  49.171  1.00  0.00    -0.264 OA
HETATM   11  C   UNL     1      25.362  44.473  52.483  1.00  0.00     0.145 C 
HETATM   12  C   UNL     1      29.060  42.590  53.522  1.00  0.00     0.026 A 
HETATM   13  C   UNL     1      29.216  41.339  52.933  1.00  0.00     0.002 A 
HETATM   14  C   UNL     1      28.469  41.005  51.803  1.00  0.00     0.002 A 
HETATM   15  C   UNL     1      27.544  41.909  51.269  1.00  0.00     0.031 A 
HETATM   16  H   UNL     1      28.137  45.435  52.694  1.00  0.00     0.136 HD
ENDROOT
BRANCH   9  17
HETATM   17  C   UNL     1      24.946  45.106  49.584  1.00  0.00     0.239 A 
HETATM   18  N   UNL     1      25.077  46.446  49.536  1.00  0.00    -0.140 NA
HETATM   19  N   UNL     1      23.849  46.873  49.162  1.00  0.00    -0.225 N 
HETATM   20  C   UNL     1      23.028  45.789  48.996  1.00  0.00     0.237 A 
HETATM   21  N   UNL     1      23.675  44.680  49.258  1.00  0.00    -0.216 NA
BRANCH  19  22
HETATM   22  C   UNL     1      23.543  48.249  48.993  1.00  0.00     0.059 A 
HETATM   23  C   UNL     1      22.218  48.684  49.153  1.00  0.00     0.031 A 
HETATM   24  C   UNL     1      21.900  50.033  48.983  1.00  0.00     0.002 A 
HETATM   25  C   UNL     1      22.895  50.953  48.658  1.00  0.00     0.000 A 
HETATM   26  C   UNL     1      24.213  50.526  48.502  1.00  0.00     0.002 A 
HETATM   27  C   UNL     1      24.540  49.178  48.666  1.00  0.00     0.031 A 
ENDBRANCH  19  22
ENDBRANCH   9  17
TORSDOF 2
ENDMDL
MODEL 7
REMARK VINA RESULT:      -8.6      2.243      7.687
REMARK  2 active torsions:
REMARK  status: ('A' for Active; 'I' for Inactive)
REMARK       I    between atoms: N_8  and  C_9 
REMARK    1  A    between atoms: C_9  and  C_10 
REMARK    2  A    between atoms: N_12  and  C_13 
ROOT
HETATM    1  C   UNL     1      25.782  46.268  53.906  1.00  0.00     0.021 C 
HETATM    2  C   UNL     1      25.300  44.821  53.865  1.00  0.00     0.087 C 
HETATM    3  C   UNL     1      26.199  43.897  54.668  1.00  0.00     0.207 C 
HETATM    4  O   UNL     1      25.781  43.223  55.604  1.00  0.00    -0.279 OA
HETATM    5  N   UNL     1      27.494  43.812  54.181  1.00  0.00    -0.227 NA
HETATM    6  C   UNL     1      27.655  42.814  53.183  1.00  0.00     0.042 A 
HETATM    7  C   UNL     1      27.204  43.057  51.868  1.00  0.00     0.059 A 
HETATM    8  N   UNL     1      26.332  44.179  51.593  1.00  0.00    -0.309 N 
HETATM    9  C   UNL     1      26.463  44.893  50.371  1.00  0.00     0.298 C 
HETATM   10  O   UNL     1      27.370  44.647  49.570  1.00  0.00    -0.264 OA
HETATM   11  C   UNL     1      25.120  44.229  52.457  1.00  0.00     0.145 C 
HETATM   12  C   UNL     1      28.385  41.672  53.509  1.00  0.00     0.026 A 
HETATM   13  C   UNL     1      28.697  40.753  52.512  1.00  0.00     0.002 A 
HETATM   14  C   UNL     1      28.292  40.989  51.198  1.00  0.00     0.002 A 
HETATM   15  C   UNL     1      27.551  42.132  50.876  1.00  0.00     0.031 A 
HETATM   16  H   UNL     1      27.729  44.697  53.740  1.00  0.00     0.136 HD
ENDROOT
BRANCH   9  17
HETATM   17  C   UNL     1      25.523  46.014  50.085  1.00  0.00     0.239 A 
HETATM   18  N   UNL     1      24.382  45.844  49.390  1.00  0.00    -0.140 NA
HETATM   19  N   UNL     1      23.874  47.095  49.300  1.00  0.00    -0.225 N 
HETATM   20  C   UNL     1      24.715  47.968  49.937  1.00  0.00     0.237 A 
HETATM   21  N   UNL     1      25.751  47.332  50.427  1.00  0.00    -0.216 NA
BRANCH  19  22
HETATM   22  C   UNL     1      22.655  47.373  48.628  1.00  0.00     0.059 A 
HETATM   23  C   UNL     1      22.183  46.476  47.657  1.00  0.00     0.031 A 
HETATM   24  C   UNL     1      20.990  46.740  46.982  1.00  0.00     0.002 A 
HETATM   25  C   UNL     1      20.261  47.891  47.271  1.00  0.00     0.000 A 
HETATM   26  C   UNL     1      20.723  48.784  48.236  1.00  0.00     0.002 A 
HETATM   27  C   UNL     1      21.918  48.530  48.915  1.00  0.00     0.031 A 
ENDBRANCH  19  22
ENDBRANCH   9  17
TORSDOF 2
ENDMDL
MODEL 8
REMARK VINA RESULT:      -8.5      3.143      7.609
REMARK  2 active torsions:
REMARK  status: ('A' for Active; 'I' for Inactive)
REMARK       I    between atoms: N_8  and  C_9 
REMARK    1  A    between atoms: C_9  and  C_10 
REMARK    2  A    between atoms: N_12  and  C_13 
ROOT
HETATM    1  C   UNL     1      26.872  47.240  53.172  1.00  0.00     0.021 C 
HETATM    2  C   UNL     1      26.725  46.384  54.425  1.00  0.00     0.087 C 
HETATM    3  C   UNL     1      27.622  46.863  55.553  1.00  0.00     0.207 C 
HETATM    4  O   UNL     1      27.178  47.208  56.644  1.00  0.00    -0.279 OA
HETATM    5  N   UNL     1      28.976  46.776  55.270  1.00  0.00    -0.227 NA
HETATM    6  C   UNL     1      29.538  45.514  55.595  1.00  0.00     0.042 A 
HETATM    7  C   UNL     1      29.316  44.407  54.749  1.00  0.00     0.059 A 
HETATM    8  N   UNL     1      28.298  44.469  53.721  1.00  0.00    -0.309 N 
HETATM    9  C   UNL     1      28.515  43.825  52.472  1.00  0.00     0.298 C 
HETATM   10  O   UNL     1      29.594  43.292  52.196  1.00  0.00    -0.264 OA
HETATM   11  C   UNL     1      26.957  44.877  54.223  1.00  0.00     0.145 C 
HETATM   12  C   UNL     1      30.413  45.445  56.678  1.00  0.00     0.026 A 
HETATM   13  C   UNL     1      31.104  44.263  56.924  1.00  0.00     0.002 A 
HETATM   14  C   UNL     1      30.927  43.165  56.081  1.00  0.00     0.002 A 
HETATM   15  C   UNL     1      30.040  43.235  55.000  1.00  0.00     0.031 A 
HETATM   16  H   UNL     1      29.100  46.895  54.269  1.00  0.00     0.136 HD
ENDROOT
BRANCH   9  17
HETATM   17  C   UNL     1      27.435  43.859  51.445  1.00  0.00     0.239 A 
HETATM   18  N   UNL     1      26.852  42.742  50.970  1.00  0.00    -0.140 NA
HETATM   19  N   UNL     1      25.997  43.204  50.029  1.00  0.00    -0.225 N 
HETATM   20  C   UNL     1      26.090  44.570  49.970  1.00  0.00     0.237 A 
HETATM   21  N   UNL     1      26.980  45.006  50.828  1.00  0.00    -0.216 NA
BRANCH  19  22
HETATM   22  C   UNL     1      25.170  42.341  49.265  1.00  0.00     0.059 A 
HETATM   23  C   UNL     1      25.755  41.303  48.524  1.00  0.00     0.031 A 
HETATM   24  C   UNL     1      24.955  40.449  47.761  1.00  0.00     0.002 A 
HETATM   25  C   UNL     1      23.573  40.623  47.734  1.00  0.00     0.000 A 
HETATM   26  C   UNL     1      22.986  41.650  48.471  1.00  0.00     0.002 A 
HETATM   27  C   UNL     1      23.778  42.510  49.234  1.00  0.00     0.031 A 
ENDBRANCH  19  22
ENDBRANCH   9  17
TORSDOF 2
ENDMDL
MODEL 9
REMARK VINA RESULT:      -8.4     11.896     13.320
REMARK  2 active torsions:
REMARK  status: ('A' for Active; 'I' for Inactive)
REMARK       I    between atoms: N_8  and  C_9 
REMARK    1  A    between atoms: C_9  and  C_10 
REMARK    2  A    between atoms: N_12  and  C_13 
ROOT
HETATM    1  C   UNL     1      30.353  52.988  40.794  1.00  0.00     0.021 C 
HETATM    2  C   UNL     1      30.804  52.103  39.636  1.00  0.00     0.087 C 
HETATM    3  C   UNL     1      29.635  51.639  38.785  1.00  0.00     0.207 C 
HETATM    4  O   UNL     1      29.558  51.884  37.585  1.00  0.00    -0.279 OA
HETATM    5  N   UNL     1      28.732  50.835  39.462  1.00  0.00    -0.227 NA
HETATM    6  C   UNL     1      29.074  49.457  39.433  1.00  0.00     0.042 A 
HETATM    7  C   UNL     1      30.097  48.970  40.273  1.00  0.00     0.059 A 
HETATM    8  N   UNL     1      30.989  49.892  40.944  1.00  0.00    -0.309 N 
HETATM    9  C   UNL     1      31.455  49.596  42.254  1.00  0.00     0.298 C 
HETATM   10  O   UNL     1      31.043  48.617  42.884  1.00  0.00    -0.264 OA
HETATM   11  C   UNL     1      31.639  50.875  40.034  1.00  0.00     0.145 C 
HETATM   12  C   UNL     1      28.282  48.602  38.668  1.00  0.00     0.026 A 
HETATM   13  C   UNL     1      28.490  47.228  38.745  1.00  0.00     0.002 A 
HETATM   14  C   UNL     1      29.474  46.720  39.594  1.00  0.00     0.002 A 
HETATM   15  C   UNL     1      30.273  47.583  40.354  1.00  0.00     0.031 A 
HETATM   16  H   UNL     1      28.732  51.109  40.440  1.00  0.00     0.136 HD
ENDROOT
BRANCH   9  17
HETATM   17  C   UNL     1      32.411  50.533  42.909  1.00  0.00     0.239 A 
HETATM   18  N   UNL     1      33.670  50.711  42.466  1.00  0.00    -0.140 NA
HETATM   19  N   UNL     1      34.206  51.570  43.364  1.00  0.00    -0.225 N 
HETATM   20  C   UNL     1      33.262  51.881  44.306  1.00  0.00     0.237 A 
HETATM   21  N   UNL     1      32.141  51.247  44.059  1.00  0.00    -0.216 NA
BRANCH  19  22
HETATM   22  C   UNL     1      35.547  52.026  43.271  1.00  0.00     0.059 A 
HETATM   23  C   UNL     1      36.296  51.737  42.121  1.00  0.00     0.031 A 
HETATM   24  C   UNL     1      37.619  52.173  42.018  1.00  0.00     0.002 A 
HETATM   25  C   UNL     1      38.199  52.899  43.056  1.00  0.00     0.000 A 
HETATM   26  C   UNL     1      37.459  53.192  44.200  1.00  0.00     0.002 A 
HETATM   27  C   UNL     1      36.136  52.758  44.313  1.00  0.00     0.031 A 
ENDBRANCH  19  22
ENDBRANCH   9  17
TORSDOF 2
ENDMDL
MODEL 10
REMARK VINA RESULT:      -8.3      3.838      7.016
REMARK  2 active torsions:
REMARK  status: ('A' for Active; 'I' for Inactive)
REMARK       I    between atoms: N_8  and  C_9 
REMARK    1  A    between atoms: C_9  and  C_10 
REMARK    2  A    between atoms: N_12  and  C_13 
ROOT
HETATM    1  C   UNL     1      28.384  41.125  53.552  1.00  0.00     0.021 C 
HETATM    2  C   UNL     1      29.040  42.456  53.200  1.00  0.00     0.087 C 
HETATM    3  C   UNL     1      28.999  43.437  54.358  1.00  0.00     0.207 C 
HETATM    4  O   UNL     1      30.015  43.920  54.847  1.00  0.00    -0.279 OA
HETATM    5  N   UNL     1      27.718  43.808  54.735  1.00  0.00    -0.227 NA
HETATM    6  C   UNL     1      27.216  44.918  54.006  1.00  0.00     0.042 A 
HETATM    7  C   UNL     1      26.749  44.739  52.687  1.00  0.00     0.059 A 
HETATM    8  N   UNL     1      27.036  43.513  51.973  1.00  0.00    -0.309 N 
HETATM    9  C   UNL     1      26.069  42.970  51.085  1.00  0.00     0.298 C 
HETATM   10  O   UNL     1      24.941  43.460  50.975  1.00  0.00    -0.264 OA
HETATM   11  C   UNL     1      28.481  43.153  51.948  1.00  0.00     0.145 C 
HETATM   12  C   UNL     1      27.074  46.132  54.677  1.00  0.00     0.026 A 
HETATM   13  C   UNL     1      26.438  47.194  54.040  1.00  0.00     0.002 A 
HETATM   14  C   UNL     1      25.937  47.030  52.748  1.00  0.00     0.002 A 
HETATM   15  C   UNL     1      26.090  45.812  52.075  1.00  0.00     0.031 A 
HETATM   16  H   UNL     1      27.091  43.032  54.541  1.00  0.00     0.136 HD
ENDROOT
BRANCH   9  17
HETATM   17  C   UNL     1      26.403  41.734  50.321  1.00  0.00     0.239 A 
HETATM   18  N   UNL     1      26.855  41.765  49.053  1.00  0.00    -0.140 NA
HETATM   19  N   UNL     1      26.964  40.458  48.721  1.00  0.00    -0.225 N 
HETATM   20  C   UNL     1      26.580  39.690  49.789  1.00  0.00     0.237 A 
HETATM   21  N   UNL     1      26.218  40.450  50.793  1.00  0.00    -0.216 NA
BRANCH  19  22
HETATM   22  C   UNL     1      27.410  40.035  47.442  1.00  0.00     0.059 A 
HETATM   23  C   UNL     1      27.753  40.995  46.478  1.00  0.00     0.031 A 
HETATM   24  C   UNL     1      28.187  40.593  45.213  1.00  0.00     0.002 A 
HETATM   25  C   UNL     1      28.285  39.239  44.903  1.00  0.00     0.000 A 
HETATM   26  C   UNL     1      27.949  38.280  45.858  1.00  0.00     0.002 A 
HETATM   27  C   UNL     1      27.511  38.672  47.125  1.00  0.00     0.031 A 
ENDBRANCH  19  22
ENDBRANCH   9  17
TORSDOF 2
ENDMDL
