MODEL 1
REMARK VINA RESULT:     -10.2      0.000      0.000
REMARK  8 active torsions:
REMARK  status: ('A' for Active; 'I' for Inactive)
REMARK    1  A    between atoms: O_2  and  C_3 
REMARK    2  A    between atoms: C_6  and  C_7 
REMARK    3  A    between atoms: C_7  and  C_8 
REMARK    4  A    between atoms: C_8  and  C_9 
REMARK    5  A    between atoms: C_11  and  N_12 
REMARK       I    between atoms: N_12  and  C_13 
REMARK    6  A    between atoms: C_13  and  C_14 
REMARK    7  A    between atoms: C_18  and  C_19 
REMARK    8  A    between atoms: C_22  and  O_23 
ROOT
HETATM    1  N   UNL     1      24.997  47.136  49.582  1.00  0.00    -0.149 N 
HETATM    2  C   UNL     1      25.350  48.380  49.125  1.00  0.00     0.290 C 
HETATM    3  O   UNL     1      26.482  48.839  49.013  1.00  0.00    -0.265 OA
HETATM    4  H   UNL     1      24.015  46.908  49.631  1.00  0.00     0.188 HD
ENDROOT
BRANCH   1   5
HETATM    5  C   UNL     1      25.872  46.185  50.012  1.00  0.00     0.747 A 
HETATM    6  N   UNL     1      25.703  45.644  51.261  1.00  0.00    -0.046 NA
HETATM    7  C   UNL     1      26.692  44.780  51.364  1.00  0.00     0.140 A 
HETATM    8  N   UNL     1      27.413  44.806  50.205  1.00  0.00    -0.248 N 
HETATM    9  N   UNL     1      26.918  45.698  49.346  1.00  0.00     0.020 NA
HETATM   10  H   UNL     1      28.232  44.269  49.943  1.00  0.00     0.191 HD
BRANCH   7  11
HETATM   11  C   UNL     1      27.032  43.873  52.492  1.00  0.00     0.085 C 
BRANCH  11  12
HETATM   12  C   UNL     1      28.527  43.535  52.514  1.00  0.00     0.046 C 
BRANCH  12  13
HETATM   13  C   UNL     1      29.170  43.884  53.834  1.00  0.00    -0.058 A 
HETATM   14  C   UNL     1      28.736  45.003  54.557  1.00  0.00     0.010 A 
HETATM   15  C   UNL     1      29.320  45.335  55.785  1.00  0.00     0.037 A 
HETATM   16  C   UNL     1      30.344  44.550  56.307  1.00  0.00     0.068 A 
HETATM   17  C   UNL     1      30.791  43.443  55.580  1.00  0.00     0.037 A 
HETATM   18  C   UNL     1      30.212  43.109  54.353  1.00  0.00     0.010 A 
BRANCH  16  19
HETATM   19  O   UNL     1      30.989  44.757  57.495  1.00  0.00    -0.356 OA
HETATM   20  C   UNL     1      30.579  45.885  58.258  1.00  0.00     0.210 C 
ENDBRANCH  16  19
ENDBRANCH  12  13
ENDBRANCH  11  12
ENDBRANCH   7  11
ENDBRANCH   1   5
BRANCH   2  21
HETATM   21  C   UNL     1      24.176  49.198  48.771  1.00  0.00     0.147 A 
HETATM   22  N   UNL     1      24.067  49.868  47.606  1.00  0.00    -0.169 NA
HETATM   23  N   UNL     1      22.855  50.453  47.684  1.00  0.00    -0.277 N 
HETATM   24  H   UNL     1      22.539  51.007  46.895  1.00  0.00     0.189 HD
HETATM   25  C   UNL     1      22.166  50.183  48.838  1.00  0.00     0.063 A 
HETATM   26  C   UNL     1      23.016  49.378  49.567  1.00  0.00     0.071 A 
BRANCH  25  27
HETATM   27  C   UNL     1      20.809  50.645  49.124  1.00  0.00    -0.008 A 
HETATM   28  C   UNL     1      20.005  49.923  50.014  1.00  0.00     0.016 A 
HETATM   29  C   UNL     1      18.705  50.345  50.305  1.00  0.00     0.037 A 
HETATM   30  C   UNL     1      18.184  51.498  49.718  1.00  0.00     0.068 A 
HETATM   31  C   UNL     1      18.979  52.227  48.833  1.00  0.00     0.037 A 
HETATM   32  C   UNL     1      20.283  51.802  48.538  1.00  0.00     0.016 A 
BRANCH  30  33
HETATM   33  O   UNL     1      16.904  51.796  50.090  1.00  0.00    -0.356 OA
HETATM   34  C   UNL     1      16.443  53.114  49.822  1.00  0.00     0.210 C 
ENDBRANCH  30  33
ENDBRANCH  25  27
ENDBRANCH   2  21
TORSDOF 8
ENDMDL
MODEL 2
REMARK VINA RESULT:      -9.7      1.666     11.625
REMARK  8 active torsions:
REMARK  status: ('A' for Active; 'I' for Inactive)
REMARK    1  A    between atoms: O_2  and  C_3 
REMARK    2  A    between atoms: C_6  and  C_7 
REMARK    3  A    between atoms: C_7  and  C_8 
REMARK    4  A    between atoms: C_8  and  C_9 
REMARK    5  A    between atoms: C_11  and  N_12 
REMARK       I    between atoms: N_12  and  C_13 
REMARK    6  A    between atoms: C_13  and  C_14 
REMARK    7  A    between atoms: C_18  and  C_19 
REMARK    8  A    between atoms: C_22  and  O_23 
ROOT
HETATM    1  N   UNL     1      24.223  46.504  50.435  1.00  0.00    -0.149 N 
HETATM    2  C   UNL     1      24.914  45.336  50.236  1.00  0.00     0.290 C 
HETATM    3  O   UNL     1      25.017  44.701  49.191  1.00  0.00    -0.265 OA
HETATM    4  H   UNL     1      24.218  46.902  51.363  1.00  0.00     0.188 HD
ENDROOT
BRANCH   1   5
HETATM    5  C   UNL     1      23.509  47.161  49.480  1.00  0.00     0.747 A 
HETATM    6  N   UNL     1      23.674  48.517  49.344  1.00  0.00    -0.046 NA
HETATM    7  C   UNL     1      22.859  48.833  48.359  1.00  0.00     0.140 A 
HETATM    8  N   UNL     1      22.243  47.696  47.923  1.00  0.00    -0.248 N 
HETATM    9  N   UNL     1      22.631  46.634  48.629  1.00  0.00     0.020 NA
HETATM   10  H   UNL     1      21.563  47.575  47.181  1.00  0.00     0.191 HD
BRANCH   7  11
HETATM   11  C   UNL     1      22.603  50.163  47.743  1.00  0.00     0.085 C 
BRANCH  11  12
HETATM   12  C   UNL     1      22.207  51.205  48.795  1.00  0.00     0.046 C 
BRANCH  12  13
HETATM   13  C   UNL     1      20.714  51.264  49.005  1.00  0.00    -0.058 A 
HETATM   14  C   UNL     1      20.113  50.501  50.015  1.00  0.00     0.010 A 
HETATM   15  C   UNL     1      18.731  50.550  50.225  1.00  0.00     0.037 A 
HETATM   16  C   UNL     1      17.930  51.365  49.427  1.00  0.00     0.068 A 
HETATM   17  C   UNL     1      18.524  52.114  48.408  1.00  0.00     0.037 A 
HETATM   18  C   UNL     1      19.905  52.066  48.194  1.00  0.00     0.010 A 
BRANCH  16  19
HETATM   19  O   UNL     1      16.575  51.512  49.535  1.00  0.00    -0.356 OA
HETATM   20  C   UNL     1      16.107  52.709  50.143  1.00  0.00     0.210 C 
ENDBRANCH  16  19
ENDBRANCH  12  13
ENDBRANCH  11  12
ENDBRANCH   7  11
ENDBRANCH   1   5
BRANCH   2  21
HETATM   21  C   UNL     1      25.553  44.848  51.471  1.00  0.00     0.147 A 
HETATM   22  N   UNL     1      25.062  43.829  52.203  1.00  0.00    -0.169 NA
HETATM   23  N   UNL     1      25.947  43.701  53.212  1.00  0.00    -0.277 N 
HETATM   24  H   UNL     1      25.793  42.967  53.896  1.00  0.00     0.189 HD
HETATM   25  C   UNL     1      26.999  44.579  53.160  1.00  0.00     0.063 A 
HETATM   26  C   UNL     1      26.753  45.346  52.040  1.00  0.00     0.071 A 
BRANCH  25  27
HETATM   27  C   UNL     1      28.119  44.592  54.098  1.00  0.00    -0.008 A 
HETATM   28  C   UNL     1      28.990  43.498  54.153  1.00  0.00     0.016 A 
HETATM   29  C   UNL     1      30.069  43.487  55.041  1.00  0.00     0.037 A 
HETATM   30  C   UNL     1      30.303  44.570  55.888  1.00  0.00     0.068 A 
HETATM   31  C   UNL     1      29.444  45.667  55.839  1.00  0.00     0.037 A 
HETATM   32  C   UNL     1      28.358  45.678  54.950  1.00  0.00     0.016 A 
BRANCH  30  33
HETATM   33  O   UNL     1      31.391  44.429  56.702  1.00  0.00    -0.356 OA
HETATM   34  C   UNL     1      31.712  43.112  57.131  1.00  0.00     0.210 C 
ENDBRANCH  30  33
ENDBRANCH  25  27
ENDBRANCH   2  21
TORSDOF 8
ENDMDL
MODEL 3
REMARK VINA RESULT:      -9.5      1.775     11.574
REMARK  8 active torsions:
REMARK  status: ('A' for Active; 'I' for Inactive)
REMARK    1  A    between atoms: O_2  and  C_3 
REMARK    2  A    between atoms: C_6  and  C_7 
REMARK    3  A    between atoms: C_7  and  C_8 
REMARK    4  A    between atoms: C_8  and  C_9 
REMARK    5  A    between atoms: C_11  and  N_12 
REMARK       I    between atoms: N_12  and  C_13 
REMARK    6  A    between atoms: C_13  and  C_14 
REMARK    7  A    between atoms: C_18  and  C_19 
REMARK    8  A    between atoms: C_22  and  O_23 
ROOT
HETATM    1  N   UNL     1      24.680  45.946  50.176  1.00  0.00    -0.149 N 
HETATM    2  C   UNL     1      24.353  44.798  50.850  1.00  0.00     0.290 C 
HETATM    3  O   UNL     1      23.265  44.232  50.875  1.00  0.00    -0.265 OA
HETATM    4  H   UNL     1      25.621  46.300  50.267  1.00  0.00     0.188 HD
ENDROOT
BRANCH   1   5
HETATM    5  C   UNL     1      23.820  46.673  49.411  1.00  0.00     0.747 A 
HETATM    6  N   UNL     1      24.026  48.024  49.282  1.00  0.00    -0.046 NA
HETATM    7  C   UNL     1      23.042  48.416  48.499  1.00  0.00     0.140 A 
HETATM    8  N   UNL     1      22.289  47.327  48.169  1.00  0.00    -0.248 N 
HETATM    9  N   UNL     1      22.757  46.221  48.747  1.00  0.00     0.020 NA
HETATM   10  H   UNL     1      21.464  47.267  47.582  1.00  0.00     0.191 HD
BRANCH   7  11
HETATM   11  C   UNL     1      22.736  49.779  47.989  1.00  0.00     0.085 C 
BRANCH  11  12
HETATM   12  C   UNL     1      22.427  50.753  49.131  1.00  0.00     0.046 C 
BRANCH  12  13
HETATM   13  C   UNL     1      20.945  50.990  49.293  1.00  0.00    -0.058 A 
HETATM   14  C   UNL     1      20.295  51.955  48.512  1.00  0.00     0.010 A 
HETATM   15  C   UNL     1      18.921  52.181  48.647  1.00  0.00     0.037 A 
HETATM   16  C   UNL     1      18.178  51.442  49.564  1.00  0.00     0.068 A 
HETATM   17  C   UNL     1      18.825  50.491  50.356  1.00  0.00     0.037 A 
HETATM   18  C   UNL     1      20.199  50.264  50.225  1.00  0.00     0.010 A 
BRANCH  16  19
HETATM   19  O   UNL     1      16.833  51.556  49.785  1.00  0.00    -0.356 OA
HETATM   20  C   UNL     1      16.320  52.872  49.950  1.00  0.00     0.210 C 
ENDBRANCH  16  19
ENDBRANCH  12  13
ENDBRANCH  11  12
ENDBRANCH   7  11
ENDBRANCH   1   5
BRANCH   2  21
HETATM   21  C   UNL     1      25.488  44.263  51.625  1.00  0.00     0.147 A 
HETATM   22  N   UNL     1      26.018  43.042  51.411  1.00  0.00    -0.169 NA
HETATM   23  N   UNL     1      27.025  42.968  52.303  1.00  0.00    -0.277 N 
HETATM   24  H   UNL     1      27.594  42.127  52.316  1.00  0.00     0.189 HD
HETATM   25  C   UNL     1      27.185  44.090  53.075  1.00  0.00     0.063 A 
HETATM   26  C   UNL     1      26.183  44.941  52.659  1.00  0.00     0.071 A 
BRANCH  25  27
HETATM   27  C   UNL     1      28.247  44.276  54.062  1.00  0.00    -0.008 A 
HETATM   28  C   UNL     1      29.191  43.262  54.264  1.00  0.00     0.016 A 
HETATM   29  C   UNL     1      30.216  43.417  55.201  1.00  0.00     0.037 A 
HETATM   30  C   UNL     1      30.323  44.588  55.950  1.00  0.00     0.068 A 
HETATM   31  C   UNL     1      29.390  45.607  55.753  1.00  0.00     0.037 A 
HETATM   32  C   UNL     1      28.358  45.451  54.815  1.00  0.00     0.016 A 
BRANCH  30  33
HETATM   33  O   UNL     1      31.371  44.608  56.827  1.00  0.00    -0.356 OA
HETATM   34  C   UNL     1      31.965  43.359  57.153  1.00  0.00     0.210 C 
ENDBRANCH  30  33
ENDBRANCH  25  27
ENDBRANCH   2  21
TORSDOF 8
ENDMDL
MODEL 4
REMARK VINA RESULT:      -8.3      2.944      3.619
REMARK  8 active torsions:
REMARK  status: ('A' for Active; 'I' for Inactive)
REMARK    1  A    between atoms: O_2  and  C_3 
REMARK    2  A    between atoms: C_6  and  C_7 
REMARK    3  A    between atoms: C_7  and  C_8 
REMARK    4  A    between atoms: C_8  and  C_9 
REMARK    5  A    between atoms: C_11  and  N_12 
REMARK       I    between atoms: N_12  and  C_13 
REMARK    6  A    between atoms: C_13  and  C_14 
REMARK    7  A    between atoms: C_18  and  C_19 
REMARK    8  A    between atoms: C_22  and  O_23 
ROOT
HETATM    1  N   UNL     1      24.889  43.687  49.649  1.00  0.00    -0.149 N 
HETATM    2  C   UNL     1      23.813  43.049  49.087  1.00  0.00     0.290 C 
HETATM    3  O   UNL     1      23.669  41.843  48.915  1.00  0.00    -0.265 OA
HETATM    4  H   UNL     1      24.867  44.695  49.708  1.00  0.00     0.188 HD
ENDROOT
BRANCH   1   5
HETATM    5  C   UNL     1      26.011  43.068  50.109  1.00  0.00     0.747 A 
HETATM    6  N   UNL     1      26.157  42.879  51.461  1.00  0.00    -0.046 NA
HETATM    7  C   UNL     1      27.320  42.270  51.567  1.00  0.00     0.140 A 
HETATM    8  N   UNL     1      27.835  42.096  50.315  1.00  0.00    -0.248 N 
HETATM    9  N   UNL     1      27.028  42.607  49.384  1.00  0.00     0.020 NA
HETATM   10  H   UNL     1      28.706  41.662  50.031  1.00  0.00     0.191 HD
BRANCH   7  11
HETATM   11  C   UNL     1      28.021  41.793  52.789  1.00  0.00     0.085 C 
BRANCH  11  12
HETATM   12  C   UNL     1      29.438  42.368  52.887  1.00  0.00     0.046 C 
BRANCH  12  13
HETATM   13  C   UNL     1      29.572  43.366  54.011  1.00  0.00    -0.058 A 
HETATM   14  C   UNL     1      28.652  44.417  54.135  1.00  0.00     0.010 A 
HETATM   15  C   UNL     1      28.760  45.346  55.175  1.00  0.00     0.037 A 
HETATM   16  C   UNL     1      29.789  45.235  56.108  1.00  0.00     0.068 A 
HETATM   17  C   UNL     1      30.717  44.199  55.978  1.00  0.00     0.037 A 
HETATM   18  C   UNL     1      30.613  43.270  54.938  1.00  0.00     0.010 A 
BRANCH  16  19
HETATM   19  O   UNL     1      30.000  46.066  57.173  1.00  0.00    -0.356 OA
HETATM   20  C   UNL     1      30.498  45.468  58.363  1.00  0.00     0.210 C 
ENDBRANCH  16  19
ENDBRANCH  12  13
ENDBRANCH  11  12
ENDBRANCH   7  11
ENDBRANCH   1   5
BRANCH   2  21
HETATM   21  C   UNL     1      22.770  43.994  48.649  1.00  0.00     0.147 A 
HETATM   22  N   UNL     1      21.569  43.602  48.179  1.00  0.00    -0.169 NA
HETATM   23  N   UNL     1      20.931  44.761  47.920  1.00  0.00    -0.277 N 
HETATM   24  H   UNL     1      19.981  44.717  47.568  1.00  0.00     0.189 HD
HETATM   25  C   UNL     1      21.655  45.887  48.216  1.00  0.00     0.063 A 
HETATM   26  C   UNL     1      22.864  45.409  48.678  1.00  0.00     0.071 A 
BRANCH  25  27
HETATM   27  C   UNL     1      21.156  47.255  48.088  1.00  0.00    -0.008 A 
HETATM   28  C   UNL     1      20.166  47.545  47.142  1.00  0.00     0.016 A 
HETATM   29  C   UNL     1      19.672  48.845  47.001  1.00  0.00     0.037 A 
HETATM   30  C   UNL     1      20.151  49.878  47.805  1.00  0.00     0.068 A 
HETATM   31  C   UNL     1      21.135  49.599  48.753  1.00  0.00     0.037 A 
HETATM   32  C   UNL     1      21.635  48.295  48.893  1.00  0.00     0.016 A 
BRANCH  30  33
HETATM   33  O   UNL     1      19.581  51.096  47.564  1.00  0.00    -0.356 OA
HETATM   34  C   UNL     1      19.670  52.068  48.598  1.00  0.00     0.210 C 
ENDBRANCH  30  33
ENDBRANCH  25  27
ENDBRANCH   2  21
TORSDOF 8
ENDMDL
MODEL 5
REMARK VINA RESULT:      -8.3      2.127     11.655
REMARK  8 active torsions:
REMARK  status: ('A' for Active; 'I' for Inactive)
REMARK    1  A    between atoms: O_2  and  C_3 
REMARK    2  A    between atoms: C_6  and  C_7 
REMARK    3  A    between atoms: C_7  and  C_8 
REMARK    4  A    between atoms: C_8  and  C_9 
REMARK    5  A    between atoms: C_11  and  N_12 
REMARK       I    between atoms: N_12  and  C_13 
REMARK    6  A    between atoms: C_13  and  C_14 
REMARK    7  A    between atoms: C_18  and  C_19 
REMARK    8  A    between atoms: C_22  and  O_23 
ROOT
HETATM    1  N   UNL     1      23.151  46.988  49.491  1.00  0.00    -0.149 N 
HETATM    2  C   UNL     1      23.604  45.708  49.299  1.00  0.00     0.290 C 
HETATM    3  O   UNL     1      23.221  44.901  48.458  1.00  0.00    -0.265 OA
HETATM    4  H   UNL     1      23.557  47.529  50.241  1.00  0.00     0.188 HD
ENDROOT
BRANCH   1   5
HETATM    5  C   UNL     1      22.165  47.584  48.766  1.00  0.00     0.747 A 
HETATM    6  N   UNL     1      22.212  48.942  48.572  1.00  0.00    -0.046 NA
HETATM    7  C   UNL     1      21.138  49.192  47.852  1.00  0.00     0.140 A 
HETATM    8  N   UNL     1      20.488  48.014  47.619  1.00  0.00    -0.248 N 
HETATM    9  N   UNL     1      21.114  46.991  48.202  1.00  0.00     0.020 NA
HETATM   10  H   UNL     1      19.635  47.841  47.098  1.00  0.00     0.191 HD
BRANCH   7  11
HETATM   11  C   UNL     1      20.649  50.490  47.316  1.00  0.00     0.085 C 
BRANCH  11  12
HETATM   12  C   UNL     1      20.366  51.494  48.438  1.00  0.00     0.046 C 
BRANCH  12  13
HETATM   13  C   UNL     1      18.888  51.710  48.650  1.00  0.00    -0.058 A 
HETATM   14  C   UNL     1      17.964  51.248  47.703  1.00  0.00     0.010 A 
HETATM   15  C   UNL     1      16.591  51.436  47.889  1.00  0.00     0.037 A 
HETATM   16  C   UNL     1      16.122  52.087  49.028  1.00  0.00     0.068 A 
HETATM   17  C   UNL     1      17.041  52.564  49.966  1.00  0.00     0.037 A 
HETATM   18  C   UNL     1      18.414  52.379  49.782  1.00  0.00     0.010 A 
BRANCH  16  19
HETATM   19  O   UNL     1      14.811  52.325  49.334  1.00  0.00    -0.356 OA
HETATM   20  C   UNL     1      14.555  53.091  50.505  1.00  0.00     0.210 C 
ENDBRANCH  16  19
ENDBRANCH  12  13
ENDBRANCH  11  12
ENDBRANCH   7  11
ENDBRANCH   1   5
BRANCH   2  21
HETATM   21  C   UNL     1      24.651  45.335  50.268  1.00  0.00     0.147 A 
HETATM   22  N   UNL     1      25.439  44.251  50.123  1.00  0.00    -0.169 NA
HETATM   23  N   UNL     1      26.251  44.297  51.198  1.00  0.00    -0.277 N 
HETATM   24  H   UNL     1      26.958  43.576  51.295  1.00  0.00     0.189 HD
HETATM   25  C   UNL     1      26.038  45.369  52.026  1.00  0.00     0.063 A 
HETATM   26  C   UNL     1      24.988  46.050  51.445  1.00  0.00     0.071 A 
BRANCH  25  27
HETATM   27  C   UNL     1      26.833  45.674  53.213  1.00  0.00    -0.008 A 
HETATM   28  C   UNL     1      27.784  44.751  53.666  1.00  0.00     0.016 A 
HETATM   29  C   UNL     1      28.557  45.020  54.798  1.00  0.00     0.037 A 
HETATM   30  C   UNL     1      28.401  46.216  55.498  1.00  0.00     0.068 A 
HETATM   31  C   UNL     1      27.460  47.144  55.053  1.00  0.00     0.037 A 
HETATM   32  C   UNL     1      26.680  46.874  53.917  1.00  0.00     0.016 A 
BRANCH  30  33
HETATM   33  O   UNL     1      29.221  46.351  56.583  1.00  0.00    -0.356 OA
HETATM   34  C   UNL     1      30.135  45.292  56.838  1.00  0.00     0.210 C 
ENDBRANCH  30  33
ENDBRANCH  25  27
ENDBRANCH   2  21
TORSDOF 8
ENDMDL
MODEL 6
REMARK VINA RESULT:      -8.3      2.399     12.641
REMARK  8 active torsions:
REMARK  status: ('A' for Active; 'I' for Inactive)
REMARK    1  A    between atoms: O_2  and  C_3 
REMARK    2  A    between atoms: C_6  and  C_7 
REMARK    3  A    between atoms: C_7  and  C_8 
REMARK    4  A    between atoms: C_8  and  C_9 
REMARK    5  A    between atoms: C_11  and  N_12 
REMARK       I    between atoms: N_12  and  C_13 
REMARK    6  A    between atoms: C_13  and  C_14 
REMARK    7  A    between atoms: C_18  and  C_19 
REMARK    8  A    between atoms: C_22  and  O_23 
ROOT
HETATM    1  N   UNL     1      22.427  49.366  49.131  1.00  0.00    -0.149 N 
HETATM    2  C   UNL     1      23.611  49.416  48.442  1.00  0.00     0.290 C 
HETATM    3  O   UNL     1      23.821  49.956  47.360  1.00  0.00    -0.265 OA
HETATM    4  H   UNL     1      22.408  48.868  50.009  1.00  0.00     0.188 HD
ENDROOT
BRANCH   1   5
HETATM    5  C   UNL     1      21.254  49.913  48.709  1.00  0.00     0.747 A 
HETATM    6  N   UNL     1      20.822  51.082  49.284  1.00  0.00    -0.046 NA
HETATM    7  C   UNL     1      19.685  51.332  48.667  1.00  0.00     0.140 A 
HETATM    8  N   UNL     1      19.464  50.346  47.749  1.00  0.00    -0.248 N 
HETATM    9  N   UNL     1      20.437  49.435  47.772  1.00  0.00     0.020 NA
HETATM   10  H   UNL     1      18.692  50.229  47.102  1.00  0.00     0.191 HD
BRANCH   7  11
HETATM   11  C   UNL     1      18.750  52.474  48.849  1.00  0.00     0.085 C 
BRANCH  11  12
HETATM   12  C   UNL     1      17.543  52.083  49.709  1.00  0.00     0.046 C 
BRANCH  12  13
HETATM   13  C   UNL     1      16.310  52.878  49.354  1.00  0.00    -0.058 A 
HETATM   14  C   UNL     1      15.787  53.810  50.261  1.00  0.00     0.010 A 
HETATM   15  C   UNL     1      14.648  54.558  49.943  1.00  0.00     0.037 A 
HETATM   16  C   UNL     1      14.018  54.385  48.713  1.00  0.00     0.068 A 
HETATM   17  C   UNL     1      14.527  53.444  47.814  1.00  0.00     0.037 A 
HETATM   18  C   UNL     1      15.664  52.694  48.128  1.00  0.00     0.010 A 
BRANCH  16  19
HETATM   19  O   UNL     1      12.910  55.057  48.277  1.00  0.00    -0.356 OA
HETATM   20  C   UNL     1      13.124  56.338  47.699  1.00  0.00     0.210 C 
ENDBRANCH  16  19
ENDBRANCH  12  13
ENDBRANCH  11  12
ENDBRANCH   7  11
ENDBRANCH   1   5
BRANCH   2  21
HETATM   21  C   UNL     1      24.694  48.698  49.138  1.00  0.00     0.147 A 
HETATM   22  N   UNL     1      25.998  49.001  48.986  1.00  0.00    -0.169 NA
HETATM   23  N   UNL     1      26.628  48.132  49.802  1.00  0.00    -0.277 N 
HETATM   24  H   UNL     1      27.639  48.185  49.870  1.00  0.00     0.189 HD
HETATM   25  C   UNL     1      25.792  47.289  50.489  1.00  0.00     0.063 A 
HETATM   26  C   UNL     1      24.527  47.632  50.059  1.00  0.00     0.071 A 
BRANCH  25  27
HETATM   27  C   UNL     1      26.231  46.310  51.480  1.00  0.00    -0.008 A 
HETATM   28  C   UNL     1      26.664  45.046  51.061  1.00  0.00     0.016 A 
HETATM   29  C   UNL     1      27.089  44.093  51.990  1.00  0.00     0.037 A 
HETATM   30  C   UNL     1      27.095  44.383  53.354  1.00  0.00     0.068 A 
HETATM   31  C   UNL     1      26.670  45.640  53.782  1.00  0.00     0.037 A 
HETATM   32  C   UNL     1      26.240  46.598  52.850  1.00  0.00     0.016 A 
BRANCH  30  33
HETATM   33  O   UNL     1      27.536  43.363  54.150  1.00  0.00    -0.356 OA
HETATM   34  C   UNL     1      28.925  43.332  54.452  1.00  0.00     0.210 C 
ENDBRANCH  30  33
ENDBRANCH  25  27
ENDBRANCH   2  21
TORSDOF 8
ENDMDL
MODEL 7
REMARK VINA RESULT:      -8.2      3.160      3.456
REMARK  8 active torsions:
REMARK  status: ('A' for Active; 'I' for Inactive)
REMARK    1  A    between atoms: O_2  and  C_3 
REMARK    2  A    between atoms: C_6  and  C_7 
REMARK    3  A    between atoms: C_7  and  C_8 
REMARK    4  A    between atoms: C_8  and  C_9 
REMARK    5  A    between atoms: C_11  and  N_12 
REMARK       I    between atoms: N_12  and  C_13 
REMARK    6  A    between atoms: C_13  and  C_14 
REMARK    7  A    between atoms: C_18  and  C_19 
REMARK    8  A    between atoms: C_22  and  O_23 
ROOT
HETATM    1  N   UNL     1      22.319  44.583  50.039  1.00  0.00    -0.149 N 
HETATM    2  C   UNL     1      21.974  44.510  48.713  1.00  0.00     0.290 C 
HETATM    3  O   UNL     1      22.570  43.915  47.820  1.00  0.00    -0.265 OA
HETATM    4  H   UNL     1      21.733  45.129  50.654  1.00  0.00     0.188 HD
ENDROOT
BRANCH   1   5
HETATM    5  C   UNL     1      23.418  44.001  50.592  1.00  0.00     0.747 A 
HETATM    6  N   UNL     1      24.454  44.800  51.009  1.00  0.00    -0.046 NA
HETATM    7  C   UNL     1      25.337  43.944  51.482  1.00  0.00     0.140 A 
HETATM    8  N   UNL     1      24.829  42.683  51.357  1.00  0.00    -0.248 N 
HETATM    9  N   UNL     1      23.626  42.699  50.784  1.00  0.00     0.020 NA
HETATM   10  H   UNL     1      25.239  41.795  51.623  1.00  0.00     0.191 HD
BRANCH   7  11
HETATM   11  C   UNL     1      26.669  44.210  52.088  1.00  0.00     0.085 C 
BRANCH  11  12
HETATM   12  C   UNL     1      26.548  44.615  53.561  1.00  0.00     0.046 C 
BRANCH  12  13
HETATM   13  C   UNL     1      27.870  44.533  54.285  1.00  0.00    -0.058 A 
HETATM   14  C   UNL     1      28.272  45.569  55.138  1.00  0.00     0.010 A 
HETATM   15  C   UNL     1      29.492  45.504  55.820  1.00  0.00     0.037 A 
HETATM   16  C   UNL     1      30.325  44.399  55.658  1.00  0.00     0.068 A 
HETATM   17  C   UNL     1      29.935  43.372  54.794  1.00  0.00     0.037 A 
HETATM   18  C   UNL     1      28.717  43.435  54.111  1.00  0.00     0.010 A 
BRANCH  16  19
HETATM   19  O   UNL     1      31.532  44.207  56.272  1.00  0.00    -0.356 OA
HETATM   20  C   UNL     1      31.597  43.176  57.249  1.00  0.00     0.210 C 
ENDBRANCH  16  19
ENDBRANCH  12  13
ENDBRANCH  11  12
ENDBRANCH   7  11
ENDBRANCH   1   5
BRANCH   2  21
HETATM   21  C   UNL     1      20.753  45.278  48.411  1.00  0.00     0.147 A 
HETATM   22  N   UNL     1      19.536  44.711  48.287  1.00  0.00    -0.169 NA
HETATM   23  N   UNL     1      18.719  45.754  48.036  1.00  0.00    -0.277 N 
HETATM   24  H   UNL     1      17.728  45.570  47.923  1.00  0.00     0.189 HD
HETATM   25  C   UNL     1      19.346  46.973  48.008  1.00  0.00     0.063 A 
HETATM   26  C   UNL     1      20.675  46.683  48.235  1.00  0.00     0.071 A 
BRANCH  25  27
HETATM   27  C   UNL     1      18.666  48.253  47.824  1.00  0.00    -0.008 A 
HETATM   28  C   UNL     1      17.327  48.389  48.210  1.00  0.00     0.016 A 
HETATM   29  C   UNL     1      16.656  49.603  48.045  1.00  0.00     0.037 A 
HETATM   30  C   UNL     1      17.309  50.707  47.497  1.00  0.00     0.068 A 
HETATM   31  C   UNL     1      18.644  50.584  47.113  1.00  0.00     0.037 A 
HETATM   32  C   UNL     1      19.318  49.364  47.275  1.00  0.00     0.016 A 
BRANCH  30  33
HETATM   33  O   UNL     1      16.537  51.830  47.394  1.00  0.00    -0.356 OA
HETATM   34  C   UNL     1      15.828  52.236  48.558  1.00  0.00     0.210 C 
ENDBRANCH  30  33
ENDBRANCH  25  27
ENDBRANCH   2  21
TORSDOF 8
ENDMDL
MODEL 8
REMARK VINA RESULT:      -8.2      2.578     11.401
REMARK  8 active torsions:
REMARK  status: ('A' for Active; 'I' for Inactive)
REMARK    1  A    between atoms: O_2  and  C_3 
REMARK    2  A    between atoms: C_6  and  C_7 
REMARK    3  A    between atoms: C_7  and  C_8 
REMARK    4  A    between atoms: C_8  and  C_9 
REMARK    5  A    between atoms: C_11  and  N_12 
REMARK       I    between atoms: N_12  and  C_13 
REMARK    6  A    between atoms: C_13  and  C_14 
REMARK    7  A    between atoms: C_18  and  C_19 
REMARK    8  A    between atoms: C_22  and  O_23 
ROOT
HETATM    1  N   UNL     1      24.440  45.574  49.839  1.00  0.00    -0.149 N 
HETATM    2  C   UNL     1      24.348  44.923  51.042  1.00  0.00     0.290 C 
HETATM    3  O   UNL     1      23.536  44.061  51.362  1.00  0.00    -0.265 OA
HETATM    4  H   UNL     1      25.157  46.277  49.731  1.00  0.00     0.188 HD
ENDROOT
BRANCH   1   5
HETATM    5  C   UNL     1      23.614  45.370  48.776  1.00  0.00     0.747 A 
HETATM    6  N   UNL     1      22.602  46.267  48.541  1.00  0.00    -0.046 NA
HETATM    7  C   UNL     1      22.005  45.789  47.469  1.00  0.00     0.140 A 
HETATM    8  N   UNL     1      22.654  44.653  47.080  1.00  0.00    -0.248 N 
HETATM    9  N   UNL     1      23.664  44.367  47.902  1.00  0.00     0.020 NA
HETATM   10  H   UNL     1      22.464  44.039  46.296  1.00  0.00     0.191 HD
BRANCH   7  11
HETATM   11  C   UNL     1      20.837  46.333  46.725  1.00  0.00     0.085 C 
BRANCH  11  12
HETATM   12  C   UNL     1      19.620  46.515  47.639  1.00  0.00     0.046 C 
BRANCH  12  13
HETATM   13  C   UNL     1      19.339  47.969  47.930  1.00  0.00    -0.058 A 
HETATM   14  C   UNL     1      18.808  48.351  49.169  1.00  0.00     0.010 A 
HETATM   15  C   UNL     1      18.547  49.695  49.454  1.00  0.00     0.037 A 
HETATM   16  C   UNL     1      18.817  50.677  48.504  1.00  0.00     0.068 A 
HETATM   17  C   UNL     1      19.331  50.298  47.261  1.00  0.00     0.037 A 
HETATM   18  C   UNL     1      19.591  48.955  46.972  1.00  0.00     0.010 A 
BRANCH  16  19
HETATM   19  O   UNL     1      18.620  52.021  48.660  1.00  0.00    -0.356 OA
HETATM   20  C   UNL     1      17.888  52.433  49.807  1.00  0.00     0.210 C 
ENDBRANCH  16  19
ENDBRANCH  12  13
ENDBRANCH  11  12
ENDBRANCH   7  11
ENDBRANCH   1   5
BRANCH   2  21
HETATM   21  C   UNL     1      25.359  45.390  52.009  1.00  0.00     0.147 A 
HETATM   22  N   UNL     1      25.397  46.649  52.487  1.00  0.00    -0.169 NA
HETATM   23  N   UNL     1      26.442  46.639  53.339  1.00  0.00    -0.277 N 
HETATM   24  H   UNL     1      26.657  47.492  53.845  1.00  0.00     0.189 HD
HETATM   25  C   UNL     1      27.074  45.427  53.448  1.00  0.00     0.063 A 
HETATM   26  C   UNL     1      26.393  44.602  52.577  1.00  0.00     0.071 A 
BRANCH  25  27
HETATM   27  C   UNL     1      28.186  45.147  54.354  1.00  0.00    -0.008 A 
HETATM   28  C   UNL     1      28.497  46.058  55.371  1.00  0.00     0.016 A 
HETATM   29  C   UNL     1      29.554  45.813  56.251  1.00  0.00     0.037 A 
HETATM   30  C   UNL     1      30.318  44.652  56.137  1.00  0.00     0.068 A 
HETATM   31  C   UNL     1      30.014  43.736  55.131  1.00  0.00     0.037 A 
HETATM   32  C   UNL     1      28.955  43.982  54.244  1.00  0.00     0.016 A 
BRANCH  30  33
HETATM   33  O   UNL     1      31.318  44.537  57.062  1.00  0.00    -0.356 OA
HETATM   34  C   UNL     1      31.901  43.251  57.227  1.00  0.00     0.210 C 
ENDBRANCH  30  33
ENDBRANCH  25  27
ENDBRANCH   2  21
TORSDOF 8
ENDMDL
MODEL 9
REMARK VINA RESULT:      -8.1     18.960     20.462
REMARK  8 active torsions:
REMARK  status: ('A' for Active; 'I' for Inactive)
REMARK    1  A    between atoms: O_2  and  C_3 
REMARK    2  A    between atoms: C_6  and  C_7 
REMARK    3  A    between atoms: C_7  and  C_8 
REMARK    4  A    between atoms: C_8  and  C_9 
REMARK    5  A    between atoms: C_11  and  N_12 
REMARK       I    between atoms: N_12  and  C_13 
REMARK    6  A    between atoms: C_13  and  C_14 
REMARK    7  A    between atoms: C_18  and  C_19 
REMARK    8  A    between atoms: C_22  and  O_23 
ROOT
HETATM    1  N   UNL     1      37.339  47.357  65.023  1.00  0.00    -0.149 N 
HETATM    2  C   UNL     1      38.372  47.682  65.864  1.00  0.00     0.290 C 
HETATM    3  O   UNL     1      39.114  46.912  66.465  1.00  0.00    -0.265 OA
HETATM    4  H   UNL     1      36.804  48.108  64.612  1.00  0.00     0.188 HD
ENDROOT
BRANCH   1   5
HETATM    5  C   UNL     1      36.951  46.088  64.718  1.00  0.00     0.747 A 
HETATM    6  N   UNL     1      37.767  45.316  63.929  1.00  0.00    -0.046 NA
HETATM    7  C   UNL     1      37.114  44.176  63.827  1.00  0.00     0.140 A 
HETATM    8  N   UNL     1      35.957  44.273  64.543  1.00  0.00    -0.248 N 
HETATM    9  N   UNL     1      35.830  45.477  65.101  1.00  0.00     0.020 NA
HETATM   10  H   UNL     1      35.226  43.584  64.684  1.00  0.00     0.191 HD
BRANCH   7  11
HETATM   11  C   UNL     1      37.500  42.937  63.102  1.00  0.00     0.085 C 
BRANCH  11  12
HETATM   12  C   UNL     1      39.018  42.843  62.913  1.00  0.00     0.046 C 
BRANCH  12  13
HETATM   13  C   UNL     1      39.557  41.485  63.294  1.00  0.00    -0.058 A 
HETATM   14  C   UNL     1      40.360  41.340  64.433  1.00  0.00     0.010 A 
HETATM   15  C   UNL     1      40.862  40.087  64.802  1.00  0.00     0.037 A 
HETATM   16  C   UNL     1      40.565  38.962  64.036  1.00  0.00     0.068 A 
HETATM   17  C   UNL     1      39.779  39.106  62.890  1.00  0.00     0.037 A 
HETATM   18  C   UNL     1      39.277  40.357  62.518  1.00  0.00     0.010 A 
BRANCH  16  19
HETATM   19  O   UNL     1      40.981  37.684  64.291  1.00  0.00    -0.356 OA
HETATM   20  C   UNL     1      42.375  37.493  64.494  1.00  0.00     0.210 C 
ENDBRANCH  16  19
ENDBRANCH  12  13
ENDBRANCH  11  12
ENDBRANCH   7  11
ENDBRANCH   1   5
BRANCH   2  21
HETATM   21  C   UNL     1      38.522  49.139  66.027  1.00  0.00     0.147 A 
HETATM   22  N   UNL     1      39.506  49.850  65.441  1.00  0.00    -0.169 NA
HETATM   23  N   UNL     1      39.262  51.118  65.829  1.00  0.00    -0.277 N 
HETATM   24  H   UNL     1      39.876  51.850  65.487  1.00  0.00     0.189 HD
HETATM   25  C   UNL     1      38.156  51.266  66.625  1.00  0.00     0.063 A 
HETATM   26  C   UNL     1      37.667  49.985  66.779  1.00  0.00     0.071 A 
BRANCH  25  27
HETATM   27  C   UNL     1      37.649  52.546  67.114  1.00  0.00    -0.008 A 
HETATM   28  C   UNL     1      37.771  53.690  66.317  1.00  0.00     0.016 A 
HETATM   29  C   UNL     1      37.293  54.926  66.762  1.00  0.00     0.037 A 
HETATM   30  C   UNL     1      36.678  55.043  68.008  1.00  0.00     0.068 A 
HETATM   31  C   UNL     1      36.547  53.908  68.809  1.00  0.00     0.037 A 
HETATM   32  C   UNL     1      37.030  52.668  68.365  1.00  0.00     0.016 A 
BRANCH  30  33
HETATM   33  O   UNL     1      36.256  56.305  68.317  1.00  0.00    -0.356 OA
HETATM   34  C   UNL     1      35.472  56.982  67.343  1.00  0.00     0.210 C 
ENDBRANCH  30  33
ENDBRANCH  25  27
ENDBRANCH   2  21
TORSDOF 8
ENDMDL
MODEL 10
REMARK VINA RESULT:      -7.9     19.291     21.512
REMARK  8 active torsions:
REMARK  status: ('A' for Active; 'I' for Inactive)
REMARK    1  A    between atoms: O_2  and  C_3 
REMARK    2  A    between atoms: C_6  and  C_7 
REMARK    3  A    between atoms: C_7  and  C_8 
REMARK    4  A    between atoms: C_8  and  C_9 
REMARK    5  A    between atoms: C_11  and  N_12 
REMARK       I    between atoms: N_12  and  C_13 
REMARK    6  A    between atoms: C_13  and  C_14 
REMARK    7  A    between atoms: C_18  and  C_19 
REMARK    8  A    between atoms: C_22  and  O_23 
ROOT
HETATM    1  N   UNL     1      39.217  42.179  63.407  1.00  0.00    -0.149 N 
HETATM    2  C   UNL     1      38.289  42.636  64.306  1.00  0.00     0.290 C 
HETATM    3  O   UNL     1      37.647  41.974  65.115  1.00  0.00    -0.265 OA
HETATM    4  H   UNL     1      39.653  42.850  62.791  1.00  0.00     0.188 HD
ENDROOT
BRANCH   1   5
HETATM    5  C   UNL     1      39.579  40.876  63.253  1.00  0.00     0.747 A 
HETATM    6  N   UNL     1      40.263  40.253  64.266  1.00  0.00    -0.046 NA
HETATM    7  C   UNL     1      40.457  39.034  63.809  1.00  0.00     0.140 A 
HETATM    8  N   UNL     1      39.894  38.940  62.569  1.00  0.00    -0.248 N 
HETATM    9  N   UNL     1      39.348  40.098  62.197  1.00  0.00     0.020 NA
HETATM   10  H   UNL     1      39.854  38.148  61.937  1.00  0.00     0.191 HD
BRANCH   7  11
HETATM   11  C   UNL     1      41.137  37.884  64.463  1.00  0.00     0.085 C 
BRANCH  11  12
HETATM   12  C   UNL     1      40.556  37.600  65.852  1.00  0.00     0.046 C 
BRANCH  12  13
HETATM   13  C   UNL     1      40.361  36.123  66.097  1.00  0.00    -0.058 A 
HETATM   14  C   UNL     1      41.408  35.224  65.856  1.00  0.00     0.010 A 
HETATM   15  C   UNL     1      41.244  33.854  66.084  1.00  0.00     0.037 A 
HETATM   16  C   UNL     1      40.029  33.365  66.560  1.00  0.00     0.068 A 
HETATM   17  C   UNL     1      38.978  34.257  66.786  1.00  0.00     0.037 A 
HETATM   18  C   UNL     1      39.138  35.626  66.557  1.00  0.00     0.010 A 
BRANCH  16  19
HETATM   19  O   UNL     1      39.743  32.056  66.835  1.00  0.00    -0.356 OA
HETATM   20  C   UNL     1      40.554  31.414  67.811  1.00  0.00     0.210 C 
ENDBRANCH  16  19
ENDBRANCH  12  13
ENDBRANCH  11  12
ENDBRANCH   7  11
ENDBRANCH   1   5
BRANCH   2  21
HETATM   21  C   UNL     1      38.084  44.093  64.207  1.00  0.00     0.147 A 
HETATM   22  N   UNL     1      37.152  44.654  63.412  1.00  0.00    -0.169 NA
HETATM   23  N   UNL     1      37.290  45.976  63.638  1.00  0.00    -0.277 N 
HETATM   24  H   UNL     1      36.667  46.613  63.153  1.00  0.00     0.189 HD
HETATM   25  C   UNL     1      38.258  46.298  64.554  1.00  0.00     0.063 A 
HETATM   26  C   UNL     1      38.798  45.084  64.927  1.00  0.00     0.071 A 
BRANCH  25  27
HETATM   27  C   UNL     1      38.548  47.654  65.016  1.00  0.00    -0.008 A 
HETATM   28  C   UNL     1      37.528  48.612  65.036  1.00  0.00     0.016 A 
HETATM   29  C   UNL     1      37.780  49.915  65.474  1.00  0.00     0.037 A 
HETATM   30  C   UNL     1      39.053  50.285  65.906  1.00  0.00     0.068 A 
HETATM   31  C   UNL     1      40.076  49.337  65.894  1.00  0.00     0.037 A 
HETATM   32  C   UNL     1      39.825  48.029  65.451  1.00  0.00     0.016 A 
BRANCH  30  33
HETATM   33  O   UNL     1      39.160  51.586  66.309  1.00  0.00    -0.356 OA
HETATM   34  C   UNL     1      37.949  52.289  66.557  1.00  0.00     0.210 C 
ENDBRANCH  30  33
ENDBRANCH  25  27
ENDBRANCH   2  21
TORSDOF 8
ENDMDL
