MODEL 1
REMARK VINA RESULT:      -9.2      0.000      0.000
REMARK  3 active torsions:
REMARK  status: ('A' for Active; 'I' for Inactive)
REMARK    1  A    between atoms: C_2  and  C_3 
REMARK    2  A    between atoms: C_6  and  C_7 
REMARK       I    between atoms: C_7  and  N_8 
REMARK    3  A    between atoms: N_8  and  N_9 
ROOT
HETATM    1  C   UNL     1      26.359  44.824  52.897  1.00  0.00    -0.021 A 
HETATM    2  C   UNL     1      25.918  46.077  53.369  1.00  0.00     0.011 A 
HETATM    3  C   UNL     1      25.480  47.080  52.493  1.00  0.00     0.018 A 
HETATM    4  C   UNL     1      25.490  46.863  51.112  1.00  0.00     0.033 A 
HETATM    5  C   UNL     1      25.942  45.626  50.633  1.00  0.00     0.018 A 
HETATM    6  C   UNL     1      26.374  44.624  51.508  1.00  0.00     0.011 A 
ENDROOT
BRANCH   4   7
HETATM    7  C   UNL     1      25.002  47.857  50.109  1.00  0.00     0.266 C 
HETATM    8  N   UNL     1      23.629  47.907  49.878  1.00  0.00    -0.284 N 
HETATM    9  H   UNL     1      22.982  47.376  50.447  1.00  0.00     0.184 HD
HETATM   10  O   UNL     1      25.822  48.580  49.546  1.00  0.00    -0.266 OA
BRANCH   8  11
HETATM   11  N   UNL     1      23.047  48.788  48.934  1.00  0.00    -0.220 NA
HETATM   12  C   UNL     1      21.925  48.200  48.155  1.00  0.00     0.153 C 
HETATM   13  C   UNL     1      20.931  49.306  47.995  1.00  0.00    -0.036 A 
HETATM   14  C   UNL     1      21.306  50.394  48.781  1.00  0.00    -0.036 A 
HETATM   15  C   UNL     1      19.765  49.329  47.247  1.00  0.00     0.009 A 
HETATM   16  C   UNL     1      22.577  50.080  49.504  1.00  0.00     0.153 C 
HETATM   17  C   UNL     1      20.522  51.534  48.847  1.00  0.00     0.009 A 
HETATM   18  C   UNL     1      19.344  51.570  48.098  1.00  0.00     0.001 A 
HETATM   19  C   UNL     1      18.969  50.477  47.302  1.00  0.00     0.001 A 
ENDBRANCH   8  11
ENDBRANCH   4   7
BRANCH   1  20
HETATM   20  C   UNL     1      26.800  43.748  53.886  1.00  0.00     0.139 A 
HETATM   21  C   UNL     1      25.835  43.619  55.064  1.00  0.00     0.054 C 
HETATM   22  N   UNL     1      26.966  42.476  53.205  1.00  0.00    -0.321 N 
HETATM   23  C   UNL     1      28.254  42.010  53.247  1.00  0.00     0.324 A 
HETATM   24  H   UNL     1      26.270  42.005  52.644  1.00  0.00     0.165 HD
HETATM   25  O   UNL     1      28.643  40.989  52.710  1.00  0.00    -0.247 OA
HETATM   26  N   UNL     1      29.000  42.861  53.980  1.00  0.00    -0.277 N 
HETATM   27  C   UNL     1      28.243  43.897  54.434  1.00  0.00     0.258 A 
HETATM   28  H   UNL     1      29.975  42.728  54.183  1.00  0.00     0.173 HD
HETATM   29  O   UNL     1      28.661  44.782  55.167  1.00  0.00    -0.270 OA
ENDBRANCH   1  20
TORSDOF 3
ENDMDL
MODEL 2
REMARK VINA RESULT:      -8.8      1.716      2.102
REMARK  3 active torsions:
REMARK  status: ('A' for Active; 'I' for Inactive)
REMARK    1  A    between atoms: C_2  and  C_3 
REMARK    2  A    between atoms: C_6  and  C_7 
REMARK       I    between atoms: C_7  and  N_8 
REMARK    3  A    between atoms: N_8  and  N_9 
ROOT
HETATM    1  C   UNL     1      25.547  44.998  51.311  1.00  0.00    -0.021 A 
HETATM    2  C   UNL     1      26.200  46.223  51.554  1.00  0.00     0.011 A 
HETATM    3  C   UNL     1      25.789  47.411  50.933  1.00  0.00     0.018 A 
HETATM    4  C   UNL     1      24.721  47.401  50.031  1.00  0.00     0.033 A 
HETATM    5  C   UNL     1      24.077  46.184  49.770  1.00  0.00     0.018 A 
HETATM    6  C   UNL     1      24.484  45.001  50.395  1.00  0.00     0.011 A 
ENDROOT
BRANCH   4   7
HETATM    7  C   UNL     1      24.190  48.623  49.355  1.00  0.00     0.266 C 
HETATM    8  N   UNL     1      22.855  48.950  49.587  1.00  0.00    -0.284 N 
HETATM    9  H   UNL     1      22.305  48.448  50.273  1.00  0.00     0.184 HD
HETATM   10  O   UNL     1      24.945  49.279  48.640  1.00  0.00    -0.266 OA
BRANCH   8  11
HETATM   11  N   UNL     1      22.230  50.068  48.985  1.00  0.00    -0.220 NA
HETATM   12  C   UNL     1      21.427  49.746  47.776  1.00  0.00     0.153 C 
HETATM   13  C   UNL     1      20.227  50.636  47.847  1.00  0.00    -0.036 A 
HETATM   14  C   UNL     1      20.191  51.279  49.082  1.00  0.00    -0.036 A 
HETATM   15  C   UNL     1      19.225  50.826  46.909  1.00  0.00     0.009 A 
HETATM   16  C   UNL     1      21.369  50.862  49.904  1.00  0.00     0.153 C 
HETATM   17  C   UNL     1      19.147  52.125  49.419  1.00  0.00     0.009 A 
HETATM   18  C   UNL     1      18.130  52.326  48.482  1.00  0.00     0.001 A 
HETATM   19  C   UNL     1      18.171  51.683  47.235  1.00  0.00     0.001 A 
ENDBRANCH   8  11
ENDBRANCH   4   7
BRANCH   1  20
HETATM   20  C   UNL     1      26.006  43.732  52.031  1.00  0.00     0.139 A 
HETATM   21  C   UNL     1      25.851  43.844  53.548  1.00  0.00     0.054 C 
HETATM   22  N   UNL     1      25.294  42.575  51.518  1.00  0.00    -0.321 N 
HETATM   23  C   UNL     1      26.121  41.658  50.924  1.00  0.00     0.324 A 
HETATM   24  H   UNL     1      24.291  42.464  51.472  1.00  0.00     0.165 HD
HETATM   25  O   UNL     1      25.749  40.632  50.384  1.00  0.00    -0.247 OA
HETATM   26  N   UNL     1      27.396  42.081  51.044  1.00  0.00    -0.277 N 
HETATM   27  C   UNL     1      27.449  43.267  51.708  1.00  0.00     0.258 A 
HETATM   28  H   UNL     1      28.195  41.570  50.712  1.00  0.00     0.173 HD
HETATM   29  O   UNL     1      28.488  43.844  51.999  1.00  0.00    -0.270 OA
ENDBRANCH   1  20
TORSDOF 3
ENDMDL
MODEL 3
REMARK VINA RESULT:      -8.8      1.898      3.053
REMARK  3 active torsions:
REMARK  status: ('A' for Active; 'I' for Inactive)
REMARK    1  A    between atoms: C_2  and  C_3 
REMARK    2  A    between atoms: C_6  and  C_7 
REMARK       I    between atoms: C_7  and  N_8 
REMARK    3  A    between atoms: N_8  and  N_9 
ROOT
HETATM    1  C   UNL     1      25.575  45.500  50.125  1.00  0.00    -0.021 A 
HETATM    2  C   UNL     1      26.340  46.683  50.186  1.00  0.00     0.011 A 
HETATM    3  C   UNL     1      25.797  47.928  49.840  1.00  0.00     0.018 A 
HETATM    4  C   UNL     1      24.472  48.021  49.402  1.00  0.00     0.033 A 
HETATM    5  C   UNL     1      23.710  46.848  49.323  1.00  0.00     0.018 A 
HETATM    6  C   UNL     1      24.252  45.607  49.674  1.00  0.00     0.011 A 
ENDROOT
BRANCH   4   7
HETATM    7  C   UNL     1      23.799  49.309  49.054  1.00  0.00     0.266 C 
HETATM    8  N   UNL     1      22.466  49.454  49.436  1.00  0.00    -0.284 N 
HETATM    9  H   UNL     1      22.012  48.766  50.024  1.00  0.00     0.184 HD
HETATM   10  O   UNL     1      24.443  50.170  48.459  1.00  0.00    -0.266 OA
BRANCH   8  11
HETATM   11  N   UNL     1      21.712  50.616  49.141  1.00  0.00    -0.220 NA
HETATM   12  C   UNL     1      20.966  50.555  47.856  1.00  0.00     0.153 C 
HETATM   13  C   UNL     1      19.665  51.244  48.119  1.00  0.00    -0.036 A 
HETATM   14  C   UNL     1      19.539  51.505  49.482  1.00  0.00    -0.036 A 
HETATM   15  C   UNL     1      18.656  51.571  47.229  1.00  0.00     0.009 A 
HETATM   16  C   UNL     1      20.752  51.014  50.206  1.00  0.00     0.153 C 
HETATM   17  C   UNL     1      18.396  52.096  49.994  1.00  0.00     0.009 A 
HETATM   18  C   UNL     1      17.370  52.432  49.107  1.00  0.00     0.001 A 
HETATM   19  C   UNL     1      17.501  52.173  47.733  1.00  0.00     0.001 A 
ENDBRANCH   8  11
ENDBRANCH   4   7
BRANCH   1  20
HETATM   20  C   UNL     1      26.197  44.168  50.539  1.00  0.00     0.139 A 
HETATM   21  C   UNL     1      26.421  43.241  49.344  1.00  0.00     0.054 C 
HETATM   22  N   UNL     1      27.435  44.394  51.263  1.00  0.00    -0.321 N 
HETATM   23  C   UNL     1      27.391  43.939  52.555  1.00  0.00     0.324 A 
HETATM   24  H   UNL     1      28.227  44.929  50.937  1.00  0.00     0.165 HD
HETATM   25  O   UNL     1      28.291  44.057  53.366  1.00  0.00    -0.247 OA
HETATM   26  N   UNL     1      26.198  43.345  52.765  1.00  0.00    -0.277 N 
HETATM   27  C   UNL     1      25.434  43.389  51.641  1.00  0.00     0.258 A 
HETATM   28  H   UNL     1      25.930  42.906  53.628  1.00  0.00     0.173 HD
HETATM   29  O   UNL     1      24.328  42.875  51.543  1.00  0.00    -0.270 OA
ENDBRANCH   1  20
TORSDOF 3
ENDMDL
MODEL 4
REMARK VINA RESULT:      -8.8      3.120      9.948
REMARK  3 active torsions:
REMARK  status: ('A' for Active; 'I' for Inactive)
REMARK    1  A    between atoms: C_2  and  C_3 
REMARK    2  A    between atoms: C_6  and  C_7 
REMARK       I    between atoms: C_7  and  N_8 
REMARK    3  A    between atoms: N_8  and  N_9 
ROOT
HETATM    1  C   UNL     1      20.481  50.254  48.625  1.00  0.00    -0.021 A 
HETATM    2  C   UNL     1      20.570  48.849  48.683  1.00  0.00     0.011 A 
HETATM    3  C   UNL     1      21.775  48.200  48.990  1.00  0.00     0.018 A 
HETATM    4  C   UNL     1      22.933  48.945  49.229  1.00  0.00     0.033 A 
HETATM    5  C   UNL     1      22.858  50.342  49.157  1.00  0.00     0.018 A 
HETATM    6  C   UNL     1      21.654  50.987  48.856  1.00  0.00     0.011 A 
ENDROOT
BRANCH   4   7
HETATM    7  C   UNL     1      24.248  48.341  49.604  1.00  0.00     0.266 C 
HETATM    8  N   UNL     1      24.245  47.390  50.622  1.00  0.00    -0.284 N 
HETATM    9  H   UNL     1      23.377  47.040  51.009  1.00  0.00     0.184 HD
HETATM   10  O   UNL     1      25.257  48.702  49.002  1.00  0.00    -0.266 OA
BRANCH   8  11
HETATM   11  N   UNL     1      25.429  46.765  51.084  1.00  0.00    -0.220 NA
HETATM   12  C   UNL     1      25.864  47.198  52.438  1.00  0.00     0.153 C 
HETATM   13  C   UNL     1      26.395  45.966  53.098  1.00  0.00    -0.036 A 
HETATM   14  C   UNL     1      26.112  44.852  52.311  1.00  0.00    -0.036 A 
HETATM   15  C   UNL     1      27.037  45.838  54.319  1.00  0.00     0.009 A 
HETATM   16  C   UNL     1      25.385  45.277  51.075  1.00  0.00     0.153 C 
HETATM   17  C   UNL     1      26.458  43.576  52.725  1.00  0.00     0.009 A 
HETATM   18  C   UNL     1      27.106  43.433  53.954  1.00  0.00     0.001 A 
HETATM   19  C   UNL     1      27.396  44.556  54.744  1.00  0.00     0.001 A 
ENDBRANCH   8  11
ENDBRANCH   4   7
BRANCH   1  20
HETATM   20  C   UNL     1      19.143  50.922  48.316  1.00  0.00     0.139 A 
HETATM   21  C   UNL     1      19.236  52.447  48.362  1.00  0.00     0.054 C 
HETATM   22  N   UNL     1      18.640  50.469  47.031  1.00  0.00    -0.321 N 
HETATM   23  C   UNL     1      17.450  49.796  47.129  1.00  0.00     0.324 A 
HETATM   24  H   UNL     1      19.131  50.513  46.150  1.00  0.00     0.165 HD
HETATM   25  O   UNL     1      16.860  49.285  46.195  1.00  0.00    -0.247 OA
HETATM   26  N   UNL     1      17.053  49.802  48.418  1.00  0.00    -0.277 N 
HETATM   27  C   UNL     1      17.951  50.466  49.195  1.00  0.00     0.258 A 
HETATM   28  H   UNL     1      16.195  49.396  48.747  1.00  0.00     0.173 HD
HETATM   29  O   UNL     1      17.806  50.665  50.393  1.00  0.00    -0.270 OA
ENDBRANCH   1  20
TORSDOF 3
ENDMDL
MODEL 5
REMARK VINA RESULT:      -8.7      5.996     11.970
REMARK  3 active torsions:
REMARK  status: ('A' for Active; 'I' for Inactive)
REMARK    1  A    between atoms: C_2  and  C_3 
REMARK    2  A    between atoms: C_6  and  C_7 
REMARK       I    between atoms: C_7  and  N_8 
REMARK    3  A    between atoms: N_8  and  N_9 
ROOT
HETATM    1  C   UNL     1      16.241  52.701  49.481  1.00  0.00    -0.021 A 
HETATM    2  C   UNL     1      17.572  53.104  49.710  1.00  0.00     0.011 A 
HETATM    3  C   UNL     1      18.659  52.322  49.294  1.00  0.00     0.018 A 
HETATM    4  C   UNL     1      18.441  51.099  48.652  1.00  0.00     0.033 A 
HETATM    5  C   UNL     1      17.121  50.683  48.435  1.00  0.00     0.018 A 
HETATM    6  C   UNL     1      16.037  51.468  48.846  1.00  0.00     0.011 A 
ENDROOT
BRANCH   4   7
HETATM    7  C   UNL     1      19.536  50.222  48.138  1.00  0.00     0.266 C 
HETATM    8  N   UNL     1      20.810  50.418  48.668  1.00  0.00    -0.284 N 
HETATM    9  H   UNL     1      20.962  51.045  49.448  1.00  0.00     0.184 HD
HETATM   10  O   UNL     1      19.267  49.377  47.288  1.00  0.00    -0.266 OA
BRANCH   8  11
HETATM   11  N   UNL     1      21.934  49.668  48.245  1.00  0.00    -0.220 NA
HETATM   12  C   UNL     1      23.076  50.491  47.764  1.00  0.00     0.153 C 
HETATM   13  C   UNL     1      24.304  49.787  48.247  1.00  0.00    -0.036 A 
HETATM   14  C   UNL     1      23.946  48.761  49.119  1.00  0.00    -0.036 A 
HETATM   15  C   UNL     1      25.633  50.063  47.971  1.00  0.00     0.009 A 
HETATM   16  C   UNL     1      22.458  48.715  49.261  1.00  0.00     0.153 C 
HETATM   17  C   UNL     1      24.907  47.985  49.745  1.00  0.00     0.009 A 
HETATM   18  C   UNL     1      26.252  48.253  49.475  1.00  0.00     0.001 A 
HETATM   19  C   UNL     1      26.612  49.284  48.592  1.00  0.00     0.001 A 
ENDBRANCH   8  11
ENDBRANCH   4   7
BRANCH   1  20
HETATM   20  C   UNL     1      15.086  53.597  49.924  1.00  0.00     0.139 A 
HETATM   21  C   UNL     1      13.989  52.809  50.641  1.00  0.00     0.054 C 
HETATM   22  N   UNL     1      15.580  54.679  50.757  1.00  0.00    -0.321 N 
HETATM   23  C   UNL     1      15.366  55.917  50.209  1.00  0.00     0.324 A 
HETATM   24  H   UNL     1      16.133  54.581  51.596  1.00  0.00     0.165 HD
HETATM   25  O   UNL     1      15.731  56.969  50.701  1.00  0.00    -0.247 OA
HETATM   26  N   UNL     1      14.688  55.768  49.053  1.00  0.00    -0.277 N 
HETATM   27  C   UNL     1      14.438  54.453  48.806  1.00  0.00     0.258 A 
HETATM   28  H   UNL     1      14.385  56.531  48.472  1.00  0.00     0.173 HD
HETATM   29  O   UNL     1      13.793  54.045  47.851  1.00  0.00    -0.270 OA
ENDBRANCH   1  20
TORSDOF 3
ENDMDL
MODEL 6
REMARK VINA RESULT:      -8.7      3.549     10.363
REMARK  3 active torsions:
REMARK  status: ('A' for Active; 'I' for Inactive)
REMARK    1  A    between atoms: C_2  and  C_3 
REMARK    2  A    between atoms: C_6  and  C_7 
REMARK       I    between atoms: C_7  and  N_8 
REMARK    3  A    between atoms: N_8  and  N_9 
ROOT
HETATM    1  C   UNL     1      19.382  50.176  48.640  1.00  0.00    -0.021 A 
HETATM    2  C   UNL     1      19.749  48.822  48.776  1.00  0.00     0.011 A 
HETATM    3  C   UNL     1      21.073  48.441  49.034  1.00  0.00     0.018 A 
HETATM    4  C   UNL     1      22.075  49.409  49.145  1.00  0.00     0.033 A 
HETATM    5  C   UNL     1      21.723  50.757  48.994  1.00  0.00     0.018 A 
HETATM    6  C   UNL     1      20.400  51.136  48.742  1.00  0.00     0.011 A 
ENDROOT
BRANCH   4   7
HETATM    7  C   UNL     1      23.502  49.098  49.460  1.00  0.00     0.266 C 
HETATM    8  N   UNL     1      23.759  47.910  50.141  1.00  0.00    -0.284 N 
HETATM    9  H   UNL     1      23.025  47.234  50.312  1.00  0.00     0.184 HD
HETATM   10  O   UNL     1      24.372  49.890  49.104  1.00  0.00    -0.266 OA
BRANCH   8  11
HETATM   11  N   UNL     1      25.066  47.516  50.519  1.00  0.00    -0.220 NA
HETATM   12  C   UNL     1      25.202  47.130  51.948  1.00  0.00     0.153 C 
HETATM   13  C   UNL     1      26.156  45.978  51.959  1.00  0.00    -0.036 A 
HETATM   14  C   UNL     1      26.406  45.562  50.653  1.00  0.00    -0.036 A 
HETATM   15  C   UNL     1      26.720  45.323  53.042  1.00  0.00     0.009 A 
HETATM   16  C   UNL     1      25.642  46.419  49.695  1.00  0.00     0.153 C 
HETATM   17  C   UNL     1      27.224  44.475  50.392  1.00  0.00     0.009 A 
HETATM   18  C   UNL     1      27.800  43.806  51.475  1.00  0.00     0.001 A 
HETATM   19  C   UNL     1      27.551  44.228  52.790  1.00  0.00     0.001 A 
ENDBRANCH   8  11
ENDBRANCH   4   7
BRANCH   1  20
HETATM   20  C   UNL     1      17.923  50.550  48.388  1.00  0.00     0.139 A 
HETATM   21  C   UNL     1      17.098  49.356  47.908  1.00  0.00     0.054 C 
HETATM   22  N   UNL     1      17.342  51.140  49.581  1.00  0.00    -0.321 N 
HETATM   23  C   UNL     1      16.944  52.438  49.397  1.00  0.00     0.324 A 
HETATM   24  H   UNL     1      17.320  50.724  50.501  1.00  0.00     0.165 HD
HETATM   25  O   UNL     1      16.471  53.151  50.263  1.00  0.00    -0.247 OA
HETATM   26  N   UNL     1      17.159  52.780  48.110  1.00  0.00    -0.277 N 
HETATM   27  C   UNL     1      17.696  51.738  47.419  1.00  0.00     0.258 A 
HETATM   28  H   UNL     1      16.925  53.673  47.716  1.00  0.00     0.173 HD
HETATM   29  O   UNL     1      17.940  51.763  46.221  1.00  0.00    -0.270 OA
ENDBRANCH   1  20
TORSDOF 3
ENDMDL
MODEL 7
REMARK VINA RESULT:      -8.6      3.903      5.959
REMARK  3 active torsions:
REMARK  status: ('A' for Active; 'I' for Inactive)
REMARK    1  A    between atoms: C_2  and  C_3 
REMARK    2  A    between atoms: C_6  and  C_7 
REMARK       I    between atoms: C_7  and  N_8 
REMARK    3  A    between atoms: N_8  and  N_9 
ROOT
HETATM    1  C   UNL     1      28.157  39.879  49.851  1.00  0.00    -0.021 A 
HETATM    2  C   UNL     1      27.484  40.715  48.936  1.00  0.00     0.011 A 
HETATM    3  C   UNL     1      27.060  42.003  49.291  1.00  0.00     0.018 A 
HETATM    4  C   UNL     1      27.281  42.485  50.585  1.00  0.00     0.033 A 
HETATM    5  C   UNL     1      27.934  41.655  51.506  1.00  0.00     0.018 A 
HETATM    6  C   UNL     1      28.362  40.372  51.148  1.00  0.00     0.011 A 
ENDROOT
BRANCH   4   7
HETATM    7  C   UNL     1      26.901  43.857  51.039  1.00  0.00     0.266 C 
HETATM    8  N   UNL     1      26.319  44.701  50.094  1.00  0.00    -0.284 N 
HETATM    9  H   UNL     1      26.060  44.361  49.177  1.00  0.00     0.184 HD
HETATM   10  O   UNL     1      27.111  44.172  52.208  1.00  0.00    -0.266 OA
BRANCH   8  11
HETATM   11  N   UNL     1      25.939  46.031  50.394  1.00  0.00    -0.220 NA
HETATM   12  C   UNL     1      26.682  47.070  49.632  1.00  0.00     0.153 C 
HETATM   13  C   UNL     1      25.676  48.132  49.323  1.00  0.00    -0.036 A 
HETATM   14  C   UNL     1      24.401  47.688  49.670  1.00  0.00    -0.036 A 
HETATM   15  C   UNL     1      25.869  49.374  48.740  1.00  0.00     0.009 A 
HETATM   16  C   UNL     1      24.484  46.308  50.239  1.00  0.00     0.153 C 
HETATM   17  C   UNL     1      23.283  48.471  49.438  1.00  0.00     0.009 A 
HETATM   18  C   UNL     1      23.464  49.726  48.852  1.00  0.00     0.001 A 
HETATM   19  C   UNL     1      24.749  50.175  48.507  1.00  0.00     0.001 A 
ENDBRANCH   8  11
ENDBRANCH   4   7
BRANCH   1  20
HETATM   20  C   UNL     1      28.629  38.495  49.414  1.00  0.00     0.139 A 
HETATM   21  C   UNL     1      28.981  38.448  47.927  1.00  0.00     0.054 C 
HETATM   22  N   UNL     1      29.752  38.066  50.229  1.00  0.00    -0.321 N 
HETATM   23  C   UNL     1      29.482  36.939  50.962  1.00  0.00     0.324 A 
HETATM   24  H   UNL     1      30.614  38.571  50.369  1.00  0.00     0.165 HD
HETATM   25  O   UNL     1      30.251  36.420  51.750  1.00  0.00    -0.247 OA
HETATM   26  N   UNL     1      28.239  36.512  50.659  1.00  0.00    -0.277 N 
HETATM   27  C   UNL     1      27.661  37.327  49.736  1.00  0.00     0.258 A 
HETATM   28  H   UNL     1      27.815  35.687  51.045  1.00  0.00     0.173 HD
HETATM   29  O   UNL     1      26.556  37.136  49.249  1.00  0.00    -0.270 OA
ENDBRANCH   1  20
TORSDOF 3
ENDMDL
MODEL 8
REMARK VINA RESULT:      -8.3      2.715      9.699
REMARK  3 active torsions:
REMARK  status: ('A' for Active; 'I' for Inactive)
REMARK    1  A    between atoms: C_2  and  C_3 
REMARK    2  A    between atoms: C_6  and  C_7 
REMARK       I    between atoms: C_7  and  N_8 
REMARK    3  A    between atoms: N_8  and  N_9 
ROOT
HETATM    1  C   UNL     1      22.620  48.282  48.805  1.00  0.00    -0.021 A 
HETATM    2  C   UNL     1      22.177  46.989  48.460  1.00  0.00     0.011 A 
HETATM    3  C   UNL     1      22.831  45.839  48.925  1.00  0.00     0.018 A 
HETATM    4  C   UNL     1      23.964  45.953  49.735  1.00  0.00     0.033 A 
HETATM    5  C   UNL     1      24.422  47.235  50.070  1.00  0.00     0.018 A 
HETATM    6  C   UNL     1      23.764  48.381  49.610  1.00  0.00     0.011 A 
ENDROOT
BRANCH   4   7
HETATM    7  C   UNL     1      24.698  44.785  50.309  1.00  0.00     0.266 C 
HETATM    8  N   UNL     1      25.506  45.024  51.420  1.00  0.00    -0.284 N 
HETATM    9  H   UNL     1      25.504  45.923  51.886  1.00  0.00     0.184 HD
HETATM   10  O   UNL     1      24.555  43.682  49.787  1.00  0.00    -0.266 OA
BRANCH   8  11
HETATM   11  N   UNL     1      26.271  44.005  52.038  1.00  0.00    -0.220 NA
HETATM   12  C   UNL     1      27.603  43.775  51.417  1.00  0.00     0.153 C 
HETATM   13  C   UNL     1      28.528  43.488  52.557  1.00  0.00    -0.036 A 
HETATM   14  C   UNL     1      27.877  43.735  53.764  1.00  0.00    -0.036 A 
HETATM   15  C   UNL     1      29.853  43.086  52.525  1.00  0.00     0.009 A 
HETATM   16  C   UNL     1      26.477  44.190  53.500  1.00  0.00     0.153 C 
HETATM   17  C   UNL     1      28.535  43.591  54.974  1.00  0.00     0.009 A 
HETATM   18  C   UNL     1      29.872  43.185  54.956  1.00  0.00     0.001 A 
HETATM   19  C   UNL     1      30.525  42.932  53.740  1.00  0.00     0.001 A 
ENDBRANCH   8  11
ENDBRANCH   4   7
BRANCH   1  20
HETATM   20  C   UNL     1      21.861  49.507  48.302  1.00  0.00     0.139 A 
HETATM   21  C   UNL     1      22.782  50.508  47.603  1.00  0.00     0.054 C 
HETATM   22  N   UNL     1      20.773  49.102  47.430  1.00  0.00    -0.321 N 
HETATM   23  C   UNL     1      19.540  49.447  47.917  1.00  0.00     0.324 A 
HETATM   24  H   UNL     1      20.854  48.524  46.605  1.00  0.00     0.165 HD
HETATM   25  O   UNL     1      18.479  49.174  47.384  1.00  0.00    -0.247 OA
HETATM   26  N   UNL     1      19.703  50.132  49.067  1.00  0.00    -0.277 N 
HETATM   27  C   UNL     1      21.024  50.259  49.369  1.00  0.00     0.258 A 
HETATM   28  H   UNL     1      18.949  50.519  49.606  1.00  0.00     0.173 HD
HETATM   29  O   UNL     1      21.451  50.882  50.330  1.00  0.00    -0.270 OA
ENDBRANCH   1  20
TORSDOF 3
ENDMDL
MODEL 9
REMARK VINA RESULT:      -8.0      6.937     10.337
REMARK  3 active torsions:
REMARK  status: ('A' for Active; 'I' for Inactive)
REMARK    1  A    between atoms: C_2  and  C_3 
REMARK    2  A    between atoms: C_6  and  C_7 
REMARK       I    between atoms: C_7  and  N_8 
REMARK    3  A    between atoms: N_8  and  N_9 
ROOT
HETATM    1  C   UNL     1      27.106  40.367  46.264  1.00  0.00    -0.021 A 
HETATM    2  C   UNL     1      28.287  40.218  47.020  1.00  0.00     0.011 A 
HETATM    3  C   UNL     1      28.309  40.453  48.402  1.00  0.00     0.018 A 
HETATM    4  C   UNL     1      27.150  40.866  49.064  1.00  0.00     0.033 A 
HETATM    5  C   UNL     1      25.976  41.033  48.318  1.00  0.00     0.018 A 
HETATM    6  C   UNL     1      25.954  40.792  46.940  1.00  0.00     0.011 A 
ENDROOT
BRANCH   4   7
HETATM    7  C   UNL     1      27.071  41.099  50.539  1.00  0.00     0.266 C 
HETATM    8  N   UNL     1      28.082  41.866  51.116  1.00  0.00    -0.284 N 
HETATM    9  H   UNL     1      28.771  42.340  50.546  1.00  0.00     0.184 HD
HETATM   10  O   UNL     1      26.131  40.615  51.164  1.00  0.00    -0.266 OA
BRANCH   8  11
HETATM   11  N   UNL     1      28.133  42.137  52.505  1.00  0.00    -0.220 NA
HETATM   12  C   UNL     1      29.470  41.933  53.122  1.00  0.00     0.153 C 
HETATM   13  C   UNL     1      29.614  43.028  54.130  1.00  0.00    -0.036 A 
HETATM   14  C   UNL     1      28.566  43.936  53.991  1.00  0.00    -0.036 A 
HETATM   15  C   UNL     1      30.616  43.226  55.065  1.00  0.00     0.009 A 
HETATM   16  C   UNL     1      27.658  43.494  52.887  1.00  0.00     0.153 C 
HETATM   17  C   UNL     1      28.495  45.073  54.778  1.00  0.00     0.009 A 
HETATM   18  C   UNL     1      29.499  45.285  55.726  1.00  0.00     0.001 A 
HETATM   19  C   UNL     1      30.551  44.367  55.870  1.00  0.00     0.001 A 
ENDBRANCH   8  11
ENDBRANCH   4   7
BRANCH   1  20
HETATM   20  C   UNL     1      27.118  40.072  44.766  1.00  0.00     0.139 A 
HETATM   21  C   UNL     1      25.710  39.859  44.210  1.00  0.00     0.054 C 
HETATM   22  N   UNL     1      27.806  41.131  44.050  1.00  0.00    -0.321 N 
HETATM   23  C   UNL     1      28.932  40.696  43.402  1.00  0.00     0.324 A 
HETATM   24  H   UNL     1      27.590  42.117  44.091  1.00  0.00     0.165 HD
HETATM   25  O   UNL     1      29.694  41.408  42.774  1.00  0.00    -0.247 OA
HETATM   26  N   UNL     1      29.043  39.362  43.573  1.00  0.00    -0.277 N 
HETATM   27  C   UNL     1      28.014  38.886  44.326  1.00  0.00     0.258 A 
HETATM   28  H   UNL     1      29.772  38.800  43.172  1.00  0.00     0.173 HD
HETATM   29  O   UNL     1      27.845  37.703  44.586  1.00  0.00    -0.270 OA
ENDBRANCH   1  20
TORSDOF 3
ENDMDL
MODEL 10
REMARK VINA RESULT:      -7.9      3.453      9.321
REMARK  3 active torsions:
REMARK  status: ('A' for Active; 'I' for Inactive)
REMARK    1  A    between atoms: C_2  and  C_3 
REMARK    2  A    between atoms: C_6  and  C_7 
REMARK       I    between atoms: C_7  and  N_8 
REMARK    3  A    between atoms: N_8  and  N_9 
ROOT
HETATM    1  C   UNL     1      22.970  45.348  48.743  1.00  0.00    -0.021 A 
HETATM    2  C   UNL     1      23.656  46.436  49.322  1.00  0.00     0.011 A 
HETATM    3  C   UNL     1      24.606  46.251  50.335  1.00  0.00     0.018 A 
HETATM    4  C   UNL     1      24.883  44.967  50.814  1.00  0.00     0.033 A 
HETATM    5  C   UNL     1      24.194  43.881  50.256  1.00  0.00     0.018 A 
HETATM    6  C   UNL     1      23.250  44.068  49.241  1.00  0.00     0.011 A 
ENDROOT
BRANCH   4   7
HETATM    7  C   UNL     1      25.909  44.672  51.860  1.00  0.00     0.266 C 
HETATM    8  N   UNL     1      25.448  44.443  53.156  1.00  0.00    -0.284 N 
HETATM    9  H   UNL     1      24.458  44.366  53.354  1.00  0.00     0.184 HD
HETATM   10  O   UNL     1      27.093  44.639  51.535  1.00  0.00    -0.266 OA
BRANCH   8  11
HETATM   11  N   UNL     1      26.321  44.179  54.239  1.00  0.00    -0.220 NA
HETATM   12  C   UNL     1      27.339  43.129  53.965  1.00  0.00     0.153 C 
HETATM   13  C   UNL     1      28.585  43.597  54.648  1.00  0.00    -0.036 A 
HETATM   14  C   UNL     1      28.409  44.901  55.106  1.00  0.00    -0.036 A 
HETATM   15  C   UNL     1      29.791  42.935  54.809  1.00  0.00     0.009 A 
HETATM   16  C   UNL     1      27.033  45.376  54.764  1.00  0.00     0.153 C 
HETATM   17  C   UNL     1      29.438  45.583  55.734  1.00  0.00     0.009 A 
HETATM   18  C   UNL     1      30.660  44.928  55.904  1.00  0.00     0.001 A 
HETATM   19  C   UNL     1      30.834  43.612  55.447  1.00  0.00     0.001 A 
ENDBRANCH   8  11
ENDBRANCH   4   7
BRANCH   1  20
HETATM   20  C   UNL     1      21.964  45.591  47.621  1.00  0.00     0.139 A 
HETATM   21  C   UNL     1      21.598  47.069  47.485  1.00  0.00     0.054 C 
HETATM   22  N   UNL     1      22.472  45.063  46.367  1.00  0.00    -0.321 N 
HETATM   23  C   UNL     1      21.694  44.057  45.856  1.00  0.00     0.324 A 
HETATM   24  H   UNL     1      23.357  45.291  45.938  1.00  0.00     0.165 HD
HETATM   25  O   UNL     1      21.942  43.432  44.840  1.00  0.00    -0.247 OA
HETATM   26  N   UNL     1      20.623  43.887  46.657  1.00  0.00    -0.277 N 
HETATM   27  C   UNL     1      20.660  44.757  47.702  1.00  0.00     0.258 A 
HETATM   28  H   UNL     1      19.886  43.225  46.483  1.00  0.00     0.173 HD
HETATM   29  O   UNL     1      19.782  44.851  48.548  1.00  0.00    -0.270 OA
ENDBRANCH   1  20
TORSDOF 3
ENDMDL
