MODEL 1
REMARK VINA RESULT:     -10.2      0.000      0.000
REMARK  5 active torsions:
REMARK  status: ('A' for Active; 'I' for Inactive)
REMARK    1  A    between atoms: C_8  and  C_9 
REMARK    2  A    between atoms: C_9  and  C_10 
REMARK       I    between atoms: C_10  and  N_11 
REMARK    3  A    between atoms: N_11  and  N_12 
REMARK       I    between atoms: N_12  and  C_13 
REMARK    4  A    between atoms: C_13  and  C_14 
REMARK    5  A    between atoms: C_16  and  C_17 
ROOT
HETATM    1  C   UNL     1      25.978  46.761  52.780  1.00  0.00     0.240 C 
HETATM    2  N   UNL     1      26.113  46.692  51.404  1.00  0.00    -0.267 N 
HETATM    3  O   UNL     1      25.441  47.710  53.351  1.00  0.00    -0.272 OA
HETATM    4  H   UNL     1      26.815  46.090  50.975  1.00  0.00     0.190 HD
ENDROOT
BRANCH   2   5
HETATM    5  N   UNL     1      25.663  47.760  50.630  1.00  0.00    -0.263 N 
HETATM    6  C   UNL     1      24.468  47.630  49.955  1.00  0.00     0.270 C 
HETATM    7  O   UNL     1      23.813  46.594  49.919  1.00  0.00    -0.266 OA
HETATM    8  H   UNL     1      26.327  48.510  50.444  1.00  0.00     0.190 HD
BRANCH   6   9
HETATM    9  C   UNL     1      23.990  48.859  49.281  1.00  0.00     0.034 A 
HETATM   10  C   UNL     1      22.710  49.355  49.565  1.00  0.00     0.029 A 
HETATM   11  C   UNL     1      22.210  50.465  48.874  1.00  0.00    -0.023 A 
HETATM   12  C   UNL     1      23.026  51.086  47.916  1.00  0.00     0.012 A 
HETATM   13  C   UNL     1      24.303  50.587  47.632  1.00  0.00     0.002 A 
HETATM   14  C   UNL     1      24.781  49.463  48.302  1.00  0.00     0.017 A 
BRANCH  11  15
HETATM   15  C   UNL     1      20.858  50.931  49.141  1.00  0.00    -0.002 A 
HETATM   16  C   UNL     1      20.082  50.518  50.206  1.00  0.00     0.153 A 
HETATM   17  O   UNL     1      18.885  51.162  50.214  1.00  0.00    -0.334 OA
HETATM   18  C   UNL     1      18.886  52.006  49.152  1.00  0.00     0.142 A 
HETATM   19  C   UNL     1      20.072  51.908  48.462  1.00  0.00     0.038 A 
ENDBRANCH  11  15
ENDBRANCH   6   9
ENDBRANCH   2   5
BRANCH   1  20
HETATM   20  C   UNL     1      26.431  45.502  53.486  1.00  0.00     0.145 C 
BRANCH  20  21
HETATM   21  C   UNL     1      27.577  45.634  54.437  1.00  0.00    -0.021 A 
HETATM   22  C   UNL     1      28.710  44.773  54.652  1.00  0.00    -0.001 A 
HETATM   23  C   UNL     1      29.206  43.597  54.049  1.00  0.00     0.014 A 
HETATM   24  C   UNL     1      29.414  45.282  55.748  1.00  0.00     0.042 A 
HETATM   25  C   UNL     1      30.355  42.977  54.560  1.00  0.00     0.001 A 
HETATM   26  C   UNL     1      31.018  43.507  55.662  1.00  0.00     0.002 A 
HETATM   27  C   UNL     1      30.560  44.673  56.275  1.00  0.00     0.030 A 
HETATM   28  N   UNL     1      28.768  46.422  56.159  1.00  0.00    -0.365 N 
HETATM   29  H   UNL     1      29.061  46.998  56.936  1.00  0.00     0.165 HD
HETATM   30  C   UNL     1      27.663  46.640  55.386  1.00  0.00     0.097 A 
ENDBRANCH  20  21
ENDBRANCH   1  20
TORSDOF 5
ENDMDL
MODEL 2
REMARK VINA RESULT:     -10.1      2.477     10.535
REMARK  5 active torsions:
REMARK  status: ('A' for Active; 'I' for Inactive)
REMARK    1  A    between atoms: C_8  and  C_9 
REMARK    2  A    between atoms: C_9  and  C_10 
REMARK       I    between atoms: C_10  and  N_11 
REMARK    3  A    between atoms: N_11  and  N_12 
REMARK       I    between atoms: N_12  and  C_13 
REMARK    4  A    between atoms: C_13  and  C_14 
REMARK    5  A    between atoms: C_16  and  C_17 
ROOT
HETATM    1  C   UNL     1      25.264  45.814  49.984  1.00  0.00     0.240 C 
HETATM    2  N   UNL     1      25.553  45.801  51.338  1.00  0.00    -0.267 N 
HETATM    3  O   UNL     1      25.970  45.257  49.144  1.00  0.00    -0.272 OA
HETATM    4  H   UNL     1      25.164  46.504  51.965  1.00  0.00     0.190 HD
ENDROOT
BRANCH   2   5
HETATM    5  N   UNL     1      26.718  45.168  51.769  1.00  0.00    -0.263 N 
HETATM    6  C   UNL     1      27.041  45.220  53.109  1.00  0.00     0.270 C 
HETATM    7  O   UNL     1      26.412  45.867  53.939  1.00  0.00    -0.266 OA
HETATM    8  H   UNL     1      27.374  44.864  51.052  1.00  0.00     0.190 HD
BRANCH   6   9
HETATM    9  C   UNL     1      28.208  44.399  53.505  1.00  0.00     0.034 A 
HETATM   10  C   UNL     1      28.804  44.599  54.758  1.00  0.00     0.029 A 
HETATM   11  C   UNL     1      29.959  43.892  55.115  1.00  0.00    -0.023 A 
HETATM   12  C   UNL     1      30.487  42.962  54.207  1.00  0.00     0.012 A 
HETATM   13  C   UNL     1      29.890  42.766  52.955  1.00  0.00     0.002 A 
HETATM   14  C   UNL     1      28.759  43.496  52.596  1.00  0.00     0.017 A 
BRANCH  11  15
HETATM   15  C   UNL     1      30.599  44.154  56.395  1.00  0.00    -0.002 A 
HETATM   16  C   UNL     1      31.676  43.447  56.893  1.00  0.00     0.153 A 
HETATM   17  O   UNL     1      32.079  43.953  58.088  1.00  0.00    -0.334 OA
HETATM   18  C   UNL     1      31.264  45.001  58.365  1.00  0.00     0.142 A 
HETATM   19  C   UNL     1      30.342  45.171  57.360  1.00  0.00     0.038 A 
ENDBRANCH  11  15
ENDBRANCH   6   9
ENDBRANCH   2   5
BRANCH   1  20
HETATM   20  C   UNL     1      23.933  46.461  49.667  1.00  0.00     0.145 C 
BRANCH  20  21
HETATM   21  C   UNL     1      23.947  47.924  49.359  1.00  0.00    -0.021 A 
HETATM   22  C   UNL     1      22.859  48.834  49.119  1.00  0.00    -0.001 A 
HETATM   23  C   UNL     1      21.451  48.747  49.157  1.00  0.00     0.014 A 
HETATM   24  C   UNL     1      23.420  50.059  48.743  1.00  0.00     0.042 A 
HETATM   25  C   UNL     1      20.669  49.858  48.812  1.00  0.00     0.001 A 
HETATM   26  C   UNL     1      21.265  51.055  48.428  1.00  0.00     0.002 A 
HETATM   27  C   UNL     1      22.654  51.178  48.390  1.00  0.00     0.030 A 
HETATM   28  N   UNL     1      24.785  49.919  48.790  1.00  0.00    -0.365 N 
HETATM   29  H   UNL     1      25.443  50.651  48.566  1.00  0.00     0.165 HD
HETATM   30  C   UNL     1      25.113  48.643  49.151  1.00  0.00     0.097 A 
ENDBRANCH  20  21
ENDBRANCH   1  20
TORSDOF 5
ENDMDL
MODEL 3
REMARK VINA RESULT:      -9.8      1.798      2.393
REMARK  5 active torsions:
REMARK  status: ('A' for Active; 'I' for Inactive)
REMARK    1  A    between atoms: C_8  and  C_9 
REMARK    2  A    between atoms: C_9  and  C_10 
REMARK       I    between atoms: C_10  and  N_11 
REMARK    3  A    between atoms: N_11  and  N_12 
REMARK       I    between atoms: N_12  and  C_13 
REMARK    4  A    between atoms: C_13  and  C_14 
REMARK    5  A    between atoms: C_16  and  C_17 
ROOT
HETATM    1  C   UNL     1      25.490  45.372  51.731  1.00  0.00     0.240 C 
HETATM    2  N   UNL     1      24.331  45.679  51.038  1.00  0.00    -0.267 N 
HETATM    3  O   UNL     1      26.348  46.211  52.001  1.00  0.00    -0.272 OA
HETATM    4  H   UNL     1      23.801  44.955  50.553  1.00  0.00     0.190 HD
ENDROOT
BRANCH   2   5
HETATM    5  N   UNL     1      24.144  46.985  50.586  1.00  0.00    -0.263 N 
HETATM    6  C   UNL     1      23.491  47.183  49.389  1.00  0.00     0.270 C 
HETATM    7  O   UNL     1      23.138  46.274  48.644  1.00  0.00    -0.266 OA
HETATM    8  H   UNL     1      24.667  47.719  51.061  1.00  0.00     0.190 HD
BRANCH   6   9
HETATM    9  C   UNL     1      23.203  48.597  49.057  1.00  0.00     0.034 A 
HETATM   10  C   UNL     1      21.946  49.140  49.358  1.00  0.00     0.029 A 
HETATM   11  C   UNL     1      21.627  50.448  48.975  1.00  0.00    -0.023 A 
HETATM   12  C   UNL     1      22.600  51.211  48.311  1.00  0.00     0.012 A 
HETATM   13  C   UNL     1      23.854  50.666  48.009  1.00  0.00     0.002 A 
HETATM   14  C   UNL     1      24.152  49.352  48.367  1.00  0.00     0.017 A 
BRANCH  11  15
HETATM   15  C   UNL     1      20.298  50.975  49.244  1.00  0.00    -0.002 A 
HETATM   16  C   UNL     1      19.457  50.512  50.236  1.00  0.00     0.153 A 
HETATM   17  O   UNL     1      18.305  51.231  50.271  1.00  0.00    -0.334 OA
HETATM   18  C   UNL     1      18.401  52.174  49.301  1.00  0.00     0.142 A 
HETATM   19  C   UNL     1      19.603  52.065  48.643  1.00  0.00     0.038 A 
ENDBRANCH  11  15
ENDBRANCH   6   9
ENDBRANCH   2   5
BRANCH   1  20
HETATM   20  C   UNL     1      25.521  43.945  52.232  1.00  0.00     0.145 C 
BRANCH  20  21
HETATM   21  C   UNL     1      26.855  43.268  52.264  1.00  0.00    -0.021 A 
HETATM   22  C   UNL     1      27.955  43.425  53.177  1.00  0.00    -0.001 A 
HETATM   23  C   UNL     1      28.178  44.157  54.363  1.00  0.00     0.014 A 
HETATM   24  C   UNL     1      29.016  42.660  52.683  1.00  0.00     0.042 A 
HETATM   25  C   UNL     1      29.429  44.109  54.993  1.00  0.00     0.001 A 
HETATM   26  C   UNL     1      30.465  43.347  54.461  1.00  0.00     0.002 A 
HETATM   27  C   UNL     1      30.275  42.604  53.296  1.00  0.00     0.030 A 
HETATM   28  N   UNL     1      28.574  42.031  51.545  1.00  0.00    -0.365 N 
HETATM   29  H   UNL     1      29.136  41.411  50.979  1.00  0.00     0.165 HD
HETATM   30  C   UNL     1      27.284  42.392  51.280  1.00  0.00     0.097 A 
ENDBRANCH  20  21
ENDBRANCH   1  20
TORSDOF 5
ENDMDL
MODEL 4
REMARK VINA RESULT:      -9.6      2.396     10.278
REMARK  5 active torsions:
REMARK  status: ('A' for Active; 'I' for Inactive)
REMARK    1  A    between atoms: C_8  and  C_9 
REMARK    2  A    between atoms: C_9  and  C_10 
REMARK       I    between atoms: C_10  and  N_11 
REMARK    3  A    between atoms: N_11  and  N_12 
REMARK       I    between atoms: N_12  and  C_13 
REMARK    4  A    between atoms: C_13  and  C_14 
REMARK    5  A    between atoms: C_16  and  C_17 
ROOT
HETATM    1  C   UNL     1      25.046  47.161  50.612  1.00  0.00     0.240 C 
HETATM    2  N   UNL     1      25.571  45.965  50.155  1.00  0.00    -0.267 N 
HETATM    3  O   UNL     1      25.065  47.489  51.798  1.00  0.00    -0.272 OA
HETATM    4  H   UNL     1      25.277  45.568  49.263  1.00  0.00     0.190 HD
ENDROOT
BRANCH   2   5
HETATM    5  N   UNL     1      26.105  45.069  51.080  1.00  0.00    -0.263 N 
HETATM    6  C   UNL     1      26.913  44.049  50.623  1.00  0.00     0.270 C 
HETATM    7  O   UNL     1      27.123  43.824  49.436  1.00  0.00    -0.266 OA
HETATM    8  H   UNL     1      25.720  45.091  52.023  1.00  0.00     0.190 HD
BRANCH   6   9
HETATM    9  C   UNL     1      27.557  43.237  51.680  1.00  0.00     0.034 A 
HETATM   10  C   UNL     1      28.199  43.873  52.751  1.00  0.00     0.029 A 
HETATM   11  C   UNL     1      28.887  43.122  53.713  1.00  0.00    -0.023 A 
HETATM   12  C   UNL     1      28.894  41.724  53.597  1.00  0.00     0.012 A 
HETATM   13  C   UNL     1      28.254  41.091  52.524  1.00  0.00     0.002 A 
HETATM   14  C   UNL     1      27.598  41.847  51.555  1.00  0.00     0.017 A 
BRANCH  11  15
HETATM   15  C   UNL     1      29.597  43.802  54.786  1.00  0.00    -0.002 A 
HETATM   16  C   UNL     1      29.231  45.023  55.318  1.00  0.00     0.153 A 
HETATM   17  O   UNL     1      30.059  45.377  56.336  1.00  0.00    -0.334 OA
HETATM   18  C   UNL     1      30.964  44.376  56.472  1.00  0.00     0.142 A 
HETATM   19  C   UNL     1      30.724  43.384  55.550  1.00  0.00     0.038 A 
ENDBRANCH  11  15
ENDBRANCH   6   9
ENDBRANCH   2   5
BRANCH   1  20
HETATM   20  C   UNL     1      24.579  48.069  49.495  1.00  0.00     0.145 C 
BRANCH  20  21
HETATM   21  C   UNL     1      23.124  48.027  49.154  1.00  0.00    -0.021 A 
HETATM   22  C   UNL     1      22.144  49.081  49.127  1.00  0.00    -0.001 A 
HETATM   23  C   UNL     1      22.170  50.480  49.315  1.00  0.00     0.014 A 
HETATM   24  C   UNL     1      20.904  48.487  48.875  1.00  0.00     0.042 A 
HETATM   25  C   UNL     1      20.979  51.218  49.258  1.00  0.00     0.001 A 
HETATM   26  C   UNL     1      19.762  50.587  49.019  1.00  0.00     0.002 A 
HETATM   27  C   UNL     1      19.703  49.207  48.819  1.00  0.00     0.030 A 
HETATM   28  N   UNL     1      21.118  47.140  48.712  1.00  0.00    -0.365 N 
HETATM   29  H   UNL     1      20.393  46.465  48.518  1.00  0.00     0.165 HD
HETATM   30  C   UNL     1      22.442  46.852  48.883  1.00  0.00     0.097 A 
ENDBRANCH  20  21
ENDBRANCH   1  20
TORSDOF 5
ENDMDL
MODEL 5
REMARK VINA RESULT:      -9.5      1.450      1.914
REMARK  5 active torsions:
REMARK  status: ('A' for Active; 'I' for Inactive)
REMARK    1  A    between atoms: C_8  and  C_9 
REMARK    2  A    between atoms: C_9  and  C_10 
REMARK       I    between atoms: C_10  and  N_11 
REMARK    3  A    between atoms: N_11  and  N_12 
REMARK       I    between atoms: N_12  and  C_13 
REMARK    4  A    between atoms: C_13  and  C_14 
REMARK    5  A    between atoms: C_16  and  C_17 
ROOT
HETATM    1  C   UNL     1      25.646  46.007  53.045  1.00  0.00     0.240 C 
HETATM    2  N   UNL     1      25.095  45.926  51.777  1.00  0.00    -0.267 N 
HETATM    3  O   UNL     1      25.993  47.071  53.555  1.00  0.00    -0.272 OA
HETATM    4  H   UNL     1      25.110  45.052  51.252  1.00  0.00     0.190 HD
ENDROOT
BRANCH   2   5
HETATM    5  N   UNL     1      24.966  47.093  51.025  1.00  0.00    -0.263 N 
HETATM    6  C   UNL     1      24.136  47.082  49.925  1.00  0.00     0.270 C 
HETATM    7  O   UNL     1      23.566  46.078  49.508  1.00  0.00    -0.266 OA
HETATM    8  H   UNL     1      25.637  47.838  51.207  1.00  0.00     0.190 HD
BRANCH   6   9
HETATM    9  C   UNL     1      23.940  48.397  49.272  1.00  0.00     0.034 A 
HETATM   10  C   UNL     1      22.643  48.905  49.109  1.00  0.00     0.029 A 
HETATM   11  C   UNL     1      22.434  50.105  48.419  1.00  0.00    -0.023 A 
HETATM   12  C   UNL     1      23.547  50.800  47.922  1.00  0.00     0.012 A 
HETATM   13  C   UNL     1      24.841  50.288  48.085  1.00  0.00     0.002 A 
HETATM   14  C   UNL     1      25.038  49.078  48.746  1.00  0.00     0.017 A 
BRANCH  11  15
HETATM   15  C   UNL     1      21.078  50.588  48.208  1.00  0.00    -0.002 A 
HETATM   16  C   UNL     1      20.214  50.104  47.245  1.00  0.00     0.153 A 
HETATM   17  O   UNL     1      19.006  50.721  47.323  1.00  0.00    -0.334 OA
HETATM   18  C   UNL     1      19.081  51.606  48.347  1.00  0.00     0.142 A 
HETATM   19  C   UNL     1      20.328  51.564  48.927  1.00  0.00     0.038 A 
ENDBRANCH  11  15
ENDBRANCH   6   9
ENDBRANCH   2   5
BRANCH   1  20
HETATM   20  C   UNL     1      25.648  44.683  53.777  1.00  0.00     0.145 C 
BRANCH  20  21
HETATM   21  C   UNL     1      26.968  43.997  53.931  1.00  0.00    -0.021 A 
HETATM   22  C   UNL     1      28.114  44.354  54.725  1.00  0.00    -0.001 A 
HETATM   23  C   UNL     1      28.407  45.365  55.665  1.00  0.00     0.014 A 
HETATM   24  C   UNL     1      29.135  43.453  54.407  1.00  0.00     0.042 A 
HETATM   25  C   UNL     1      29.686  45.445  56.233  1.00  0.00     0.001 A 
HETATM   26  C   UNL     1      30.680  44.539  55.879  1.00  0.00     0.002 A 
HETATM   27  C   UNL     1      30.420  43.522  54.960  1.00  0.00     0.030 A 
HETATM   28  N   UNL     1      28.627  42.562  53.494  1.00  0.00    -0.365 N 
HETATM   29  H   UNL     1      29.149  41.797  53.090  1.00  0.00     0.165 HD
HETATM   30  C   UNL     1      27.333  42.880  53.197  1.00  0.00     0.097 A 
ENDBRANCH  20  21
ENDBRANCH   1  20
TORSDOF 5
ENDMDL
MODEL 6
REMARK VINA RESULT:      -9.3      1.972      2.133
REMARK  5 active torsions:
REMARK  status: ('A' for Active; 'I' for Inactive)
REMARK    1  A    between atoms: C_8  and  C_9 
REMARK    2  A    between atoms: C_9  and  C_10 
REMARK       I    between atoms: C_10  and  N_11 
REMARK    3  A    between atoms: N_11  and  N_12 
REMARK       I    between atoms: N_12  and  C_13 
REMARK    4  A    between atoms: C_13  and  C_14 
REMARK    5  A    between atoms: C_16  and  C_17 
ROOT
HETATM    1  C   UNL     1      25.452  45.092  51.835  1.00  0.00     0.240 C 
HETATM    2  N   UNL     1      25.784  46.087  50.932  1.00  0.00    -0.267 N 
HETATM    3  O   UNL     1      24.290  44.825  52.137  1.00  0.00    -0.272 OA
HETATM    4  H   UNL     1      26.714  46.506  50.929  1.00  0.00     0.190 HD
ENDROOT
BRANCH   2   5
HETATM    5  N   UNL     1      24.763  46.853  50.371  1.00  0.00    -0.263 N 
HETATM    6  C   UNL     1      25.084  48.065  49.798  1.00  0.00     0.270 C 
HETATM    7  O   UNL     1      26.206  48.560  49.829  1.00  0.00    -0.266 OA
HETATM    8  H   UNL     1      23.806  46.575  50.581  1.00  0.00     0.190 HD
BRANCH   6   9
HETATM    9  C   UNL     1      23.970  48.742  49.096  1.00  0.00     0.034 A 
HETATM   10  C   UNL     1      22.679  48.199  49.153  1.00  0.00     0.029 A 
HETATM   11  C   UNL     1      21.632  48.777  48.425  1.00  0.00    -0.023 A 
HETATM   12  C   UNL     1      21.896  49.927  47.664  1.00  0.00     0.012 A 
HETATM   13  C   UNL     1      23.187  50.466  47.607  1.00  0.00     0.002 A 
HETATM   14  C   UNL     1      24.230  49.866  48.310  1.00  0.00     0.017 A 
BRANCH  11  15
HETATM   15  C   UNL     1      20.312  48.167  48.449  1.00  0.00    -0.002 A 
HETATM   16  C   UNL     1      19.441  48.225  49.519  1.00  0.00     0.153 A 
HETATM   17  O   UNL     1      18.270  47.601  49.227  1.00  0.00    -0.334 OA
HETATM   18  C   UNL     1      18.377  47.141  47.956  1.00  0.00     0.142 A 
HETATM   19  C   UNL     1      19.606  47.463  47.431  1.00  0.00     0.038 A 
ENDBRANCH  11  15
ENDBRANCH   6   9
ENDBRANCH   2   5
BRANCH   1  20
HETATM   20  C   UNL     1      26.647  44.288  52.299  1.00  0.00     0.145 C 
BRANCH  20  21
HETATM   21  C   UNL     1      27.435  44.846  53.441  1.00  0.00    -0.021 A 
HETATM   22  C   UNL     1      28.642  44.366  54.060  1.00  0.00    -0.001 A 
HETATM   23  C   UNL     1      29.546  43.310  53.811  1.00  0.00     0.014 A 
HETATM   24  C   UNL     1      28.888  45.176  55.172  1.00  0.00     0.042 A 
HETATM   25  C   UNL     1      30.632  43.098  54.672  1.00  0.00     0.001 A 
HETATM   26  C   UNL     1      30.834  43.918  55.777  1.00  0.00     0.002 A 
HETATM   27  C   UNL     1      29.965  44.977  56.046  1.00  0.00     0.030 A 
HETATM   28  N   UNL     1      27.904  46.133  55.209  1.00  0.00    -0.365 N 
HETATM   29  H   UNL     1      27.834  46.856  55.912  1.00  0.00     0.165 HD
HETATM   30  C   UNL     1      27.025  45.942  54.182  1.00  0.00     0.097 A 
ENDBRANCH  20  21
ENDBRANCH   1  20
TORSDOF 5
ENDMDL
MODEL 7
REMARK VINA RESULT:      -9.3      1.748      2.085
REMARK  5 active torsions:
REMARK  status: ('A' for Active; 'I' for Inactive)
REMARK    1  A    between atoms: C_8  and  C_9 
REMARK    2  A    between atoms: C_9  and  C_10 
REMARK       I    between atoms: C_10  and  N_11 
REMARK    3  A    between atoms: N_11  and  N_12 
REMARK       I    between atoms: N_12  and  C_13 
REMARK    4  A    between atoms: C_13  and  C_14 
REMARK    5  A    between atoms: C_16  and  C_17 
ROOT
HETATM    1  C   UNL     1      25.518  44.374  51.704  1.00  0.00     0.240 C 
HETATM    2  N   UNL     1      25.686  45.119  50.549  1.00  0.00    -0.267 N 
HETATM    3  O   UNL     1      24.413  44.038  52.128  1.00  0.00    -0.272 OA
HETATM    4  H   UNL     1      26.542  45.648  50.384  1.00  0.00     0.190 HD
ENDROOT
BRANCH   2   5
HETATM    5  N   UNL     1      24.554  45.549  49.857  1.00  0.00    -0.263 N 
HETATM    6  C   UNL     1      24.198  46.878  49.935  1.00  0.00     0.270 C 
HETATM    7  O   UNL     1      24.765  47.697  50.650  1.00  0.00    -0.266 OA
HETATM    8  H   UNL     1      23.936  44.829  49.488  1.00  0.00     0.190 HD
BRANCH   6   9
HETATM    9  C   UNL     1      23.077  47.280  49.054  1.00  0.00     0.034 A 
HETATM   10  C   UNL     1      22.409  48.490  49.288  1.00  0.00     0.029 A 
HETATM   11  C   UNL     1      21.293  48.845  48.520  1.00  0.00    -0.023 A 
HETATM   12  C   UNL     1      20.878  47.980  47.496  1.00  0.00     0.012 A 
HETATM   13  C   UNL     1      21.546  46.770  47.267  1.00  0.00     0.002 A 
HETATM   14  C   UNL     1      22.636  46.411  48.056  1.00  0.00     0.017 A 
BRANCH  11  15
HETATM   15  C   UNL     1      20.577  50.076  48.813  1.00  0.00    -0.002 A 
HETATM   16  C   UNL     1      20.194  50.478  50.078  1.00  0.00     0.153 A 
HETATM   17  O   UNL     1      19.583  51.691  50.038  1.00  0.00    -0.334 OA
HETATM   18  C   UNL     1      19.576  52.085  48.741  1.00  0.00     0.142 A 
HETATM   19  C   UNL     1      20.176  51.135  47.948  1.00  0.00     0.038 A 
ENDBRANCH  11  15
ENDBRANCH   6   9
ENDBRANCH   2   5
BRANCH   1  20
HETATM   20  C   UNL     1      26.827  43.905  52.303  1.00  0.00     0.145 C 
BRANCH  20  21
HETATM   21  C   UNL     1      27.417  44.753  53.385  1.00  0.00    -0.021 A 
HETATM   22  C   UNL     1      28.569  44.529  54.217  1.00  0.00    -0.001 A 
HETATM   23  C   UNL     1      29.576  43.542  54.292  1.00  0.00     0.014 A 
HETATM   24  C   UNL     1      28.607  45.562  55.159  1.00  0.00     0.042 A 
HETATM   25  C   UNL     1      30.557  43.615  55.291  1.00  0.00     0.001 A 
HETATM   26  C   UNL     1      30.551  44.652  56.219  1.00  0.00     0.002 A 
HETATM   27  C   UNL     1      29.576  45.648  56.167  1.00  0.00     0.030 A 
HETATM   28  N   UNL     1      27.554  46.402  54.890  1.00  0.00    -0.365 N 
HETATM   29  H   UNL     1      27.340  47.237  55.416  1.00  0.00     0.165 HD
HETATM   30  C   UNL     1      26.831  45.925  53.835  1.00  0.00     0.097 A 
ENDBRANCH  20  21
ENDBRANCH   1  20
TORSDOF 5
ENDMDL
MODEL 8
REMARK VINA RESULT:      -9.3      2.180      2.901
REMARK  5 active torsions:
REMARK  status: ('A' for Active; 'I' for Inactive)
REMARK    1  A    between atoms: C_8  and  C_9 
REMARK    2  A    between atoms: C_9  and  C_10 
REMARK       I    between atoms: C_10  and  N_11 
REMARK    3  A    between atoms: N_11  and  N_12 
REMARK       I    between atoms: N_12  and  C_13 
REMARK    4  A    between atoms: C_13  and  C_14 
REMARK    5  A    between atoms: C_16  and  C_17 
ROOT
HETATM    1  C   UNL     1      26.357  43.981  50.584  1.00  0.00     0.240 C 
HETATM    2  N   UNL     1      25.114  44.584  50.667  1.00  0.00    -0.267 N 
HETATM    3  O   UNL     1      27.290  44.458  49.939  1.00  0.00    -0.272 OA
HETATM    4  H   UNL     1      24.285  44.048  50.921  1.00  0.00     0.190 HD
ENDROOT
BRANCH   2   5
HETATM    5  N   UNL     1      24.890  45.761  49.955  1.00  0.00    -0.263 N 
HETATM    6  C   UNL     1      24.984  46.965  50.621  1.00  0.00     0.270 C 
HETATM    7  O   UNL     1      25.165  47.064  51.829  1.00  0.00    -0.266 OA
HETATM    8  H   UNL     1      24.479  45.671  49.027  1.00  0.00     0.190 HD
BRANCH   6   9
HETATM    9  C   UNL     1      24.880  48.167  49.763  1.00  0.00     0.034 A 
HETATM   10  C   UNL     1      23.623  48.731  49.504  1.00  0.00     0.029 A 
HETATM   11  C   UNL     1      23.498  49.815  48.627  1.00  0.00    -0.023 A 
HETATM   12  C   UNL     1      24.658  50.341  48.038  1.00  0.00     0.012 A 
HETATM   13  C   UNL     1      25.912  49.775  48.296  1.00  0.00     0.002 A 
HETATM   14  C   UNL     1      26.024  48.677  49.146  1.00  0.00     0.017 A 
BRANCH  11  15
HETATM   15  C   UNL     1      22.180  50.350  48.325  1.00  0.00    -0.002 A 
HETATM   16  C   UNL     1      21.362  49.894  47.309  1.00  0.00     0.153 A 
HETATM   17  O   UNL     1      20.177  50.559  47.304  1.00  0.00    -0.334 OA
HETATM   18  C   UNL     1      20.221  51.448  48.327  1.00  0.00     0.142 A 
HETATM   19  C   UNL     1      21.424  51.360  48.988  1.00  0.00     0.038 A 
ENDBRANCH  11  15
ENDBRANCH   6   9
ENDBRANCH   2   5
BRANCH   1  20
HETATM   20  C   UNL     1      26.486  42.761  51.471  1.00  0.00     0.145 C 
BRANCH  20  21
HETATM   21  C   UNL     1      27.759  42.616  52.242  1.00  0.00    -0.021 A 
HETATM   22  C   UNL     1      28.268  43.382  53.348  1.00  0.00    -0.001 A 
HETATM   23  C   UNL     1      27.781  44.440  54.144  1.00  0.00     0.014 A 
HETATM   24  C   UNL     1      29.562  42.920  53.611  1.00  0.00     0.042 A 
HETATM   25  C   UNL     1      28.590  44.996  55.145  1.00  0.00     0.001 A 
HETATM   26  C   UNL     1      29.878  44.518  55.366  1.00  0.00     0.002 A 
HETATM   27  C   UNL     1      30.386  43.466  54.602  1.00  0.00     0.030 A 
HETATM   28  N   UNL     1      29.817  41.892  52.736  1.00  0.00    -0.365 N 
HETATM   29  H   UNL     1      30.682  41.371  52.702  1.00  0.00     0.165 HD
HETATM   30  C   UNL     1      28.748  41.705  51.907  1.00  0.00     0.097 A 
ENDBRANCH  20  21
ENDBRANCH   1  20
TORSDOF 5
ENDMDL
MODEL 9
REMARK VINA RESULT:      -9.2      2.064      3.454
REMARK  5 active torsions:
REMARK  status: ('A' for Active; 'I' for Inactive)
REMARK    1  A    between atoms: C_8  and  C_9 
REMARK    2  A    between atoms: C_9  and  C_10 
REMARK       I    between atoms: C_10  and  N_11 
REMARK    3  A    between atoms: N_11  and  N_12 
REMARK       I    between atoms: N_12  and  C_13 
REMARK    4  A    between atoms: C_13  and  C_14 
REMARK    5  A    between atoms: C_16  and  C_17 
ROOT
HETATM    1  C   UNL     1      27.954  43.588  52.474  1.00  0.00     0.240 C 
HETATM    2  N   UNL     1      26.622  43.657  52.845  1.00  0.00    -0.267 N 
HETATM    3  O   UNL     1      28.354  43.916  51.358  1.00  0.00    -0.272 OA
HETATM    4  H   UNL     1      26.263  43.104  53.623  1.00  0.00     0.190 HD
ENDROOT
BRANCH   2   5
HETATM    5  N   UNL     1      25.683  44.074  51.902  1.00  0.00    -0.263 N 
HETATM    6  C   UNL     1      25.460  45.425  51.744  1.00  0.00     0.270 C 
HETATM    7  O   UNL     1      25.974  46.289  52.446  1.00  0.00    -0.266 OA
HETATM    8  H   UNL     1      25.068  43.361  51.514  1.00  0.00     0.190 HD
BRANCH   6   9
HETATM    9  C   UNL     1      24.563  45.786  50.623  1.00  0.00     0.034 A 
HETATM   10  C   UNL     1      24.379  47.135  50.287  1.00  0.00     0.029 A 
HETATM   11  C   UNL     1      23.469  47.499  49.287  1.00  0.00    -0.023 A 
HETATM   12  C   UNL     1      22.770  46.487  48.612  1.00  0.00     0.012 A 
HETATM   13  C   UNL     1      22.954  45.141  48.951  1.00  0.00     0.002 A 
HETATM   14  C   UNL     1      23.838  44.790  49.968  1.00  0.00     0.017 A 
BRANCH  11  15
HETATM   15  C   UNL     1      23.247  48.906  48.991  1.00  0.00    -0.002 A 
HETATM   16  C   UNL     1      22.081  49.592  49.269  1.00  0.00     0.153 A 
HETATM   17  O   UNL     1      22.191  50.900  48.919  1.00  0.00    -0.334 OA
HETATM   18  C   UNL     1      23.440  51.069  48.418  1.00  0.00     0.142 A 
HETATM   19  C   UNL     1      24.131  49.880  48.442  1.00  0.00     0.038 A 
ENDBRANCH  11  15
ENDBRANCH   6   9
ENDBRANCH   2   5
BRANCH   1  20
HETATM   20  C   UNL     1      28.869  43.202  53.617  1.00  0.00     0.145 C 
BRANCH  20  21
HETATM   21  C   UNL     1      29.156  44.256  54.638  1.00  0.00    -0.021 A 
HETATM   22  C   UNL     1      30.059  44.243  55.759  1.00  0.00    -0.001 A 
HETATM   23  C   UNL     1      31.021  43.341  56.261  1.00  0.00     0.014 A 
HETATM   24  C   UNL     1      29.847  45.425  56.475  1.00  0.00     0.042 A 
HETATM   25  C   UNL     1      31.714  43.639  57.443  1.00  0.00     0.001 A 
HETATM   26  C   UNL     1      31.463  44.820  58.135  1.00  0.00     0.002 A 
HETATM   27  C   UNL     1      30.526  45.738  57.660  1.00  0.00     0.030 A 
HETATM   28  N   UNL     1      28.891  46.147  55.803  1.00  0.00    -0.365 N 
HETATM   29  H   UNL     1      28.543  47.048  56.098  1.00  0.00     0.165 HD
HETATM   30  C   UNL     1      28.465  45.455  54.706  1.00  0.00     0.097 A 
ENDBRANCH  20  21
ENDBRANCH   1  20
TORSDOF 5
ENDMDL
MODEL 10
REMARK VINA RESULT:      -9.2      2.899     10.286
REMARK  5 active torsions:
REMARK  status: ('A' for Active; 'I' for Inactive)
REMARK    1  A    between atoms: C_8  and  C_9 
REMARK    2  A    between atoms: C_9  and  C_10 
REMARK       I    between atoms: C_10  and  N_11 
REMARK    3  A    between atoms: N_11  and  N_12 
REMARK       I    between atoms: N_12  and  C_13 
REMARK    4  A    between atoms: C_13  and  C_14 
REMARK    5  A    between atoms: C_16  and  C_17 
ROOT
HETATM    1  C   UNL     1      22.608  47.257  48.744  1.00  0.00     0.240 C 
HETATM    2  N   UNL     1      23.268  47.879  49.790  1.00  0.00    -0.267 N 
HETATM    3  O   UNL     1      22.643  46.040  48.563  1.00  0.00    -0.272 OA
HETATM    4  H   UNL     1      23.496  48.872  49.752  1.00  0.00     0.190 HD
ENDROOT
BRANCH   2   5
HETATM    5  N   UNL     1      24.042  47.104  50.652  1.00  0.00    -0.263 N 
HETATM    6  C   UNL     1      25.383  47.396  50.780  1.00  0.00     0.270 C 
HETATM    7  O   UNL     1      25.964  48.244  50.111  1.00  0.00    -0.266 OA
HETATM    8  H   UNL     1      23.627  46.240  50.998  1.00  0.00     0.190 HD
BRANCH   6   9
HETATM    9  C   UNL     1      26.098  46.625  51.823  1.00  0.00     0.034 A 
HETATM   10  C   UNL     1      26.560  45.332  51.538  1.00  0.00     0.029 A 
HETATM   11  C   UNL     1      27.161  44.557  52.537  1.00  0.00    -0.023 A 
HETATM   12  C   UNL     1      27.316  45.111  53.817  1.00  0.00     0.012 A 
HETATM   13  C   UNL     1      26.851  46.402  54.099  1.00  0.00     0.002 A 
HETATM   14  C   UNL     1      26.227  47.155  53.107  1.00  0.00     0.017 A 
BRANCH  11  15
HETATM   15  C   UNL     1      27.582  43.197  52.240  1.00  0.00    -0.002 A 
HETATM   16  C   UNL     1      27.080  42.428  51.208  1.00  0.00     0.153 A 
HETATM   17  O   UNL     1      27.700  41.221  51.155  1.00  0.00    -0.334 OA
HETATM   18  C   UNL     1      28.618  41.206  52.154  1.00  0.00     0.142 A 
HETATM   19  C   UNL     1      28.590  42.394  52.847  1.00  0.00     0.038 A 
ENDBRANCH  11  15
ENDBRANCH   6   9
ENDBRANCH   2   5
BRANCH   1  20
HETATM   20  C   UNL     1      21.742  48.203  47.942  1.00  0.00     0.145 C 
BRANCH  20  21
HETATM   21  C   UNL     1      20.465  48.653  48.575  1.00  0.00    -0.021 A 
HETATM   22  C   UNL     1      19.892  49.968  48.681  1.00  0.00    -0.001 A 
HETATM   23  C   UNL     1      20.230  51.251  48.200  1.00  0.00     0.014 A 
HETATM   24  C   UNL     1      18.754  49.861  49.487  1.00  0.00     0.042 A 
HETATM   25  C   UNL     1      19.444  52.360  48.544  1.00  0.00     0.001 A 
HETATM   26  C   UNL     1      18.327  52.214  49.360  1.00  0.00     0.002 A 
HETATM   27  C   UNL     1      17.959  50.958  49.844  1.00  0.00     0.030 A 
HETATM   28  N   UNL     1      18.611  48.537  49.823  1.00  0.00    -0.365 N 
HETATM   29  H   UNL     1      17.869  48.171  50.401  1.00  0.00     0.165 HD
HETATM   30  C   UNL     1      19.633  47.805  49.289  1.00  0.00     0.097 A 
ENDBRANCH  20  21
ENDBRANCH   1  20
TORSDOF 5
ENDMDL
