MODEL 1
REMARK VINA RESULT:      -9.6      0.000      0.000
REMARK  8 active torsions:
REMARK  status: ('A' for Active; 'I' for Inactive)
REMARK    1  A    between atoms: C_2  and  O_3 
REMARK    2  A    between atoms: O_3  and  C_4 
REMARK    3  A    between atoms: C_4  and  C_5 
REMARK    4  A    between atoms: N_7  and  C_9 
REMARK    5  A    between atoms: C_9  and  C_10 
REMARK       I    between atoms: C_10  and  N_11 
REMARK    6  A    between atoms: N_11  and  C_12 
REMARK    7  A    between atoms: C_20  and  C_21 
REMARK       I    between atoms: C_21  and  N_22 
REMARK    8  A    between atoms: N_22  and  C_23 
ROOT
HETATM    1  C   UNL     1      26.986  43.040  50.745  1.00  0.00     0.093 C 
HETATM    2  S   UNL     1      26.667  42.294  49.256  1.00  0.00    -0.075 SA
HETATM    3  C   UNL     1      27.491  40.893  49.711  1.00  0.00    -0.008 C 
HETATM    4  C   UNL     1      28.001  40.956  50.999  1.00  0.00    -0.026 C 
HETATM    5  C   UNL     1      28.832  39.812  51.525  1.00  0.00     0.041 C 
HETATM    6  C   UNL     1      29.335  38.881  50.411  1.00  0.00     0.005 C 
HETATM    7  C   UNL     1      28.207  38.516  49.441  1.00  0.00     0.005 C 
HETATM    8  C   UNL     1      27.663  39.763  48.738  1.00  0.00     0.047 C 
HETATM    9  C   UNL     1      27.614  42.198  51.665  1.00  0.00     0.073 C 
ENDROOT
BRANCH   1  10
HETATM   10  N   UNL     1      26.535  44.338  50.969  1.00  0.00    -0.319 N 
HETATM   11  C   UNL     1      25.244  44.658  51.317  1.00  0.00     0.248 C 
HETATM   12  O   UNL     1      24.260  43.913  51.347  1.00  0.00    -0.271 OA
HETATM   13  H   UNL     1      27.138  45.058  50.562  1.00  0.00     0.169 HD
BRANCH  11  14
HETATM   14  C   UNL     1      25.015  46.124  51.696  1.00  0.00     0.337 C 
BRANCH  14  15
HETATM   15  N   UNL     1      25.415  47.006  50.499  1.00  0.00    -0.062 N 
HETATM   16  C   UNL     1      24.279  47.902  50.038  1.00  0.00     0.249 C 
HETATM   17  C   UNL     1      24.644  48.533  48.696  1.00  0.00     0.111 C 
HETATM   18  C   UNL     1      25.977  49.281  48.793  1.00  0.00     0.018 C 
HETATM   19  C   UNL     1      27.087  48.391  49.352  1.00  0.00     0.029 C 
HETATM   20  C   UNL     1      26.703  47.746  50.679  1.00  0.00     0.235 C 
HETATM   21  H   UNL     1      25.537  46.305  49.743  1.00  0.00     0.280 HD
BRANCH  17  22
HETATM   22  C   UNL     1      23.519  49.460  48.291  1.00  0.00     0.264 C 
HETATM   23  O   UNL     1      23.498  50.074  47.234  1.00  0.00    -0.265 OA
BRANCH  22  24
HETATM   24  O   UNL     1      22.581  49.520  49.269  1.00  0.00    -0.322 OA
BRANCH  24  25
HETATM   25  C   UNL     1      22.123  50.833  49.634  1.00  0.00     0.174 C 
HETATM   26  C   UNL     1      20.870  51.179  48.852  1.00  0.00     0.034 C 
ENDBRANCH  24  25
ENDBRANCH  22  24
ENDBRANCH  17  22
ENDBRANCH  14  15
ENDBRANCH  11  14
ENDBRANCH   1  10
BRANCH   9  27
HETATM   27  C   UNL     1      27.847  42.667  53.054  1.00  0.00     0.259 C 
HETATM   28  N   UNL     1      28.980  43.430  53.248  1.00  0.00    -0.323 N 
HETATM   29  H   UNL     1      29.587  43.554  52.456  1.00  0.00     0.169 HD
HETATM   30  O   UNL     1      27.062  42.337  53.945  1.00  0.00    -0.267 OA
BRANCH  28  31
HETATM   31  C   UNL     1      29.435  44.045  54.433  1.00  0.00     0.035 A 
HETATM   32  C   UNL     1      30.486  43.569  55.218  1.00  0.00     0.031 A 
HETATM   33  C   UNL     1      30.867  44.252  56.382  1.00  0.00     0.026 A 
HETATM   34  C   UNL     1      30.191  45.406  56.769  1.00  0.00     0.034 A 
HETATM   35 CL   UNL     1      30.658  46.236  58.200  1.00  0.00    -0.084 Cl
HETATM   36  C   UNL     1      29.137  45.888  56.001  1.00  0.00     0.026 A 
HETATM   37  C   UNL     1      28.765  45.211  54.835  1.00  0.00     0.031 A 
ENDBRANCH  28  31
ENDBRANCH   9  27
TORSDOF 8
ENDMDL
MODEL 2
REMARK VINA RESULT:      -9.2      3.535      9.086
REMARK  8 active torsions:
REMARK  status: ('A' for Active; 'I' for Inactive)
REMARK    1  A    between atoms: C_2  and  O_3 
REMARK    2  A    between atoms: O_3  and  C_4 
REMARK    3  A    between atoms: C_4  and  C_5 
REMARK    4  A    between atoms: N_7  and  C_9 
REMARK    5  A    between atoms: C_9  and  C_10 
REMARK       I    between atoms: C_10  and  N_11 
REMARK    6  A    between atoms: N_11  and  C_12 
REMARK    7  A    between atoms: C_20  and  C_21 
REMARK       I    between atoms: C_21  and  N_22 
REMARK    8  A    between atoms: N_22  and  C_23 
ROOT
HETATM    1  C   UNL     1      27.202  42.478  52.422  1.00  0.00     0.093 C 
HETATM    2  S   UNL     1      28.514  41.761  53.222  1.00  0.00    -0.075 SA
HETATM    3  C   UNL     1      28.821  43.165  54.108  1.00  0.00    -0.008 C 
HETATM    4  C   UNL     1      27.927  44.188  53.831  1.00  0.00    -0.026 C 
HETATM    5  C   UNL     1      28.115  45.535  54.485  1.00  0.00     0.041 C 
HETATM    6  C   UNL     1      29.518  45.714  55.084  1.00  0.00     0.005 C 
HETATM    7  C   UNL     1      29.929  44.491  55.909  1.00  0.00     0.005 C 
HETATM    8  C   UNL     1      30.000  43.237  55.034  1.00  0.00     0.047 C 
HETATM    9  C   UNL     1      26.889  43.752  52.899  1.00  0.00     0.073 C 
ENDROOT
BRANCH   1  10
HETATM   10  N   UNL     1      26.504  41.746  51.465  1.00  0.00    -0.319 N 
HETATM   11  C   UNL     1      26.601  41.954  50.110  1.00  0.00     0.248 C 
HETATM   12  O   UNL     1      27.176  42.876  49.524  1.00  0.00    -0.271 OA
HETATM   13  H   UNL     1      25.688  41.255  51.840  1.00  0.00     0.169 HD
BRANCH  11  14
HETATM   14  C   UNL     1      25.891  40.914  49.238  1.00  0.00     0.337 C 
BRANCH  14  15
HETATM   15  N   UNL     1      26.957  40.094  48.488  1.00  0.00    -0.062 N 
HETATM   16  C   UNL     1      27.915  39.394  49.435  1.00  0.00     0.249 C 
HETATM   17  C   UNL     1      29.096  38.839  48.641  1.00  0.00     0.111 C 
HETATM   18  C   UNL     1      28.610  37.922  47.515  1.00  0.00     0.018 C 
HETATM   19  C   UNL     1      27.571  38.612  46.631  1.00  0.00     0.029 C 
HETATM   20  C   UNL     1      26.410  39.184  47.435  1.00  0.00     0.235 C 
HETATM   21  H   UNL     1      27.519  40.837  48.028  1.00  0.00     0.280 HD
BRANCH  17  22
HETATM   22  C   UNL     1      30.003  38.101  49.601  1.00  0.00     0.264 C 
HETATM   23  O   UNL     1      31.223  38.177  49.570  1.00  0.00    -0.265 OA
BRANCH  22  24
HETATM   24  O   UNL     1      29.271  37.345  50.457  1.00  0.00    -0.322 OA
BRANCH  24  25
HETATM   25  C   UNL     1      29.924  36.948  51.675  1.00  0.00     0.174 C 
HETATM   26  C   UNL     1      29.800  35.447  51.860  1.00  0.00     0.034 C 
ENDBRANCH  24  25
ENDBRANCH  22  24
ENDBRANCH  17  22
ENDBRANCH  14  15
ENDBRANCH  11  14
ENDBRANCH   1  10
BRANCH   9  27
HETATM   27  C   UNL     1      25.688  44.457  52.384  1.00  0.00     0.259 C 
HETATM   28  N   UNL     1      25.854  45.133  51.193  1.00  0.00    -0.323 N 
HETATM   29  H   UNL     1      26.780  45.148  50.802  1.00  0.00     0.169 HD
HETATM   30  O   UNL     1      24.645  44.435  53.040  1.00  0.00    -0.267 OA
BRANCH  28  31
HETATM   31  C   UNL     1      24.894  45.849  50.447  1.00  0.00     0.035 A 
HETATM   32  C   UNL     1      23.932  45.261  49.625  1.00  0.00     0.031 A 
HETATM   33  C   UNL     1      23.017  46.058  48.923  1.00  0.00     0.026 A 
HETATM   34  C   UNL     1      23.071  47.445  49.031  1.00  0.00     0.034 A 
HETATM   35 CL   UNL     1      21.952  48.418  48.161  1.00  0.00    -0.084 Cl
HETATM   36  C   UNL     1      24.029  48.046  49.840  1.00  0.00     0.026 A 
HETATM   37  C   UNL     1      24.934  47.249  50.548  1.00  0.00     0.031 A 
ENDBRANCH  28  31
ENDBRANCH   9  27
TORSDOF 8
ENDMDL
MODEL 3
REMARK VINA RESULT:      -9.1      1.943      2.707
REMARK  8 active torsions:
REMARK  status: ('A' for Active; 'I' for Inactive)
REMARK    1  A    between atoms: C_2  and  O_3 
REMARK    2  A    between atoms: O_3  and  C_4 
REMARK    3  A    between atoms: C_4  and  C_5 
REMARK    4  A    between atoms: N_7  and  C_9 
REMARK    5  A    between atoms: C_9  and  C_10 
REMARK       I    between atoms: C_10  and  N_11 
REMARK    6  A    between atoms: N_11  and  C_12 
REMARK    7  A    between atoms: C_20  and  C_21 
REMARK       I    between atoms: C_21  and  N_22 
REMARK    8  A    between atoms: N_22  and  C_23 
ROOT
HETATM    1  C   UNL     1      25.586  41.684  48.638  1.00  0.00     0.093 C 
HETATM    2  S   UNL     1      24.906  40.415  47.743  1.00  0.00    -0.075 SA
HETATM    3  C   UNL     1      26.172  39.372  48.143  1.00  0.00    -0.008 C 
HETATM    4  C   UNL     1      27.115  39.956  48.974  1.00  0.00    -0.026 C 
HETATM    5  C   UNL     1      28.348  39.178  49.359  1.00  0.00     0.041 C 
HETATM    6  C   UNL     1      28.590  37.961  48.453  1.00  0.00     0.005 C 
HETATM    7  C   UNL     1      27.305  37.151  48.258  1.00  0.00     0.005 C 
HETATM    8  C   UNL     1      26.228  37.988  47.564  1.00  0.00     0.047 C 
HETATM    9  C   UNL     1      26.719  41.308  49.363  1.00  0.00     0.073 C 
ENDROOT
BRANCH   1  10
HETATM   10  N   UNL     1      24.944  42.919  48.667  1.00  0.00    -0.319 N 
HETATM   11  C   UNL     1      23.783  43.171  49.359  1.00  0.00     0.248 C 
HETATM   12  O   UNL     1      23.049  42.358  49.929  1.00  0.00    -0.271 OA
HETATM   13  H   UNL     1      25.216  43.541  47.902  1.00  0.00     0.169 HD
BRANCH  11  14
HETATM   14  C   UNL     1      23.356  44.641  49.404  1.00  0.00     0.337 C 
BRANCH  14  15
HETATM   15  N   UNL     1      24.543  45.479  49.913  1.00  0.00    -0.062 N 
HETATM   16  C   UNL     1      24.541  46.886  49.342  1.00  0.00     0.249 C 
HETATM   17  C   UNL     1      25.874  47.562  49.658  1.00  0.00     0.111 C 
HETATM   18  C   UNL     1      26.151  47.541  51.163  1.00  0.00     0.018 C 
HETATM   19  C   UNL     1      26.051  46.129  51.739  1.00  0.00     0.029 C 
HETATM   20  C   UNL     1      24.727  45.454  51.397  1.00  0.00     0.235 C 
HETATM   21  H   UNL     1      25.352  45.003  49.469  1.00  0.00     0.280 HD
BRANCH  17  22
HETATM   22  C   UNL     1      25.821  48.977  49.125  1.00  0.00     0.264 C 
HETATM   23  O   UNL     1      26.803  49.583  48.720  1.00  0.00    -0.265 OA
BRANCH  22  24
HETATM   24  O   UNL     1      24.555  49.460  49.192  1.00  0.00    -0.322 OA
BRANCH  24  25
HETATM   25  C   UNL     1      24.132  50.293  48.099  1.00  0.00     0.174 C 
HETATM   26  C   UNL     1      22.907  51.091  48.503  1.00  0.00     0.034 C 
ENDBRANCH  24  25
ENDBRANCH  22  24
ENDBRANCH  17  22
ENDBRANCH  14  15
ENDBRANCH  11  14
ENDBRANCH   1  10
BRANCH   9  27
HETATM   27  C   UNL     1      27.353  42.276  50.292  1.00  0.00     0.259 C 
HETATM   28  N   UNL     1      27.741  41.769  51.515  1.00  0.00    -0.323 N 
HETATM   29  H   UNL     1      27.509  40.809  51.704  1.00  0.00     0.169 HD
HETATM   30  O   UNL     1      27.469  43.455  49.953  1.00  0.00    -0.267 OA
BRANCH  28  31
HETATM   31  C   UNL     1      28.400  42.429  52.573  1.00  0.00     0.035 A 
HETATM   32  C   UNL     1      29.766  42.326  52.841  1.00  0.00     0.031 A 
HETATM   33  C   UNL     1      30.332  43.023  53.917  1.00  0.00     0.026 A 
HETATM   34  C   UNL     1      29.532  43.816  54.735  1.00  0.00     0.034 A 
HETATM   35 CL   UNL     1      30.229  44.664  56.057  1.00  0.00    -0.084 Cl
HETATM   36  C   UNL     1      28.168  43.923  54.485  1.00  0.00     0.026 A 
HETATM   37  C   UNL     1      27.607  43.235  53.405  1.00  0.00     0.031 A 
ENDBRANCH  28  31
ENDBRANCH   9  27
TORSDOF 8
ENDMDL
MODEL 4
REMARK VINA RESULT:      -9.1      3.189      5.986
REMARK  8 active torsions:
REMARK  status: ('A' for Active; 'I' for Inactive)
REMARK    1  A    between atoms: C_2  and  O_3 
REMARK    2  A    between atoms: O_3  and  C_4 
REMARK    3  A    between atoms: C_4  and  C_5 
REMARK    4  A    between atoms: N_7  and  C_9 
REMARK    5  A    between atoms: C_9  and  C_10 
REMARK       I    between atoms: C_10  and  N_11 
REMARK    6  A    between atoms: N_11  and  C_12 
REMARK    7  A    between atoms: C_20  and  C_21 
REMARK       I    between atoms: C_21  and  N_22 
REMARK    8  A    between atoms: N_22  and  C_23 
ROOT
HETATM    1  C   UNL     1      25.684  45.515  51.319  1.00  0.00     0.093 C 
HETATM    2  S   UNL     1      25.574  46.808  52.411  1.00  0.00    -0.075 SA
HETATM    3  C   UNL     1      26.795  46.169  53.387  1.00  0.00    -0.008 C 
HETATM    4  C   UNL     1      27.318  44.983  52.895  1.00  0.00    -0.026 C 
HETATM    5  C   UNL     1      28.363  44.245  53.694  1.00  0.00     0.041 C 
HETATM    6  C   UNL     1      28.433  44.712  55.156  1.00  0.00     0.005 C 
HETATM    7  C   UNL     1      28.454  46.240  55.250  1.00  0.00     0.005 C 
HETATM    8  C   UNL     1      27.172  46.844  54.673  1.00  0.00     0.047 C 
HETATM    9  C   UNL     1      26.732  44.637  51.601  1.00  0.00     0.073 C 
ENDROOT
BRANCH   1  10
HETATM   10  N   UNL     1      24.830  45.476  50.220  1.00  0.00    -0.319 N 
HETATM   11  C   UNL     1      23.673  44.734  50.165  1.00  0.00     0.248 C 
HETATM   12  O   UNL     1      23.274  43.892  50.975  1.00  0.00    -0.271 OA
HETATM   13  H   UNL     1      25.268  45.787  49.349  1.00  0.00     0.169 HD
BRANCH  11  14
HETATM   14  C   UNL     1      22.795  44.986  48.937  1.00  0.00     0.337 C 
BRANCH  14  15
HETATM   15  N   UNL     1      22.128  46.365  49.087  1.00  0.00    -0.062 N 
HETATM   16  C   UNL     1      23.088  47.504  48.793  1.00  0.00     0.249 C 
HETATM   17  C   UNL     1      22.455  48.825  49.227  1.00  0.00     0.111 C 
HETATM   18  C   UNL     1      21.092  49.020  48.556  1.00  0.00     0.018 C 
HETATM   19  C   UNL     1      20.173  47.819  48.781  1.00  0.00     0.029 C 
HETATM   20  C   UNL     1      20.824  46.504  48.368  1.00  0.00     0.235 C 
HETATM   21  H   UNL     1      21.951  46.412  50.109  1.00  0.00     0.280 HD
BRANCH  17  22
HETATM   22  C   UNL     1      23.409  49.943  48.871  1.00  0.00     0.264 C 
HETATM   23  O   UNL     1      23.392  51.042  49.407  1.00  0.00    -0.265 OA
BRANCH  22  24
HETATM   24  O   UNL     1      24.245  49.554  47.876  1.00  0.00    -0.322 OA
BRANCH  24  25
HETATM   25  C   UNL     1      25.594  50.045  47.947  1.00  0.00     0.174 C 
HETATM   26  C   UNL     1      26.427  49.139  48.835  1.00  0.00     0.034 C 
ENDBRANCH  24  25
ENDBRANCH  22  24
ENDBRANCH  17  22
ENDBRANCH  14  15
ENDBRANCH  11  14
ENDBRANCH   1  10
BRANCH   9  27
HETATM   27  C   UNL     1      27.034  43.525  50.665  1.00  0.00     0.259 C 
HETATM   28  N   UNL     1      27.049  42.262  51.219  1.00  0.00    -0.323 N 
HETATM   29  H   UNL     1      26.919  42.198  52.213  1.00  0.00     0.169 HD
HETATM   30  O   UNL     1      27.281  43.778  49.485  1.00  0.00    -0.267 OA
BRANCH  28  31
HETATM   31  C   UNL     1      27.259  41.023  50.578  1.00  0.00     0.035 A 
HETATM   32  C   UNL     1      28.439  40.281  50.657  1.00  0.00     0.031 A 
HETATM   33  C   UNL     1      28.553  39.057  49.985  1.00  0.00     0.026 A 
HETATM   34  C   UNL     1      27.491  38.576  49.223  1.00  0.00     0.034 A 
HETATM   35 CL   UNL     1      27.638  37.077  48.394  1.00  0.00    -0.084 Cl
HETATM   36  C   UNL     1      26.312  39.307  49.129  1.00  0.00     0.026 A 
HETATM   37  C   UNL     1      26.196  40.523  49.809  1.00  0.00     0.031 A 
ENDBRANCH  28  31
ENDBRANCH   9  27
TORSDOF 8
ENDMDL
MODEL 5
REMARK VINA RESULT:      -8.9      3.329      6.176
REMARK  8 active torsions:
REMARK  status: ('A' for Active; 'I' for Inactive)
REMARK    1  A    between atoms: C_2  and  O_3 
REMARK    2  A    between atoms: O_3  and  C_4 
REMARK    3  A    between atoms: C_4  and  C_5 
REMARK    4  A    between atoms: N_7  and  C_9 
REMARK    5  A    between atoms: C_9  and  C_10 
REMARK       I    between atoms: C_10  and  N_11 
REMARK    6  A    between atoms: N_11  and  C_12 
REMARK    7  A    between atoms: C_20  and  C_21 
REMARK       I    between atoms: C_21  and  N_22 
REMARK    8  A    between atoms: N_22  and  C_23 
ROOT
HETATM    1  C   UNL     1      25.690  44.484  50.945  1.00  0.00     0.093 C 
HETATM    2  S   UNL     1      25.988  45.819  51.947  1.00  0.00    -0.075 SA
HETATM    3  C   UNL     1      27.062  44.938  52.906  1.00  0.00    -0.008 C 
HETATM    4  C   UNL     1      27.230  43.631  52.473  1.00  0.00    -0.026 C 
HETATM    5  C   UNL     1      28.098  42.691  53.272  1.00  0.00     0.041 C 
HETATM    6  C   UNL     1      28.380  43.203  54.692  1.00  0.00     0.005 C 
HETATM    7  C   UNL     1      28.801  44.676  54.678  1.00  0.00     0.005 C 
HETATM    8  C   UNL     1      27.683  45.561  54.122  1.00  0.00     0.047 C 
HETATM    9  C   UNL     1      26.492  43.380  51.236  1.00  0.00     0.073 C 
ENDROOT
BRANCH   1  10
HETATM   10  N   UNL     1      24.786  44.609  49.893  1.00  0.00    -0.319 N 
HETATM   11  C   UNL     1      23.444  44.326  49.988  1.00  0.00     0.248 C 
HETATM   12  O   UNL     1      22.848  43.792  50.928  1.00  0.00    -0.271 OA
HETATM   13  H   UNL     1      25.230  44.629  48.971  1.00  0.00     0.169 HD
BRANCH  11  14
HETATM   14  C   UNL     1      22.607  44.712  48.766  1.00  0.00     0.337 C 
BRANCH  14  15
HETATM   15  N   UNL     1      22.123  46.162  48.943  1.00  0.00    -0.062 N 
HETATM   16  C   UNL     1      23.132  47.174  48.430  1.00  0.00     0.249 C 
HETATM   17  C   UNL     1      22.722  48.573  48.885  1.00  0.00     0.111 C 
HETATM   18  C   UNL     1      21.293  48.893  48.438  1.00  0.00     0.018 C 
HETATM   19  C   UNL     1      20.306  47.813  48.880  1.00  0.00     0.029 C 
HETATM   20  C   UNL     1      20.737  46.417  48.443  1.00  0.00     0.235 C 
HETATM   21  H   UNL     1      22.128  46.269  49.977  1.00  0.00     0.280 HD
BRANCH  17  22
HETATM   22  C   UNL     1      23.714  49.562  48.312  1.00  0.00     0.264 C 
HETATM   23  O   UNL     1      23.524  50.188  47.279  1.00  0.00    -0.265 OA
BRANCH  22  24
HETATM   24  O   UNL     1      24.824  49.623  49.090  1.00  0.00    -0.322 OA
BRANCH  24  25
HETATM   25  C   UNL     1      26.084  49.672  48.400  1.00  0.00     0.174 C 
HETATM   26  C   UNL     1      27.107  48.824  49.132  1.00  0.00     0.034 C 
ENDBRANCH  24  25
ENDBRANCH  22  24
ENDBRANCH  17  22
ENDBRANCH  14  15
ENDBRANCH  11  14
ENDBRANCH   1  10
BRANCH   9  27
HETATM   27  C   UNL     1      26.436  42.178  50.367  1.00  0.00     0.259 C 
HETATM   28  N   UNL     1      27.594  41.880  49.678  1.00  0.00    -0.323 N 
HETATM   29  H   UNL     1      28.357  42.528  49.769  1.00  0.00     0.169 HD
HETATM   30  O   UNL     1      25.384  41.544  50.278  1.00  0.00    -0.267 OA
BRANCH  28  31
HETATM   31  C   UNL     1      27.853  40.790  48.822  1.00  0.00     0.035 A 
HETATM   32  C   UNL     1      27.681  40.814  47.437  1.00  0.00     0.031 A 
HETATM   33  C   UNL     1      27.967  39.678  46.668  1.00  0.00     0.026 A 
HETATM   34  C   UNL     1      28.415  38.511  47.282  1.00  0.00     0.034 A 
HETATM   35 CL   UNL     1      28.758  37.118  46.335  1.00  0.00    -0.084 Cl
HETATM   36  C   UNL     1      28.584  38.470  48.662  1.00  0.00     0.026 A 
HETATM   37  C   UNL     1      28.309  39.608  49.427  1.00  0.00     0.031 A 
ENDBRANCH  28  31
ENDBRANCH   9  27
TORSDOF 8
ENDMDL
MODEL 6
REMARK VINA RESULT:      -8.8      3.367      6.005
REMARK  8 active torsions:
REMARK  status: ('A' for Active; 'I' for Inactive)
REMARK    1  A    between atoms: C_2  and  O_3 
REMARK    2  A    between atoms: O_3  and  C_4 
REMARK    3  A    between atoms: C_4  and  C_5 
REMARK    4  A    between atoms: N_7  and  C_9 
REMARK    5  A    between atoms: C_9  and  C_10 
REMARK       I    between atoms: C_10  and  N_11 
REMARK    6  A    between atoms: N_11  and  C_12 
REMARK    7  A    between atoms: C_20  and  C_21 
REMARK       I    between atoms: C_21  and  N_22 
REMARK    8  A    between atoms: N_22  and  C_23 
ROOT
HETATM    1  C   UNL     1      25.526  45.622  51.129  1.00  0.00     0.093 C 
HETATM    2  S   UNL     1      25.316  46.967  52.140  1.00  0.00    -0.075 SA
HETATM    3  C   UNL     1      26.469  46.401  53.236  1.00  0.00    -0.008 C 
HETATM    4  C   UNL     1      27.045  45.202  52.847  1.00  0.00    -0.026 C 
HETATM    5  C   UNL     1      28.038  44.526  53.760  1.00  0.00     0.041 C 
HETATM    6  C   UNL     1      27.990  45.068  55.196  1.00  0.00     0.005 C 
HETATM    7  C   UNL     1      27.982  46.599  55.212  1.00  0.00     0.005 C 
HETATM    8  C   UNL     1      26.738  47.149  54.510  1.00  0.00     0.047 C 
HETATM    9  C   UNL     1      26.563  44.780  51.534  1.00  0.00     0.073 C 
ENDROOT
BRANCH   1  10
HETATM   10  N   UNL     1      24.759  45.511  49.973  1.00  0.00    -0.319 N 
HETATM   11  C   UNL     1      23.629  44.734  49.866  1.00  0.00     0.248 C 
HETATM   12  O   UNL     1      23.193  43.916  50.681  1.00  0.00    -0.271 OA
HETATM   13  H   UNL     1      25.252  45.797  49.124  1.00  0.00     0.169 HD
BRANCH  11  14
HETATM   14  C   UNL     1      22.839  44.907  48.567  1.00  0.00     0.337 C 
BRANCH  14  15
HETATM   15  N   UNL     1      21.801  46.026  48.771  1.00  0.00    -0.062 N 
HETATM   16  C   UNL     1      22.208  47.320  48.088  1.00  0.00     0.249 C 
HETATM   17  C   UNL     1      21.292  48.449  48.557  1.00  0.00     0.111 C 
HETATM   18  C   UNL     1      19.823  48.094  48.312  1.00  0.00     0.018 C 
HETATM   19  C   UNL     1      19.457  46.741  48.922  1.00  0.00     0.029 C 
HETATM   20  C   UNL     1      20.392  45.626  48.467  1.00  0.00     0.235 C 
HETATM   21  H   UNL     1      21.882  46.215  49.789  1.00  0.00     0.280 HD
BRANCH  17  22
HETATM   22  C   UNL     1      21.685  49.710  47.820  1.00  0.00     0.264 C 
HETATM   23  O   UNL     1      22.821  49.936  47.427  1.00  0.00    -0.265 OA
BRANCH  22  24
HETATM   24  O   UNL     1      20.616  50.536  47.691  1.00  0.00    -0.322 OA
BRANCH  24  25
HETATM   25  C   UNL     1      20.551  51.642  48.608  1.00  0.00     0.174 C 
HETATM   26  C   UNL     1      19.219  52.353  48.463  1.00  0.00     0.034 C 
ENDBRANCH  24  25
ENDBRANCH  22  24
ENDBRANCH  17  22
ENDBRANCH  14  15
ENDBRANCH  11  14
ENDBRANCH   1  10
BRANCH   9  27
HETATM   27  C   UNL     1      26.951  43.627  50.682  1.00  0.00     0.259 C 
HETATM   28  N   UNL     1      26.936  42.393  51.299  1.00  0.00    -0.323 N 
HETATM   29  H   UNL     1      26.726  42.377  52.281  1.00  0.00     0.169 HD
HETATM   30  O   UNL     1      27.290  43.825  49.514  1.00  0.00    -0.267 OA
BRANCH  28  31
HETATM   31  C   UNL     1      27.210  41.127  50.740  1.00  0.00     0.035 A 
HETATM   32  C   UNL     1      28.422  40.449  50.874  1.00  0.00     0.031 A 
HETATM   33  C   UNL     1      28.600  39.191  50.282  1.00  0.00     0.026 A 
HETATM   34  C   UNL     1      27.569  38.613  49.546  1.00  0.00     0.034 A 
HETATM   35 CL   UNL     1      27.794  37.072  48.817  1.00  0.00    -0.084 Cl
HETATM   36  C   UNL     1      26.358  39.279  49.398  1.00  0.00     0.026 A 
HETATM   37  C   UNL     1      26.178  40.530  49.998  1.00  0.00     0.031 A 
ENDBRANCH  28  31
ENDBRANCH   9  27
TORSDOF 8
ENDMDL
MODEL 7
REMARK VINA RESULT:      -8.8      2.250      2.753
REMARK  8 active torsions:
REMARK  status: ('A' for Active; 'I' for Inactive)
REMARK    1  A    between atoms: C_2  and  O_3 
REMARK    2  A    between atoms: O_3  and  C_4 
REMARK    3  A    between atoms: C_4  and  C_5 
REMARK    4  A    between atoms: N_7  and  C_9 
REMARK    5  A    between atoms: C_9  and  C_10 
REMARK       I    between atoms: C_10  and  N_11 
REMARK    6  A    between atoms: N_11  and  C_12 
REMARK    7  A    between atoms: C_20  and  C_21 
REMARK       I    between atoms: C_21  and  N_22 
REMARK    8  A    between atoms: N_22  and  C_23 
ROOT
HETATM    1  C   UNL     1      26.925  42.590  50.911  1.00  0.00     0.093 C 
HETATM    2  S   UNL     1      26.547  41.871  49.423  1.00  0.00    -0.075 SA
HETATM    3  C   UNL     1      27.535  40.541  49.744  1.00  0.00    -0.008 C 
HETATM    4  C   UNL     1      28.148  40.607  50.986  1.00  0.00    -0.026 C 
HETATM    5  C   UNL     1      29.126  39.531  51.389  1.00  0.00     0.041 C 
HETATM    6  C   UNL     1      29.614  38.694  50.198  1.00  0.00     0.005 C 
HETATM    7  C   UNL     1      28.444  38.256  49.311  1.00  0.00     0.005 C 
HETATM    8  C   UNL     1      27.726  39.468  48.712  1.00  0.00     0.047 C 
HETATM    9  C   UNL     1      27.707  41.781  51.737  1.00  0.00     0.073 C 
ENDROOT
BRANCH   1  10
HETATM   10  N   UNL     1      26.376  43.830  51.228  1.00  0.00    -0.319 N 
HETATM   11  C   UNL     1      26.579  44.976  50.497  1.00  0.00     0.248 C 
HETATM   12  O   UNL     1      27.365  45.148  49.561  1.00  0.00    -0.271 OA
HETATM   13  H   UNL     1      26.065  43.904  52.201  1.00  0.00     0.169 HD
BRANCH  11  14
HETATM   14  C   UNL     1      25.731  46.179  50.920  1.00  0.00     0.337 C 
BRANCH  14  15
HETATM   15  N   UNL     1      24.695  46.458  49.816  1.00  0.00    -0.062 N 
HETATM   16  C   UNL     1      23.630  45.380  49.739  1.00  0.00     0.249 C 
HETATM   17  C   UNL     1      22.811  45.567  48.463  1.00  0.00     0.111 C 
HETATM   18  C   UNL     1      22.221  46.978  48.399  1.00  0.00     0.018 C 
HETATM   19  C   UNL     1      23.296  48.050  48.577  1.00  0.00     0.029 C 
HETATM   20  C   UNL     1      24.123  47.840  49.840  1.00  0.00     0.235 C 
HETATM   21  H   UNL     1      25.262  46.347  48.953  1.00  0.00     0.280 HD
BRANCH  17  22
HETATM   22  C   UNL     1      21.725  44.513  48.443  1.00  0.00     0.264 C 
HETATM   23  O   UNL     1      21.883  43.390  47.986  1.00  0.00    -0.265 OA
BRANCH  22  24
HETATM   24  O   UNL     1      20.577  45.007  48.971  1.00  0.00    -0.322 OA
BRANCH  24  25
HETATM   25  C   UNL     1      19.406  44.925  48.141  1.00  0.00     0.174 C 
HETATM   26  C   UNL     1      18.647  46.238  48.188  1.00  0.00     0.034 C 
ENDBRANCH  24  25
ENDBRANCH  22  24
ENDBRANCH  17  22
ENDBRANCH  14  15
ENDBRANCH  11  14
ENDBRANCH   1  10
BRANCH   9  27
HETATM   27  C   UNL     1      28.016  42.221  53.121  1.00  0.00     0.259 C 
HETATM   28  N   UNL     1      28.978  43.203  53.237  1.00  0.00    -0.323 N 
HETATM   29  H   UNL     1      29.434  43.498  52.392  1.00  0.00     0.169 HD
HETATM   30  O   UNL     1      27.444  41.682  54.069  1.00  0.00    -0.267 OA
BRANCH  28  31
HETATM   31  C   UNL     1      29.444  43.844  54.404  1.00  0.00     0.035 A 
HETATM   32  C   UNL     1      30.552  43.430  55.145  1.00  0.00     0.031 A 
HETATM   33  C   UNL     1      30.940  44.134  56.293  1.00  0.00     0.026 A 
HETATM   34  C   UNL     1      30.215  45.247  56.710  1.00  0.00     0.034 A 
HETATM   35 CL   UNL     1      30.690  46.103  58.123  1.00  0.00    -0.084 Cl
HETATM   36  C   UNL     1      29.103  45.667  55.987  1.00  0.00     0.026 A 
HETATM   37  C   UNL     1      28.724  44.970  54.836  1.00  0.00     0.031 A 
ENDBRANCH  28  31
ENDBRANCH   9  27
TORSDOF 8
ENDMDL
MODEL 8
REMARK VINA RESULT:      -8.7      1.918      2.652
REMARK  8 active torsions:
REMARK  status: ('A' for Active; 'I' for Inactive)
REMARK    1  A    between atoms: C_2  and  O_3 
REMARK    2  A    between atoms: O_3  and  C_4 
REMARK    3  A    between atoms: C_4  and  C_5 
REMARK    4  A    between atoms: N_7  and  C_9 
REMARK    5  A    between atoms: C_9  and  C_10 
REMARK       I    between atoms: C_10  and  N_11 
REMARK    6  A    between atoms: N_11  and  C_12 
REMARK    7  A    between atoms: C_20  and  C_21 
REMARK       I    between atoms: C_21  and  N_22 
REMARK    8  A    between atoms: N_22  and  C_23 
ROOT
HETATM    1  C   UNL     1      25.436  43.885  50.583  1.00  0.00     0.093 C 
HETATM    2  S   UNL     1      25.044  42.984  49.201  1.00  0.00    -0.075 SA
HETATM    3  C   UNL     1      26.047  41.710  49.673  1.00  0.00    -0.008 C 
HETATM    4  C   UNL     1      26.675  41.934  50.888  1.00  0.00    -0.026 C 
HETATM    5  C   UNL     1      27.666  40.923  51.409  1.00  0.00     0.041 C 
HETATM    6  C   UNL     1      28.145  39.946  50.325  1.00  0.00     0.005 C 
HETATM    7  C   UNL     1      26.967  39.394  49.516  1.00  0.00     0.005 C 
HETATM    8  C   UNL     1      26.233  40.518  48.780  1.00  0.00     0.047 C 
HETATM    9  C   UNL     1      26.235  43.190  51.493  1.00  0.00     0.073 C 
ENDROOT
BRANCH   1  10
HETATM   10  N   UNL     1      24.882  45.151  50.751  1.00  0.00    -0.319 N 
HETATM   11  C   UNL     1      25.286  46.270  50.062  1.00  0.00     0.248 C 
HETATM   12  O   UNL     1      26.263  46.390  49.316  1.00  0.00    -0.271 OA
HETATM   13  H   UNL     1      24.371  45.262  51.630  1.00  0.00     0.169 HD
BRANCH  11  14
HETATM   14  C   UNL     1      24.415  47.513  50.267  1.00  0.00     0.337 C 
BRANCH  14  15
HETATM   15  N   UNL     1      23.054  47.274  49.589  1.00  0.00    -0.062 N 
HETATM   16  C   UNL     1      22.488  48.541  48.972  1.00  0.00     0.249 C 
HETATM   17  C   UNL     1      21.034  48.303  48.570  1.00  0.00     0.111 C 
HETATM   18  C   UNL     1      20.920  47.095  47.636  1.00  0.00     0.018 C 
HETATM   19  C   UNL     1      21.583  45.853  48.232  1.00  0.00     0.029 C 
HETATM   20  C   UNL     1      23.025  46.108  48.652  1.00  0.00     0.235 C 
HETATM   21  H   UNL     1      22.440  47.065  50.400  1.00  0.00     0.280 HD
BRANCH  17  22
HETATM   22  C   UNL     1      20.516  49.562  47.910  1.00  0.00     0.264 C 
HETATM   23  O   UNL     1      19.739  49.559  46.966  1.00  0.00    -0.265 OA
BRANCH  22  24
HETATM   24  O   UNL     1      21.055  50.659  48.497  1.00  0.00    -0.322 OA
BRANCH  24  25
HETATM   25  C   UNL     1      20.181  51.790  48.660  1.00  0.00     0.174 C 
HETATM   26  C   UNL     1      19.263  51.565  49.847  1.00  0.00     0.034 C 
ENDBRANCH  24  25
ENDBRANCH  22  24
ENDBRANCH  17  22
ENDBRANCH  14  15
ENDBRANCH  11  14
ENDBRANCH   1  10
BRANCH   9  27
HETATM   27  C   UNL     1      26.558  43.801  52.806  1.00  0.00     0.259 C 
HETATM   28  N   UNL     1      27.901  43.956  53.082  1.00  0.00    -0.323 N 
HETATM   29  H   UNL     1      28.550  43.591  52.407  1.00  0.00     0.169 HD
HETATM   30  O   UNL     1      25.645  44.099  53.577  1.00  0.00    -0.267 OA
BRANCH  28  31
HETATM   31  C   UNL     1      28.506  44.539  54.215  1.00  0.00     0.035 A 
HETATM   32  C   UNL     1      28.082  45.725  54.816  1.00  0.00     0.031 A 
HETATM   33  C   UNL     1      28.747  46.225  55.944  1.00  0.00     0.026 A 
HETATM   34  C   UNL     1      29.845  45.546  56.467  1.00  0.00     0.034 A 
HETATM   35 CL   UNL     1      30.662  46.167  57.846  1.00  0.00    -0.084 Cl
HETATM   36  C   UNL     1      30.283  44.367  55.875  1.00  0.00     0.026 A 
HETATM   37  C   UNL     1      29.612  43.863  54.756  1.00  0.00     0.031 A 
ENDBRANCH  28  31
ENDBRANCH   9  27
TORSDOF 8
ENDMDL
MODEL 9
REMARK VINA RESULT:      -8.7      3.112      5.816
REMARK  8 active torsions:
REMARK  status: ('A' for Active; 'I' for Inactive)
REMARK    1  A    between atoms: C_2  and  O_3 
REMARK    2  A    between atoms: O_3  and  C_4 
REMARK    3  A    between atoms: C_4  and  C_5 
REMARK    4  A    between atoms: N_7  and  C_9 
REMARK    5  A    between atoms: C_9  and  C_10 
REMARK       I    between atoms: C_10  and  N_11 
REMARK    6  A    between atoms: N_11  and  C_12 
REMARK    7  A    between atoms: C_20  and  C_21 
REMARK       I    between atoms: C_21  and  N_22 
REMARK    8  A    between atoms: N_22  and  C_23 
ROOT
HETATM    1  C   UNL     1      26.777  43.955  53.408  1.00  0.00     0.093 C 
HETATM    2  S   UNL     1      26.993  45.466  54.147  1.00  0.00    -0.075 SA
HETATM    3  C   UNL     1      28.481  45.004  54.798  1.00  0.00    -0.008 C 
HETATM    4  C   UNL     1      28.849  43.714  54.451  1.00  0.00    -0.026 C 
HETATM    5  C   UNL     1      30.116  43.125  55.018  1.00  0.00     0.041 C 
HETATM    6  C   UNL     1      30.644  43.907  56.231  1.00  0.00     0.005 C 
HETATM    7  C   UNL     1      30.653  45.414  55.958  1.00  0.00     0.005 C 
HETATM    8  C   UNL     1      29.237  45.934  55.702  1.00  0.00     0.047 C 
HETATM    9  C   UNL     1      27.884  43.113  53.531  1.00  0.00     0.073 C 
ENDROOT
BRANCH   1  10
HETATM   10  N   UNL     1      25.615  43.711  52.683  1.00  0.00    -0.319 N 
HETATM   11  C   UNL     1      25.529  43.779  51.312  1.00  0.00     0.248 C 
HETATM   12  O   UNL     1      26.380  44.194  50.520  1.00  0.00    -0.271 OA
HETATM   13  H   UNL     1      24.760  43.778  53.242  1.00  0.00     0.169 HD
BRANCH  11  14
HETATM   14  C   UNL     1      24.207  43.290  50.715  1.00  0.00     0.337 C 
BRANCH  14  15
HETATM   15  N   UNL     1      23.449  44.503  50.147  1.00  0.00    -0.062 N 
HETATM   16  C   UNL     1      24.364  45.689  49.897  1.00  0.00     0.249 C 
HETATM   17  C   UNL     1      23.520  46.928  49.606  1.00  0.00     0.111 C 
HETATM   18  C   UNL     1      22.563  46.671  48.439  1.00  0.00     0.018 C 
HETATM   19  C   UNL     1      21.719  45.417  48.664  1.00  0.00     0.029 C 
HETATM   20  C   UNL     1      22.569  44.192  48.978  1.00  0.00     0.235 C 
HETATM   21  H   UNL     1      22.850  44.782  50.949  1.00  0.00     0.280 HD
BRANCH  17  22
HETATM   22  C   UNL     1      24.458  48.077  49.309  1.00  0.00     0.264 C 
HETATM   23  O   UNL     1      25.448  48.331  49.979  1.00  0.00    -0.265 OA
BRANCH  22  24
HETATM   24  O   UNL     1      24.023  48.774  48.229  1.00  0.00    -0.322 OA
BRANCH  24  25
HETATM   25  C   UNL     1      24.193  50.201  48.282  1.00  0.00     0.174 C 
HETATM   26  C   UNL     1      22.845  50.886  48.151  1.00  0.00     0.034 C 
ENDBRANCH  24  25
ENDBRANCH  22  24
ENDBRANCH  17  22
ENDBRANCH  14  15
ENDBRANCH  11  14
ENDBRANCH   1  10
BRANCH   9  27
HETATM   27  C   UNL     1      27.896  41.804  52.831  1.00  0.00     0.259 C 
HETATM   28  N   UNL     1      28.194  41.847  51.484  1.00  0.00    -0.323 N 
HETATM   29  H   UNL     1      28.317  42.755  51.073  1.00  0.00     0.169 HD
HETATM   30  O   UNL     1      27.614  40.780  53.456  1.00  0.00    -0.267 OA
BRANCH  28  31
HETATM   31  C   UNL     1      28.320  40.774  50.577  1.00  0.00     0.035 A 
HETATM   32  C   UNL     1      28.940  39.558  50.871  1.00  0.00     0.031 A 
HETATM   33  C   UNL     1      29.016  38.549  49.901  1.00  0.00     0.026 A 
HETATM   34  C   UNL     1      28.482  38.757  48.632  1.00  0.00     0.034 A 
HETATM   35 CL   UNL     1      28.584  37.519  47.444  1.00  0.00    -0.084 Cl
HETATM   36  C   UNL     1      27.868  39.966  48.322  1.00  0.00     0.026 A 
HETATM   37  C   UNL     1      27.784  40.968  49.294  1.00  0.00     0.031 A 
ENDBRANCH  28  31
ENDBRANCH   9  27
TORSDOF 8
ENDMDL
MODEL 10
REMARK VINA RESULT:      -8.6      3.837      8.752
REMARK  8 active torsions:
REMARK  status: ('A' for Active; 'I' for Inactive)
REMARK    1  A    between atoms: C_2  and  O_3 
REMARK    2  A    between atoms: O_3  and  C_4 
REMARK    3  A    between atoms: C_4  and  C_5 
REMARK    4  A    between atoms: N_7  and  C_9 
REMARK    5  A    between atoms: C_9  and  C_10 
REMARK       I    between atoms: C_10  and  N_11 
REMARK    6  A    between atoms: N_11  and  C_12 
REMARK    7  A    between atoms: C_20  and  C_21 
REMARK       I    between atoms: C_21  and  N_22 
REMARK    8  A    between atoms: N_22  and  C_23 
ROOT
HETATM    1  C   UNL     1      27.462  42.477  53.114  1.00  0.00     0.093 C 
HETATM    2  S   UNL     1      28.791  41.951  54.026  1.00  0.00    -0.075 SA
HETATM    3  C   UNL     1      29.036  43.491  54.672  1.00  0.00    -0.008 C 
HETATM    4  C   UNL     1      28.108  44.421  54.228  1.00  0.00    -0.026 C 
HETATM    5  C   UNL     1      28.239  45.862  54.654  1.00  0.00     0.041 C 
HETATM    6  C   UNL     1      29.628  46.190  55.222  1.00  0.00     0.005 C 
HETATM    7  C   UNL     1      30.076  45.135  56.237  1.00  0.00     0.005 C 
HETATM    8  C   UNL     1      30.201  43.758  55.580  1.00  0.00     0.047 C 
HETATM    9  C   UNL     1      27.096  43.799  53.375  1.00  0.00     0.073 C 
ENDROOT
BRANCH   1  10
HETATM   10  N   UNL     1      26.801  41.573  52.287  1.00  0.00    -0.319 N 
HETATM   11  C   UNL     1      26.886  41.575  50.914  1.00  0.00     0.248 C 
HETATM   12  O   UNL     1      27.413  42.424  50.189  1.00  0.00    -0.271 OA
HETATM   13  H   UNL     1      26.012  41.104  52.739  1.00  0.00     0.169 HD
BRANCH  11  14
HETATM   14  C   UNL     1      26.230  40.380  50.218  1.00  0.00     0.337 C 
BRANCH  14  15
HETATM   15  N   UNL     1      27.319  39.338  49.904  1.00  0.00    -0.062 N 
HETATM   16  C   UNL     1      27.469  39.095  48.413  1.00  0.00     0.249 C 
HETATM   17  C   UNL     1      28.351  37.869  48.186  1.00  0.00     0.111 C 
HETATM   18  C   UNL     1      29.700  38.032  48.892  1.00  0.00     0.018 C 
HETATM   19  C   UNL     1      29.528  38.374  50.372  1.00  0.00     0.029 C 
HETATM   20  C   UNL     1      28.626  39.584  50.588  1.00  0.00     0.235 C 
HETATM   21  H   UNL     1      26.903  38.466  50.284  1.00  0.00     0.280 HD
BRANCH  17  22
HETATM   22  C   UNL     1      28.527  37.685  46.695  1.00  0.00     0.264 C 
HETATM   23  O   UNL     1      29.235  36.820  46.200  1.00  0.00    -0.265 OA
BRANCH  22  24
HETATM   24  O   UNL     1      27.817  38.621  46.016  1.00  0.00    -0.322 OA
BRANCH  24  25
HETATM   25  C   UNL     1      28.343  39.017  44.738  1.00  0.00     0.174 C 
HETATM   26  C   UNL     1      28.284  40.527  44.601  1.00  0.00     0.034 C 
ENDBRANCH  24  25
ENDBRANCH  22  24
ENDBRANCH  17  22
ENDBRANCH  14  15
ENDBRANCH  11  14
ENDBRANCH   1  10
BRANCH   9  27
HETATM   27  C   UNL     1      25.876  44.364  52.747  1.00  0.00     0.259 C 
HETATM   28  N   UNL     1      26.074  45.062  51.573  1.00  0.00    -0.323 N 
HETATM   29  H   UNL     1      27.024  45.185  51.270  1.00  0.00     0.169 HD
HETATM   30  O   UNL     1      24.786  44.219  53.302  1.00  0.00    -0.267 OA
BRANCH  28  31
HETATM   31  C   UNL     1      25.112  45.667  50.737  1.00  0.00     0.035 A 
HETATM   32  C   UNL     1      24.242  44.969  49.897  1.00  0.00     0.031 A 
HETATM   33  C   UNL     1      23.318  45.660  49.103  1.00  0.00     0.026 A 
HETATM   34  C   UNL     1      23.268  47.051  49.136  1.00  0.00     0.034 A 
HETATM   35 CL   UNL     1      22.137  47.895  48.154  1.00  0.00    -0.084 Cl
HETATM   36  C   UNL     1      24.134  47.761  49.962  1.00  0.00     0.026 A 
HETATM   37  C   UNL     1      25.048  47.070  50.762  1.00  0.00     0.031 A 
ENDBRANCH  28  31
ENDBRANCH   9  27
TORSDOF 8
ENDMDL
