MODEL 1
REMARK VINA RESULT:      -8.3      0.000      0.000
REMARK  6 active torsions:
REMARK  status: ('A' for Active; 'I' for Inactive)
REMARK    1  A    between atoms: C_2  and  N_3 
REMARK    2  A    between atoms: C_2  and  C_17 
REMARK       I    between atoms: N_3  and  C_4 
REMARK    3  A    between atoms: C_4  and  C_5 
REMARK    4  A    between atoms: C_6  and  O_7 
REMARK    5  A    between atoms: O_7  and  C_8 
REMARK    6  A    between atoms: C_8  and  C_9 
ROOT
HETATM    1  N   UNL     1      26.782  45.709  53.449  1.00  0.00    -0.346 N 
HETATM    2  C   UNL     1      26.258  45.909  52.192  1.00  0.00     0.256 C 
HETATM    3  O   UNL     1      26.305  46.986  51.612  1.00  0.00    -0.267 OA
HETATM    4  H   UNL     1      26.724  44.810  53.912  1.00  0.00     0.163 HD
ENDROOT
BRANCH   1   5
HETATM    5  C   UNL     1      27.345  46.802  54.218  1.00  0.00     0.150 C 
HETATM    6  C   UNL     1      26.255  47.549  54.980  1.00  0.00     0.040 C 
BRANCH   5   7
HETATM    7  C   UNL     1      28.352  46.205  55.150  1.00  0.00     0.127 A 
HETATM    8  N   UNL     1      28.606  46.570  56.393  1.00  0.00    -0.231 NA
HETATM    9  C   UNL     1      29.598  45.727  56.830  1.00  0.00     0.085 A 
HETATM   10  C   UNL     1      29.934  44.802  55.847  1.00  0.00     0.062 A 
HETATM   11  C   UNL     1      30.265  45.687  58.063  1.00  0.00     0.034 A 
HETATM   12  N   UNL     1      29.121  45.123  54.792  1.00  0.00    -0.341 N 
HETATM   13  C   UNL     1      30.904  43.813  56.022  1.00  0.00     0.032 A 
HETATM   14  H   UNL     1      29.087  44.644  53.903  1.00  0.00     0.167 HD
HETATM   15  C   UNL     1      31.558  43.788  57.259  1.00  0.00     0.002 A 
HETATM   16  C   UNL     1      31.249  44.709  58.263  1.00  0.00     0.002 A 
ENDBRANCH   5   7
ENDBRANCH   1   5
BRANCH   2  17
HETATM   17  C   UNL     1      25.604  44.735  51.574  1.00  0.00     0.084 A 
HETATM   18  C   UNL     1      26.260  43.511  51.477  1.00  0.00     0.180 A 
HETATM   19  N   UNL     1      25.701  42.415  50.903  1.00  0.00    -0.236 NA
HETATM   20  C   UNL     1      24.461  42.554  50.384  1.00  0.00     0.119 A 
HETATM   21  C   UNL     1      23.739  43.736  50.421  1.00  0.00     0.020 A 
HETATM   22  C   UNL     1      24.321  44.845  51.026  1.00  0.00     0.023 A 
BRANCH  18  23
HETATM   23  O   UNL     1      27.497  43.371  52.067  1.00  0.00    -0.328 OA
BRANCH  23  24
HETATM   24  C   UNL     1      28.123  42.110  51.793  1.00  0.00     0.248 C 
BRANCH  24  25
HETATM   25  C   UNL     1      29.228  41.876  52.809  1.00  0.00     0.377 C 
HETATM   26  F   UNL     1      30.178  42.840  52.683  1.00  0.00    -0.212 F 
HETATM   27  F   UNL     1      28.736  41.989  54.070  1.00  0.00    -0.212 F 
ENDBRANCH  24  25
ENDBRANCH  23  24
ENDBRANCH  18  23
ENDBRANCH   2  17
TORSDOF 6
ENDMDL
MODEL 2
REMARK VINA RESULT:      -8.2      2.520      4.103
REMARK  6 active torsions:
REMARK  status: ('A' for Active; 'I' for Inactive)
REMARK    1  A    between atoms: C_2  and  N_3 
REMARK    2  A    between atoms: C_2  and  C_17 
REMARK       I    between atoms: N_3  and  C_4 
REMARK    3  A    between atoms: C_4  and  C_5 
REMARK    4  A    between atoms: C_6  and  O_7 
REMARK    5  A    between atoms: O_7  and  C_8 
REMARK    6  A    between atoms: C_8  and  C_9 
ROOT
HETATM    1  N   UNL     1      26.799  43.985  51.825  1.00  0.00    -0.346 N 
HETATM    2  C   UNL     1      25.469  44.320  51.939  1.00  0.00     0.256 C 
HETATM    3  O   UNL     1      24.676  43.685  52.624  1.00  0.00    -0.267 OA
HETATM    4  H   UNL     1      27.434  44.522  51.246  1.00  0.00     0.163 HD
ENDROOT
BRANCH   1   5
HETATM    5  C   UNL     1      27.334  42.787  52.440  1.00  0.00     0.150 C 
HETATM    6  C   UNL     1      28.061  41.926  51.411  1.00  0.00     0.040 C 
BRANCH   5   7
HETATM    7  C   UNL     1      28.258  43.231  53.530  1.00  0.00     0.127 A 
HETATM    8  N   UNL     1      29.246  42.542  54.071  1.00  0.00    -0.231 NA
HETATM    9  C   UNL     1      29.799  43.372  55.016  1.00  0.00     0.085 A 
HETATM   10  C   UNL     1      29.161  44.607  55.030  1.00  0.00     0.062 A 
HETATM   11  C   UNL     1      30.857  43.139  55.906  1.00  0.00     0.034 A 
HETATM   12  N   UNL     1      28.190  44.495  54.069  1.00  0.00    -0.341 N 
HETATM   13  C   UNL     1      29.525  45.651  55.883  1.00  0.00     0.032 A 
HETATM   14  H   UNL     1      27.537  45.216  53.798  1.00  0.00     0.167 HD
HETATM   15  C   UNL     1      30.584  45.401  56.762  1.00  0.00     0.002 A 
HETATM   16  C   UNL     1      31.239  44.168  56.779  1.00  0.00     0.002 A 
ENDBRANCH   5   7
ENDBRANCH   1   5
BRANCH   2  17
HETATM   17  C   UNL     1      25.033  45.498  51.159  1.00  0.00     0.084 A 
HETATM   18  C   UNL     1      25.417  46.787  51.522  1.00  0.00     0.180 A 
HETATM   19  N   UNL     1      25.025  47.895  50.843  1.00  0.00    -0.236 NA
HETATM   20  C   UNL     1      24.202  47.714  49.787  1.00  0.00     0.119 A 
HETATM   21  C   UNL     1      23.756  46.473  49.363  1.00  0.00     0.020 A 
HETATM   22  C   UNL     1      24.179  45.346  50.061  1.00  0.00     0.023 A 
BRANCH  18  23
HETATM   23  O   UNL     1      26.307  46.947  52.562  1.00  0.00    -0.328 OA
BRANCH  23  24
HETATM   24  C   UNL     1      25.674  47.194  53.824  1.00  0.00     0.248 C 
BRANCH  24  25
HETATM   25  C   UNL     1      26.718  47.678  54.815  1.00  0.00     0.377 C 
HETATM   26  F   UNL     1      27.894  47.901  54.170  1.00  0.00    -0.212 F 
HETATM   27  F   UNL     1      26.344  48.871  55.346  1.00  0.00    -0.212 F 
ENDBRANCH  24  25
ENDBRANCH  23  24
ENDBRANCH  18  23
ENDBRANCH   2  17
TORSDOF 6
ENDMDL
MODEL 3
REMARK VINA RESULT:      -8.0      4.548      6.163
REMARK  6 active torsions:
REMARK  status: ('A' for Active; 'I' for Inactive)
REMARK    1  A    between atoms: C_2  and  N_3 
REMARK    2  A    between atoms: C_2  and  C_17 
REMARK       I    between atoms: N_3  and  C_4 
REMARK    3  A    between atoms: C_4  and  C_5 
REMARK    4  A    between atoms: C_6  and  O_7 
REMARK    5  A    between atoms: O_7  and  C_8 
REMARK    6  A    between atoms: C_8  and  C_9 
ROOT
HETATM    1  N   UNL     1      25.958  45.748  50.876  1.00  0.00    -0.346 N 
HETATM    2  C   UNL     1      25.723  47.062  51.211  1.00  0.00     0.256 C 
HETATM    3  O   UNL     1      25.315  47.409  52.312  1.00  0.00    -0.267 OA
HETATM    4  H   UNL     1      26.289  45.485  49.955  1.00  0.00     0.163 HD
ENDROOT
BRANCH   1   5
HETATM    5  C   UNL     1      25.641  44.665  51.787  1.00  0.00     0.150 C 
HETATM    6  C   UNL     1      25.204  43.420  51.021  1.00  0.00     0.040 C 
BRANCH   5   7
HETATM    7  C   UNL     1      26.871  44.403  52.599  1.00  0.00     0.127 A 
HETATM    8  N   UNL     1      27.838  43.546  52.330  1.00  0.00    -0.231 NA
HETATM    9  C   UNL     1      28.739  43.674  53.359  1.00  0.00     0.085 A 
HETATM   10  C   UNL     1      28.335  44.656  54.256  1.00  0.00     0.062 A 
HETATM   11  C   UNL     1      29.937  42.983  53.595  1.00  0.00     0.034 A 
HETATM   12  N   UNL     1      27.147  45.110  53.745  1.00  0.00    -0.341 N 
HETATM   13  C   UNL     1      29.068  45.009  55.390  1.00  0.00     0.032 A 
HETATM   14  H   UNL     1      26.574  45.842  54.139  1.00  0.00     0.167 HD
HETATM   15  C   UNL     1      30.261  44.311  55.609  1.00  0.00     0.002 A 
HETATM   16  C   UNL     1      30.689  43.312  54.731  1.00  0.00     0.002 A 
ENDBRANCH   5   7
ENDBRANCH   1   5
BRANCH   2  17
HETATM   17  C   UNL     1      25.976  48.052  50.142  1.00  0.00     0.084 A 
HETATM   18  C   UNL     1      24.927  48.648  49.446  1.00  0.00     0.180 A 
HETATM   19  N   UNL     1      25.117  49.549  48.449  1.00  0.00    -0.236 NA
HETATM   20  C   UNL     1      26.394  49.843  48.117  1.00  0.00     0.119 A 
HETATM   21  C   UNL     1      27.499  49.289  48.743  1.00  0.00     0.020 A 
HETATM   22  C   UNL     1      27.286  48.379  49.773  1.00  0.00     0.023 A 
BRANCH  18  23
HETATM   23  O   UNL     1      23.633  48.384  49.840  1.00  0.00    -0.328 OA
BRANCH  23  24
HETATM   24  C   UNL     1      22.684  48.445  48.767  1.00  0.00     0.248 C 
BRANCH  24  25
HETATM   25  C   UNL     1      21.787  49.654  48.970  1.00  0.00     0.377 C 
HETATM   26  F   UNL     1      22.168  50.325  50.089  1.00  0.00    -0.212 F 
HETATM   27  F   UNL     1      21.932  50.524  47.937  1.00  0.00    -0.212 F 
ENDBRANCH  24  25
ENDBRANCH  23  24
ENDBRANCH  18  23
ENDBRANCH   2  17
TORSDOF 6
ENDMDL
MODEL 4
REMARK VINA RESULT:      -8.0      2.463      7.203
REMARK  6 active torsions:
REMARK  status: ('A' for Active; 'I' for Inactive)
REMARK    1  A    between atoms: C_2  and  N_3 
REMARK    2  A    between atoms: C_2  and  C_17 
REMARK       I    between atoms: N_3  and  C_4 
REMARK    3  A    between atoms: C_4  and  C_5 
REMARK    4  A    between atoms: C_6  and  O_7 
REMARK    5  A    between atoms: O_7  and  C_8 
REMARK    6  A    between atoms: C_8  and  C_9 
ROOT
HETATM    1  N   UNL     1      28.682  43.220  53.918  1.00  0.00    -0.346 N 
HETATM    2  C   UNL     1      30.026  43.250  54.213  1.00  0.00     0.256 C 
HETATM    3  O   UNL     1      30.887  42.836  53.447  1.00  0.00    -0.267 OA
HETATM    4  H   UNL     1      27.987  43.562  54.571  1.00  0.00     0.163 HD
ENDROOT
BRANCH   1   5
HETATM    5  C   UNL     1      28.185  42.599  52.706  1.00  0.00     0.150 C 
HETATM    6  C   UNL     1      27.479  41.283  53.019  1.00  0.00     0.040 C 
BRANCH   5   7
HETATM    7  C   UNL     1      27.255  43.579  52.063  1.00  0.00     0.127 A 
HETATM    8  N   UNL     1      26.434  43.358  51.053  1.00  0.00    -0.231 NA
HETATM    9  C   UNL     1      25.792  44.552  50.831  1.00  0.00     0.085 A 
HETATM   10  C   UNL     1      26.201  45.514  51.747  1.00  0.00     0.062 A 
HETATM   11  C   UNL     1      24.839  44.892  49.861  1.00  0.00     0.034 A 
HETATM   12  N   UNL     1      27.126  44.868  52.525  1.00  0.00    -0.341 N 
HETATM   13  C   UNL     1      25.702  46.818  51.767  1.00  0.00     0.032 A 
HETATM   14  H   UNL     1      27.625  45.266  53.308  1.00  0.00     0.167 HD
HETATM   15  C   UNL     1      24.750  47.140  50.792  1.00  0.00     0.002 A 
HETATM   16  C   UNL     1      24.326  46.197  49.852  1.00  0.00     0.002 A 
ENDBRANCH   5   7
ENDBRANCH   1   5
BRANCH   2  17
HETATM   17  C   UNL     1      30.381  43.801  55.538  1.00  0.00     0.084 A 
HETATM   18  C   UNL     1      29.893  45.034  55.962  1.00  0.00     0.180 A 
HETATM   19  N   UNL     1      30.208  45.583  57.163  1.00  0.00    -0.236 NA
HETATM   20  C   UNL     1      31.059  44.891  57.953  1.00  0.00     0.119 A 
HETATM   21  C   UNL     1      31.606  43.666  57.609  1.00  0.00     0.020 A 
HETATM   22  C   UNL     1      31.261  43.112  56.380  1.00  0.00     0.023 A 
BRANCH  18  23
HETATM   23  O   UNL     1      28.978  45.695  55.171  1.00  0.00    -0.328 OA
BRANCH  23  24
HETATM   24  C   UNL     1      28.053  46.499  55.914  1.00  0.00     0.248 C 
BRANCH  24  25
HETATM   25  C   UNL     1      27.402  47.499  54.975  1.00  0.00     0.377 C 
HETATM   26  F   UNL     1      26.576  48.318  55.678  1.00  0.00    -0.212 F 
HETATM   27  F   UNL     1      28.346  48.300  54.415  1.00  0.00    -0.212 F 
ENDBRANCH  24  25
ENDBRANCH  23  24
ENDBRANCH  18  23
ENDBRANCH   2  17
TORSDOF 6
ENDMDL
MODEL 5
REMARK VINA RESULT:      -8.0      3.450      7.243
REMARK  6 active torsions:
REMARK  status: ('A' for Active; 'I' for Inactive)
REMARK    1  A    between atoms: C_2  and  N_3 
REMARK    2  A    between atoms: C_2  and  C_17 
REMARK       I    between atoms: N_3  and  C_4 
REMARK    3  A    between atoms: C_4  and  C_5 
REMARK    4  A    between atoms: C_6  and  O_7 
REMARK    5  A    between atoms: O_7  and  C_8 
REMARK    6  A    between atoms: C_8  and  C_9 
ROOT
HETATM    1  N   UNL     1      27.058  44.906  52.414  1.00  0.00    -0.346 N 
HETATM    2  C   UNL     1      27.583  43.769  52.986  1.00  0.00     0.256 C 
HETATM    3  O   UNL     1      27.217  42.640  52.685  1.00  0.00    -0.267 OA
HETATM    4  H   UNL     1      27.373  45.830  52.685  1.00  0.00     0.163 HD
ENDROOT
BRANCH   1   5
HETATM    5  C   UNL     1      25.955  44.843  51.476  1.00  0.00     0.150 C 
HETATM    6  C   UNL     1      24.628  44.666  52.208  1.00  0.00     0.040 C 
BRANCH   5   7
HETATM    7  C   UNL     1      25.979  46.115  50.688  1.00  0.00     0.127 A 
HETATM    8  N   UNL     1      27.040  46.733  50.201  1.00  0.00    -0.231 NA
HETATM    9  C   UNL     1      26.554  47.844  49.555  1.00  0.00     0.085 A 
HETATM   10  C   UNL     1      25.165  47.887  49.615  1.00  0.00     0.062 A 
HETATM   11  C   UNL     1      27.242  48.866  48.886  1.00  0.00     0.034 A 
HETATM   12  N   UNL     1      24.824  46.772  50.334  1.00  0.00    -0.341 N 
HETATM   13  C   UNL     1      24.402  48.899  49.030  1.00  0.00     0.032 A 
HETATM   14  H   UNL     1      23.886  46.477  50.563  1.00  0.00     0.167 HD
HETATM   15  C   UNL     1      25.106  49.911  48.366  1.00  0.00     0.002 A 
HETATM   16  C   UNL     1      26.501  49.899  48.296  1.00  0.00     0.002 A 
ENDBRANCH   5   7
ENDBRANCH   1   5
BRANCH   2  17
HETATM   17  C   UNL     1      28.619  43.988  54.019  1.00  0.00     0.084 A 
HETATM   18  C   UNL     1      28.550  45.069  54.893  1.00  0.00     0.180 A 
HETATM   19  N   UNL     1      29.488  45.314  55.844  1.00  0.00    -0.236 NA
HETATM   20  C   UNL     1      30.542  44.470  55.903  1.00  0.00     0.119 A 
HETATM   21  C   UNL     1      30.702  43.378  55.065  1.00  0.00     0.020 A 
HETATM   22  C   UNL     1      29.724  43.134  54.106  1.00  0.00     0.023 A 
BRANCH  18  23
HETATM   23  O   UNL     1      27.438  45.882  54.860  1.00  0.00    -0.328 OA
BRANCH  23  24
HETATM   24  C   UNL     1      27.717  47.248  55.191  1.00  0.00     0.248 C 
BRANCH  24  25
HETATM   25  C   UNL     1      26.405  47.999  55.336  1.00  0.00     0.377 C 
HETATM   26  F   UNL     1      26.652  49.300  55.641  1.00  0.00    -0.212 F 
HETATM   27  F   UNL     1      25.736  48.007  54.154  1.00  0.00    -0.212 F 
ENDBRANCH  24  25
ENDBRANCH  23  24
ENDBRANCH  18  23
ENDBRANCH   2  17
TORSDOF 6
ENDMDL
MODEL 6
REMARK VINA RESULT:      -7.8      5.206      8.907
REMARK  6 active torsions:
REMARK  status: ('A' for Active; 'I' for Inactive)
REMARK    1  A    between atoms: C_2  and  N_3 
REMARK    2  A    between atoms: C_2  and  C_17 
REMARK       I    between atoms: N_3  and  C_4 
REMARK    3  A    between atoms: C_4  and  C_5 
REMARK    4  A    between atoms: C_6  and  O_7 
REMARK    5  A    between atoms: O_7  and  C_8 
REMARK    6  A    between atoms: C_8  and  C_9 
ROOT
HETATM    1  N   UNL     1      23.443  47.033  49.999  1.00  0.00    -0.346 N 
HETATM    2  C   UNL     1      24.778  46.862  50.289  1.00  0.00     0.256 C 
HETATM    3  O   UNL     1      25.673  47.113  49.491  1.00  0.00    -0.267 OA
HETATM    4  H   UNL     1      22.721  46.812  50.674  1.00  0.00     0.163 HD
ENDROOT
BRANCH   1   5
HETATM    5  C   UNL     1      23.000  47.432  48.678  1.00  0.00     0.150 C 
HETATM    6  C   UNL     1      22.410  46.246  47.920  1.00  0.00     0.040 C 
BRANCH   5   7
HETATM    7  C   UNL     1      21.987  48.517  48.867  1.00  0.00     0.127 A 
HETATM    8  N   UNL     1      21.998  49.724  48.332  1.00  0.00    -0.231 NA
HETATM    9  C   UNL     1      20.864  50.344  48.797  1.00  0.00     0.085 A 
HETATM   10  C   UNL     1      20.123  49.488  49.603  1.00  0.00     0.062 A 
HETATM   11  C   UNL     1      20.395  51.646  48.569  1.00  0.00     0.034 A 
HETATM   12  N   UNL     1      20.855  48.329  49.626  1.00  0.00    -0.341 N 
HETATM   13  C   UNL     1      18.914  49.849  50.201  1.00  0.00     0.032 A 
HETATM   14  H   UNL     1      20.605  47.480  50.111  1.00  0.00     0.167 HD
HETATM   15  C   UNL     1      18.461  51.151  49.961  1.00  0.00     0.002 A 
HETATM   16  C   UNL     1      19.187  52.038  49.163  1.00  0.00     0.002 A 
ENDBRANCH   5   7
ENDBRANCH   1   5
BRANCH   2  17
HETATM   17  C   UNL     1      25.080  46.332  51.636  1.00  0.00     0.084 A 
HETATM   18  C   UNL     1      24.667  45.060  52.021  1.00  0.00     0.180 A 
HETATM   19  N   UNL     1      24.911  44.543  53.253  1.00  0.00    -0.236 NA
HETATM   20  C   UNL     1      25.562  45.332  54.135  1.00  0.00     0.119 A 
HETATM   21  C   UNL     1      25.997  46.615  53.846  1.00  0.00     0.020 A 
HETATM   22  C   UNL     1      25.752  47.123  52.575  1.00  0.00     0.023 A 
BRANCH  18  23
HETATM   23  O   UNL     1      24.060  44.247  51.088  1.00  0.00    -0.328 OA
BRANCH  23  24
HETATM   24  C   UNL     1      24.815  43.069  50.778  1.00  0.00     0.248 C 
BRANCH  24  25
HETATM   25  C   UNL     1      25.559  43.289  49.472  1.00  0.00     0.377 C 
HETATM   26  F   UNL     1      24.798  44.038  48.631  1.00  0.00    -0.212 F 
HETATM   27  F   UNL     1      26.694  44.001  49.693  1.00  0.00    -0.212 F 
ENDBRANCH  24  25
ENDBRANCH  23  24
ENDBRANCH  18  23
ENDBRANCH   2  17
TORSDOF 6
ENDMDL
MODEL 7
REMARK VINA RESULT:      -7.7      3.083      6.287
REMARK  6 active torsions:
REMARK  status: ('A' for Active; 'I' for Inactive)
REMARK    1  A    between atoms: C_2  and  N_3 
REMARK    2  A    between atoms: C_2  and  C_17 
REMARK       I    between atoms: N_3  and  C_4 
REMARK    3  A    between atoms: C_4  and  C_5 
REMARK    4  A    between atoms: C_6  and  O_7 
REMARK    5  A    between atoms: O_7  and  C_8 
REMARK    6  A    between atoms: C_8  and  C_9 
ROOT
HETATM    1  N   UNL     1      25.880  44.516  51.501  1.00  0.00    -0.346 N 
HETATM    2  C   UNL     1      25.300  43.279  51.338  1.00  0.00     0.256 C 
HETATM    3  O   UNL     1      24.110  43.067  51.537  1.00  0.00    -0.267 OA
HETATM    4  H   UNL     1      26.869  44.664  51.336  1.00  0.00     0.163 HD
ENDROOT
BRANCH   1   5
HETATM    5  C   UNL     1      25.130  45.643  52.019  1.00  0.00     0.150 C 
HETATM    6  C   UNL     1      25.672  46.078  53.378  1.00  0.00     0.040 C 
BRANCH   5   7
HETATM    7  C   UNL     1      25.240  46.742  51.010  1.00  0.00     0.127 A 
HETATM    8  N   UNL     1      26.347  47.262  50.512  1.00  0.00    -0.231 NA
HETATM    9  C   UNL     1      25.934  48.228  49.626  1.00  0.00     0.085 A 
HETATM   10  C   UNL     1      24.547  48.275  49.552  1.00  0.00     0.062 A 
HETATM   11  C   UNL     1      26.692  49.108  48.841  1.00  0.00     0.034 A 
HETATM   12  N   UNL     1      24.129  47.314  50.436  1.00  0.00    -0.341 N 
HETATM   13  C   UNL     1      23.851  49.154  48.720  1.00  0.00     0.032 A 
HETATM   14  H   UNL     1      23.170  47.064  50.630  1.00  0.00     0.167 HD
HETATM   15  C   UNL     1      24.624  50.024  47.942  1.00  0.00     0.002 A 
HETATM   16  C   UNL     1      26.019  50.007  48.001  1.00  0.00     0.002 A 
ENDBRANCH   5   7
ENDBRANCH   1   5
BRANCH   2  17
HETATM   17  C   UNL     1      26.210  42.191  50.920  1.00  0.00     0.084 A 
HETATM   18  C   UNL     1      27.308  41.829  51.697  1.00  0.00     0.180 A 
HETATM   19  N   UNL     1      28.176  40.848  51.341  1.00  0.00    -0.236 NA
HETATM   20  C   UNL     1      27.958  40.229  50.160  1.00  0.00     0.119 A 
HETATM   21  C   UNL     1      26.902  40.532  49.315  1.00  0.00     0.020 A 
HETATM   22  C   UNL     1      26.014  41.530  49.702  1.00  0.00     0.023 A 
BRANCH  18  23
HETATM   23  O   UNL     1      27.478  42.427  52.927  1.00  0.00    -0.328 OA
BRANCH  23  24
HETATM   24  C   UNL     1      28.662  42.000  53.612  1.00  0.00     0.248 C 
BRANCH  24  25
HETATM   25  C   UNL     1      29.652  43.151  53.652  1.00  0.00     0.377 C 
HETATM   26  F   UNL     1      30.525  42.970  54.678  1.00  0.00    -0.212 F 
HETATM   27  F   UNL     1      30.398  43.167  52.517  1.00  0.00    -0.212 F 
ENDBRANCH  24  25
ENDBRANCH  23  24
ENDBRANCH  18  23
ENDBRANCH   2  17
TORSDOF 6
ENDMDL
MODEL 8
REMARK VINA RESULT:      -7.6      4.476      6.185
REMARK  6 active torsions:
REMARK  status: ('A' for Active; 'I' for Inactive)
REMARK    1  A    between atoms: C_2  and  N_3 
REMARK    2  A    between atoms: C_2  and  C_17 
REMARK       I    between atoms: N_3  and  C_4 
REMARK    3  A    between atoms: C_4  and  C_5 
REMARK    4  A    between atoms: C_6  and  O_7 
REMARK    5  A    between atoms: O_7  and  C_8 
REMARK    6  A    between atoms: C_8  and  C_9 
ROOT
HETATM    1  N   UNL     1      24.182  47.167  50.204  1.00  0.00    -0.346 N 
HETATM    2  C   UNL     1      23.224  47.278  49.223  1.00  0.00     0.256 C 
HETATM    3  O   UNL     1      22.699  46.308  48.689  1.00  0.00    -0.267 OA
HETATM    4  H   UNL     1      24.607  47.985  50.626  1.00  0.00     0.163 HD
ENDROOT
BRANCH   1   5
HETATM    5  C   UNL     1      24.711  45.879  50.606  1.00  0.00     0.150 C 
HETATM    6  C   UNL     1      25.579  45.279  49.505  1.00  0.00     0.040 C 
BRANCH   5   7
HETATM    7  C   UNL     1      25.496  46.102  51.861  1.00  0.00     0.127 A 
HETATM    8  N   UNL     1      25.483  47.173  52.632  1.00  0.00    -0.231 NA
HETATM    9  C   UNL     1      26.356  46.900  53.656  1.00  0.00     0.085 A 
HETATM   10  C   UNL     1      26.888  45.622  53.531  1.00  0.00     0.062 A 
HETATM   11  C   UNL     1      26.748  47.700  54.740  1.00  0.00     0.034 A 
HETATM   12  N   UNL     1      26.318  45.132  52.385  1.00  0.00    -0.341 N 
HETATM   13  C   UNL     1      27.794  45.073  54.440  1.00  0.00     0.032 A 
HETATM   14  H   UNL     1      26.470  44.214  51.992  1.00  0.00     0.167 HD
HETATM   15  C   UNL     1      28.172  45.885  55.516  1.00  0.00     0.002 A 
HETATM   16  C   UNL     1      27.662  47.177  55.664  1.00  0.00     0.002 A 
ENDBRANCH   5   7
ENDBRANCH   1   5
BRANCH   2  17
HETATM   17  C   UNL     1      22.867  48.656  48.824  1.00  0.00     0.084 A 
HETATM   18  C   UNL     1      23.809  49.513  48.262  1.00  0.00     0.180 A 
HETATM   19  N   UNL     1      23.526  50.789  47.898  1.00  0.00    -0.236 NA
HETATM   20  C   UNL     1      22.271  51.233  48.129  1.00  0.00     0.119 A 
HETATM   21  C   UNL     1      21.273  50.459  48.697  1.00  0.00     0.020 A 
HETATM   22  C   UNL     1      21.576  49.148  49.050  1.00  0.00     0.023 A 
BRANCH  18  23
HETATM   23  O   UNL     1      25.065  49.023  47.976  1.00  0.00    -0.328 OA
BRANCH  23  24
HETATM   24  C   UNL     1      26.128  49.850  48.468  1.00  0.00     0.248 C 
BRANCH  24  25
HETATM   25  C   UNL     1      27.257  48.963  48.961  1.00  0.00     0.377 C 
HETATM   26  F   UNL     1      28.410  49.680  49.025  1.00  0.00    -0.212 F 
HETATM   27  F   UNL     1      27.002  48.540  50.227  1.00  0.00    -0.212 F 
ENDBRANCH  24  25
ENDBRANCH  23  24
ENDBRANCH  18  23
ENDBRANCH   2  17
TORSDOF 6
ENDMDL
MODEL 9
REMARK VINA RESULT:      -7.6      6.501      8.503
REMARK  6 active torsions:
REMARK  status: ('A' for Active; 'I' for Inactive)
REMARK    1  A    between atoms: C_2  and  N_3 
REMARK    2  A    between atoms: C_2  and  C_17 
REMARK       I    between atoms: N_3  and  C_4 
REMARK    3  A    between atoms: C_4  and  C_5 
REMARK    4  A    between atoms: C_6  and  O_7 
REMARK    5  A    between atoms: O_7  and  C_8 
REMARK    6  A    between atoms: C_8  and  C_9 
ROOT
HETATM    1  N   UNL     1      22.324  47.706  49.295  1.00  0.00    -0.346 N 
HETATM    2  C   UNL     1      21.481  47.559  48.217  1.00  0.00     0.256 C 
HETATM    3  O   UNL     1      21.882  47.433  47.067  1.00  0.00    -0.267 OA
HETATM    4  H   UNL     1      21.967  47.815  50.237  1.00  0.00     0.163 HD
ENDROOT
BRANCH   1   5
HETATM    5  C   UNL     1      23.759  47.821  49.125  1.00  0.00     0.150 C 
HETATM    6  C   UNL     1      24.178  49.284  49.018  1.00  0.00     0.040 C 
BRANCH   5   7
HETATM    7  C   UNL     1      24.393  47.155  50.306  1.00  0.00     0.127 A 
HETATM    8  N   UNL     1      25.104  47.728  51.260  1.00  0.00    -0.231 NA
HETATM    9  C   UNL     1      25.459  46.713  52.114  1.00  0.00     0.085 A 
HETATM   10  C   UNL     1      24.924  45.499  51.695  1.00  0.00     0.062 A 
HETATM   11  C   UNL     1      26.240  46.750  53.278  1.00  0.00     0.034 A 
HETATM   12  N   UNL     1      24.243  45.810  50.547  1.00  0.00    -0.341 N 
HETATM   13  C   UNL     1      25.112  44.299  52.383  1.00  0.00     0.032 A 
HETATM   14  H   UNL     1      23.717  45.164  49.977  1.00  0.00     0.167 HD
HETATM   15  C   UNL     1      25.893  44.356  53.543  1.00  0.00     0.002 A 
HETATM   16  C   UNL     1      26.451  45.558  53.984  1.00  0.00     0.002 A 
ENDBRANCH   5   7
ENDBRANCH   1   5
BRANCH   2  17
HETATM   17  C   UNL     1      20.034  47.580  48.524  1.00  0.00     0.084 A 
HETATM   18  C   UNL     1      19.491  48.537  49.377  1.00  0.00     0.180 A 
HETATM   19  N   UNL     1      18.172  48.581  49.697  1.00  0.00    -0.236 NA
HETATM   20  C   UNL     1      17.377  47.623  49.172  1.00  0.00     0.119 A 
HETATM   21  C   UNL     1      17.831  46.623  48.327  1.00  0.00     0.020 A 
HETATM   22  C   UNL     1      19.183  46.602  47.998  1.00  0.00     0.023 A 
BRANCH  18  23
HETATM   23  O   UNL     1      20.304  49.543  49.852  1.00  0.00    -0.328 OA
BRANCH  23  24
HETATM   24  C   UNL     1      19.732  50.851  49.725  1.00  0.00     0.248 C 
BRANCH  24  25
HETATM   25  C   UNL     1      20.246  51.492  48.447  1.00  0.00     0.377 C 
HETATM   26  F   UNL     1      19.791  52.770  48.361  1.00  0.00    -0.212 F 
HETATM   27  F   UNL     1      21.601  51.572  48.475  1.00  0.00    -0.212 F 
ENDBRANCH  24  25
ENDBRANCH  23  24
ENDBRANCH  18  23
ENDBRANCH   2  17
TORSDOF 6
ENDMDL
MODEL 10
REMARK VINA RESULT:      -7.6      5.733      9.530
REMARK  6 active torsions:
REMARK  status: ('A' for Active; 'I' for Inactive)
REMARK    1  A    between atoms: C_2  and  N_3 
REMARK    2  A    between atoms: C_2  and  C_17 
REMARK       I    between atoms: N_3  and  C_4 
REMARK    3  A    between atoms: C_4  and  C_5 
REMARK    4  A    between atoms: C_6  and  O_7 
REMARK    5  A    between atoms: O_7  and  C_8 
REMARK    6  A    between atoms: C_8  and  C_9 
ROOT
HETATM    1  N   UNL     1      23.019  46.718  49.624  1.00  0.00    -0.346 N 
HETATM    2  C   UNL     1      24.038  45.794  49.647  1.00  0.00     0.256 C 
HETATM    3  O   UNL     1      24.317  45.081  48.691  1.00  0.00    -0.267 OA
HETATM    4  H   UNL     1      22.803  47.291  50.431  1.00  0.00     0.163 HD
ENDROOT
BRANCH   1   5
HETATM    5  C   UNL     1      22.133  46.841  48.482  1.00  0.00     0.150 C 
HETATM    6  C   UNL     1      21.177  45.654  48.405  1.00  0.00     0.040 C 
BRANCH   5   7
HETATM    7  C   UNL     1      21.391  48.131  48.643  1.00  0.00     0.127 A 
HETATM    8  N   UNL     1      21.445  49.188  47.853  1.00  0.00    -0.231 NA
HETATM    9  C   UNL     1      20.590  50.107  48.410  1.00  0.00     0.085 A 
HETATM   10  C   UNL     1      19.972  49.591  49.544  1.00  0.00     0.062 A 
HETATM   11  C   UNL     1      20.285  51.413  48.001  1.00  0.00     0.034 A 
HETATM   12  N   UNL     1      20.493  48.329  49.665  1.00  0.00    -0.341 N 
HETATM   13  C   UNL     1      19.042  50.302  50.304  1.00  0.00     0.032 A 
HETATM   14  H   UNL     1      20.256  47.656  50.380  1.00  0.00     0.167 HD
HETATM   15  C   UNL     1      18.749  51.603  49.879  1.00  0.00     0.002 A 
HETATM   16  C   UNL     1      19.360  52.153  48.750  1.00  0.00     0.002 A 
ENDBRANCH   5   7
ENDBRANCH   1   5
BRANCH   2  17
HETATM   17  C   UNL     1      24.783  45.690  50.921  1.00  0.00     0.084 A 
HETATM   18  C   UNL     1      25.549  46.750  51.398  1.00  0.00     0.180 A 
HETATM   19  N   UNL     1      26.260  46.689  52.553  1.00  0.00    -0.236 NA
HETATM   20  C   UNL     1      26.228  45.525  53.237  1.00  0.00     0.119 A 
HETATM   21  C   UNL     1      25.507  44.413  52.832  1.00  0.00     0.020 A 
HETATM   22  C   UNL     1      24.772  44.498  51.653  1.00  0.00     0.023 A 
BRANCH  18  23
HETATM   23  O   UNL     1      25.520  47.950  50.720  1.00  0.00    -0.328 OA
BRANCH  23  24
HETATM   24  C   UNL     1      26.677  48.176  49.905  1.00  0.00     0.248 C 
BRANCH  24  25
HETATM   25  C   UNL     1      26.317  49.146  48.793  1.00  0.00     0.377 C 
HETATM   26  F   UNL     1      25.050  49.601  48.975  1.00  0.00    -0.212 F 
HETATM   27  F   UNL     1      27.125  50.237  48.843  1.00  0.00    -0.212 F 
ENDBRANCH  24  25
ENDBRANCH  23  24
ENDBRANCH  18  23
ENDBRANCH   2  17
TORSDOF 6
ENDMDL
