MODEL 1
REMARK VINA RESULT:      -9.0      0.000      0.000
REMARK  9 active torsions:
REMARK  status: ('A' for Active; 'I' for Inactive)
REMARK    1  A    between atoms: C_3  and  O_4 
REMARK    2  A    between atoms: O_4  and  C_5 
REMARK    3  A    between atoms: C_5  and  C_6 
REMARK    4  A    between atoms: N_7  and  C_8 
REMARK    5  A    between atoms: C_14  and  S_15 
REMARK    6  A    between atoms: S_15  and  C_16 
REMARK    7  A    between atoms: C_16  and  C_17 
REMARK       I    between atoms: C_17  and  N_18 
REMARK    8  A    between atoms: N_18  and  C_19 
REMARK    9  A    between atoms: C_19  and  C_20 
ROOT
HETATM    1  C   UNL     1      26.999  46.389  54.754  1.00  0.00     0.160 A 
HETATM    2  N   UNL     1      26.879  45.584  53.620  1.00  0.00    -0.274 N 
HETATM    3  C   UNL     1      26.091  46.346  52.771  1.00  0.00     0.196 A 
HETATM    4  N   UNL     1      25.794  47.499  53.321  1.00  0.00    -0.122 NA
HETATM    5  N   UNL     1      26.347  47.523  54.563  1.00  0.00    -0.131 NA
ENDROOT
BRANCH   3   6
HETATM    6  S   UNL     1      25.283  45.791  51.337  1.00  0.00    -0.081 SA
BRANCH   6   7
HETATM    7  C   UNL     1      25.126  47.360  50.435  1.00  0.00     0.185 C 
BRANCH   7   8
HETATM    8  C   UNL     1      23.829  47.519  49.652  1.00  0.00     0.227 C 
HETATM    9  N   UNL     1      23.258  48.767  49.652  1.00  0.00    -0.360 N 
HETATM   10  H   UNL     1      23.716  49.523  50.157  1.00  0.00     0.162 HD
HETATM   11  O   UNL     1      23.282  46.544  49.138  1.00  0.00    -0.273 OA
BRANCH   9  12
HETATM   12  C   UNL     1      21.929  49.034  49.147  1.00  0.00     0.126 C 
BRANCH  12  13
HETATM   13  C   UNL     1      21.912  50.209  48.153  1.00  0.00    -0.005 C 
HETATM   14  C   UNL     1      20.812  51.221  48.483  1.00  0.00     0.011 C 
HETATM   15  C   UNL     1      23.274  50.904  48.146  1.00  0.00     0.011 C 
ENDBRANCH  12  13
ENDBRANCH   9  12
ENDBRANCH   7   8
ENDBRANCH   6   7
ENDBRANCH   3   6
BRANCH   2  16
HETATM   16  C   UNL     1      27.409  44.284  53.391  1.00  0.00     0.043 A 
HETATM   17  C   UNL     1      28.314  44.051  52.348  1.00  0.00     0.030 A 
HETATM   18  C   UNL     1      28.830  42.769  52.138  1.00  0.00     0.002 A 
HETATM   19  C   UNL     1      28.450  41.715  52.966  1.00  0.00     0.000 A 
HETATM   20  C   UNL     1      27.552  41.939  54.006  1.00  0.00     0.002 A 
HETATM   21  C   UNL     1      27.032  43.218  54.219  1.00  0.00     0.030 A 
ENDBRANCH   2  16
BRANCH   1  22
HETATM   22  C   UNL     1      27.799  46.105  55.977  1.00  0.00     0.256 C 
BRANCH  22  23
HETATM   23  O   UNL     1      29.175  46.194  55.625  1.00  0.00    -0.343 OA
BRANCH  23  24
HETATM   24  C   UNL     1      29.983  45.173  56.056  1.00  0.00     0.075 A 
HETATM   25  C   UNL     1      30.483  45.290  57.365  1.00  0.00    -0.029 A 
HETATM   26  C   UNL     1      30.090  46.432  58.260  1.00  0.00     0.051 C 
HETATM   27  C   UNL     1      31.305  44.274  57.880  1.00  0.00     0.009 A 
HETATM   28  C   UNL     1      31.655  43.177  57.095  1.00  0.00     0.001 A 
HETATM   29  C   UNL     1      31.181  43.078  55.791  1.00  0.00     0.003 A 
HETATM   30  C   UNL     1      30.348  44.072  55.272  1.00  0.00     0.037 A 
ENDBRANCH  23  24
ENDBRANCH  22  23
ENDBRANCH   1  22
TORSDOF 9
ENDMDL
MODEL 2
REMARK VINA RESULT:      -9.0      1.807      2.452
REMARK  9 active torsions:
REMARK  status: ('A' for Active; 'I' for Inactive)
REMARK    1  A    between atoms: C_3  and  O_4 
REMARK    2  A    between atoms: O_4  and  C_5 
REMARK    3  A    between atoms: C_5  and  C_6 
REMARK    4  A    between atoms: N_7  and  C_8 
REMARK    5  A    between atoms: C_14  and  S_15 
REMARK    6  A    between atoms: S_15  and  C_16 
REMARK    7  A    between atoms: C_16  and  C_17 
REMARK       I    between atoms: C_17  and  N_18 
REMARK    8  A    between atoms: N_18  and  C_19 
REMARK    9  A    between atoms: C_19  and  C_20 
ROOT
HETATM    1  C   UNL     1      26.303  45.819  53.358  1.00  0.00     0.160 A 
HETATM    2  N   UNL     1      25.968  45.356  52.085  1.00  0.00    -0.274 N 
HETATM    3  C   UNL     1      25.371  46.459  51.494  1.00  0.00     0.196 A 
HETATM    4  N   UNL     1      25.375  47.485  52.310  1.00  0.00    -0.122 NA
HETATM    5  N   UNL     1      25.944  47.085  53.479  1.00  0.00    -0.131 NA
ENDROOT
BRANCH   3   6
HETATM    6  S   UNL     1      24.422  46.463  50.038  1.00  0.00    -0.081 SA
BRANCH   6   7
HETATM    7  C   UNL     1      24.680  48.177  49.496  1.00  0.00     0.185 C 
BRANCH   7   8
HETATM    8  C   UNL     1      23.454  48.847  48.890  1.00  0.00     0.227 C 
HETATM    9  N   UNL     1      22.286  48.763  49.606  1.00  0.00    -0.360 N 
HETATM   10  H   UNL     1      22.286  48.274  50.500  1.00  0.00     0.162 HD
HETATM   11  O   UNL     1      23.502  49.344  47.764  1.00  0.00    -0.273 OA
BRANCH   9  12
HETATM   12  C   UNL     1      20.997  49.150  49.076  1.00  0.00     0.126 C 
BRANCH  12  13
HETATM   13  C   UNL     1      20.518  50.496  49.647  1.00  0.00    -0.005 C 
HETATM   14  C   UNL     1      20.364  51.558  48.555  1.00  0.00     0.011 C 
HETATM   15  C   UNL     1      19.189  50.307  50.380  1.00  0.00     0.011 C 
ENDBRANCH  12  13
ENDBRANCH   9  12
ENDBRANCH   7   8
ENDBRANCH   6   7
ENDBRANCH   3   6
BRANCH   2  16
HETATM   16  C   UNL     1      26.160  44.061  51.528  1.00  0.00     0.043 A 
HETATM   17  C   UNL     1      27.441  43.608  51.189  1.00  0.00     0.030 A 
HETATM   18  C   UNL     1      27.615  42.331  50.647  1.00  0.00     0.002 A 
HETATM   19  C   UNL     1      26.516  41.500  50.443  1.00  0.00     0.000 A 
HETATM   20  C   UNL     1      25.239  41.943  50.779  1.00  0.00     0.002 A 
HETATM   21  C   UNL     1      25.060  43.218  51.319  1.00  0.00     0.030 A 
ENDBRANCH   2  16
BRANCH   1  22
HETATM   22  C   UNL     1      27.037  45.075  54.420  1.00  0.00     0.256 C 
BRANCH  22  23
HETATM   23  O   UNL     1      28.424  45.132  54.110  1.00  0.00    -0.343 OA
BRANCH  23  24
HETATM   24  C   UNL     1      29.292  44.879  55.140  1.00  0.00     0.075 A 
HETATM   25  C   UNL     1      30.076  43.718  55.017  1.00  0.00    -0.029 A 
HETATM   26  C   UNL     1      30.014  42.850  53.791  1.00  0.00     0.051 C 
HETATM   27  C   UNL     1      30.999  43.402  56.027  1.00  0.00     0.009 A 
HETATM   28  C   UNL     1      31.117  44.206  57.160  1.00  0.00     0.001 A 
HETATM   29  C   UNL     1      30.321  45.339  57.290  1.00  0.00     0.003 A 
HETATM   30  C   UNL     1      29.411  45.674  56.285  1.00  0.00     0.037 A 
ENDBRANCH  23  24
ENDBRANCH  22  23
ENDBRANCH   1  22
TORSDOF 9
ENDMDL
MODEL 3
REMARK VINA RESULT:      -8.9      1.989      2.842
REMARK  9 active torsions:
REMARK  status: ('A' for Active; 'I' for Inactive)
REMARK    1  A    between atoms: C_3  and  O_4 
REMARK    2  A    between atoms: O_4  and  C_5 
REMARK    3  A    between atoms: C_5  and  C_6 
REMARK    4  A    between atoms: N_7  and  C_8 
REMARK    5  A    between atoms: C_14  and  S_15 
REMARK    6  A    between atoms: S_15  and  C_16 
REMARK    7  A    between atoms: C_16  and  C_17 
REMARK       I    between atoms: C_17  and  N_18 
REMARK    8  A    between atoms: N_18  and  C_19 
REMARK    9  A    between atoms: C_19  and  C_20 
ROOT
HETATM    1  C   UNL     1      25.539  45.449  53.366  1.00  0.00     0.160 A 
HETATM    2  N   UNL     1      25.686  45.362  51.981  1.00  0.00    -0.274 N 
HETATM    3  C   UNL     1      25.681  46.689  51.578  1.00  0.00     0.196 A 
HETATM    4  N   UNL     1      25.574  47.490  52.611  1.00  0.00    -0.122 NA
HETATM    5  N   UNL     1      25.472  46.719  53.726  1.00  0.00    -0.131 NA
ENDROOT
BRANCH   3   6
HETATM    6  S   UNL     1      25.482  47.274  49.953  1.00  0.00    -0.081 SA
BRANCH   6   7
HETATM    7  C   UNL     1      23.866  46.550  49.551  1.00  0.00     0.185 C 
BRANCH   7   8
HETATM    8  C   UNL     1      22.906  47.489  48.833  1.00  0.00     0.227 C 
HETATM    9  N   UNL     1      22.320  48.472  49.592  1.00  0.00    -0.360 N 
HETATM   10  H   UNL     1      22.551  48.540  50.581  1.00  0.00     0.162 HD
HETATM   11  O   UNL     1      22.602  47.296  47.656  1.00  0.00    -0.273 OA
BRANCH   9  12
HETATM   12  C   UNL     1      21.231  49.299  49.119  1.00  0.00     0.126 C 
BRANCH  12  13
HETATM   13  C   UNL     1      21.562  50.798  49.212  1.00  0.00    -0.005 C 
HETATM   14  C   UNL     1      22.915  51.126  48.576  1.00  0.00     0.011 C 
HETATM   15  C   UNL     1      20.459  51.618  48.541  1.00  0.00     0.011 C 
ENDBRANCH  12  13
ENDBRANCH   9  12
ENDBRANCH   7   8
ENDBRANCH   6   7
ENDBRANCH   3   6
BRANCH   2  16
HETATM   16  C   UNL     1      25.789  44.201  51.166  1.00  0.00     0.043 A 
HETATM   17  C   UNL     1      26.976  43.904  50.486  1.00  0.00     0.030 A 
HETATM   18  C   UNL     1      27.063  42.755  49.694  1.00  0.00     0.002 A 
HETATM   19  C   UNL     1      25.972  41.897  49.577  1.00  0.00     0.000 A 
HETATM   20  C   UNL     1      24.789  42.186  50.252  1.00  0.00     0.002 A 
HETATM   21  C   UNL     1      24.695  43.332  51.044  1.00  0.00     0.030 A 
ENDBRANCH   2  16
BRANCH   1  22
HETATM   22  C   UNL     1      25.544  44.325  54.342  1.00  0.00     0.256 C 
BRANCH  22  23
HETATM   23  O   UNL     1      26.809  44.324  54.995  1.00  0.00    -0.343 OA
BRANCH  23  24
HETATM   24  C   UNL     1      27.797  43.573  54.413  1.00  0.00     0.075 A 
HETATM   25  C   UNL     1      29.111  44.044  54.580  1.00  0.00    -0.029 A 
HETATM   26  C   UNL     1      29.414  45.260  55.410  1.00  0.00     0.051 C 
HETATM   27  C   UNL     1      30.177  43.317  54.025  1.00  0.00     0.009 A 
HETATM   28  C   UNL     1      29.940  42.160  53.285  1.00  0.00     0.001 A 
HETATM   29  C   UNL     1      28.637  41.712  53.100  1.00  0.00     0.003 A 
HETATM   30  C   UNL     1      27.568  42.415  53.661  1.00  0.00     0.037 A 
ENDBRANCH  23  24
ENDBRANCH  22  23
ENDBRANCH   1  22
TORSDOF 9
ENDMDL
MODEL 4
REMARK VINA RESULT:      -8.7      2.190      4.224
REMARK  9 active torsions:
REMARK  status: ('A' for Active; 'I' for Inactive)
REMARK    1  A    between atoms: C_3  and  O_4 
REMARK    2  A    between atoms: O_4  and  C_5 
REMARK    3  A    between atoms: C_5  and  C_6 
REMARK    4  A    between atoms: N_7  and  C_8 
REMARK    5  A    between atoms: C_14  and  S_15 
REMARK    6  A    between atoms: S_15  and  C_16 
REMARK    7  A    between atoms: C_16  and  C_17 
REMARK       I    between atoms: C_17  and  N_18 
REMARK    8  A    between atoms: N_18  and  C_19 
REMARK    9  A    between atoms: C_19  and  C_20 
ROOT
HETATM    1  C   UNL     1      25.306  45.498  51.999  1.00  0.00     0.160 A 
HETATM    2  N   UNL     1      25.056  45.947  50.702  1.00  0.00    -0.274 N 
HETATM    3  C   UNL     1      24.127  45.035  50.224  1.00  0.00     0.196 A 
HETATM    4  N   UNL     1      23.826  44.151  51.145  1.00  0.00    -0.122 NA
HETATM    5  N   UNL     1      24.570  44.429  52.248  1.00  0.00    -0.131 NA
ENDROOT
BRANCH   3   6
HETATM    6  S   UNL     1      23.654  44.814  48.567  1.00  0.00    -0.081 SA
BRANCH   6   7
HETATM    7  C   UNL     1      21.937  45.401  48.645  1.00  0.00     0.185 C 
BRANCH   7   8
HETATM    8  C   UNL     1      21.741  46.857  48.245  1.00  0.00     0.227 C 
HETATM    9  N   UNL     1      21.006  47.638  49.102  1.00  0.00    -0.360 N 
HETATM   10  H   UNL     1      20.636  47.227  49.957  1.00  0.00     0.162 HD
HETATM   11  O   UNL     1      22.138  47.268  47.155  1.00  0.00    -0.273 OA
BRANCH   9  12
HETATM   12  C   UNL     1      20.546  48.969  48.769  1.00  0.00     0.126 C 
BRANCH  12  13
HETATM   13  C   UNL     1      21.437  50.061  49.385  1.00  0.00    -0.005 C 
HETATM   14  C   UNL     1      22.163  50.878  48.313  1.00  0.00     0.011 C 
HETATM   15  C   UNL     1      20.595  50.986  50.264  1.00  0.00     0.011 C 
ENDBRANCH  12  13
ENDBRANCH   9  12
ENDBRANCH   7   8
ENDBRANCH   6   7
ENDBRANCH   3   6
BRANCH   2  16
HETATM   16  C   UNL     1      25.629  47.053  50.015  1.00  0.00     0.043 A 
HETATM   17  C   UNL     1      26.997  47.083  49.716  1.00  0.00     0.030 A 
HETATM   18  C   UNL     1      27.544  48.174  49.035  1.00  0.00     0.002 A 
HETATM   19  C   UNL     1      26.733  49.238  48.647  1.00  0.00     0.000 A 
HETATM   20  C   UNL     1      25.372  49.214  48.939  1.00  0.00     0.002 A 
HETATM   21  C   UNL     1      24.819  48.128  49.620  1.00  0.00     0.030 A 
ENDBRANCH   2  16
BRANCH   1  22
HETATM   22  C   UNL     1      26.183  46.139  53.018  1.00  0.00     0.256 C 
BRANCH  22  23
HETATM   23  O   UNL     1      26.281  45.252  54.126  1.00  0.00    -0.343 OA
BRANCH  23  24
HETATM   24  C   UNL     1      27.482  44.613  54.294  1.00  0.00     0.075 A 
HETATM   25  C   UNL     1      28.411  45.253  55.132  1.00  0.00    -0.029 A 
HETATM   26  C   UNL     1      28.073  46.526  55.858  1.00  0.00     0.051 C 
HETATM   27  C   UNL     1      29.658  44.649  55.364  1.00  0.00     0.009 A 
HETATM   28  C   UNL     1      29.992  43.446  54.743  1.00  0.00     0.001 A 
HETATM   29  C   UNL     1      29.080  42.830  53.893  1.00  0.00     0.003 A 
HETATM   30  C   UNL     1      27.830  43.410  53.668  1.00  0.00     0.037 A 
ENDBRANCH  23  24
ENDBRANCH  22  23
ENDBRANCH   1  22
TORSDOF 9
ENDMDL
MODEL 5
REMARK VINA RESULT:      -8.5      3.511      6.907
REMARK  9 active torsions:
REMARK  status: ('A' for Active; 'I' for Inactive)
REMARK    1  A    between atoms: C_3  and  O_4 
REMARK    2  A    between atoms: O_4  and  C_5 
REMARK    3  A    between atoms: C_5  and  C_6 
REMARK    4  A    between atoms: N_7  and  C_8 
REMARK    5  A    between atoms: C_14  and  S_15 
REMARK    6  A    between atoms: S_15  and  C_16 
REMARK    7  A    between atoms: C_16  and  C_17 
REMARK       I    between atoms: C_17  and  N_18 
REMARK    8  A    between atoms: N_18  and  C_19 
REMARK    9  A    between atoms: C_19  and  C_20 
ROOT
HETATM    1  C   UNL     1      27.974  42.730  51.967  1.00  0.00     0.160 A 
HETATM    2  N   UNL     1      26.888  43.342  51.341  1.00  0.00    -0.274 N 
HETATM    3  C   UNL     1      26.070  42.272  51.009  1.00  0.00     0.196 A 
HETATM    4  N   UNL     1      26.592  41.141  51.419  1.00  0.00    -0.122 NA
HETATM    5  N   UNL     1      27.786  41.422  52.006  1.00  0.00    -0.131 NA
ENDROOT
BRANCH   3   6
HETATM    6  S   UNL     1      24.726  42.303  49.908  1.00  0.00    -0.081 SA
BRANCH   6   7
HETATM    7  C   UNL     1      25.250  41.023  48.731  1.00  0.00     0.185 C 
BRANCH   7   8
HETATM    8  C   UNL     1      26.756  40.910  48.539  1.00  0.00     0.227 C 
HETATM    9  N   UNL     1      27.348  39.746  48.963  1.00  0.00    -0.360 N 
HETATM   10  H   UNL     1      26.769  39.015  49.373  1.00  0.00     0.162 HD
HETATM   11  O   UNL     1      27.409  41.866  48.119  1.00  0.00    -0.273 OA
BRANCH   9  12
HETATM   12  C   UNL     1      28.781  39.568  49.053  1.00  0.00     0.126 C 
BRANCH  12  13
HETATM   13  C   UNL     1      29.163  38.120  49.403  1.00  0.00    -0.005 C 
HETATM   14  C   UNL     1      30.033  38.047  50.661  1.00  0.00     0.011 C 
HETATM   15  C   UNL     1      27.901  37.279  49.594  1.00  0.00     0.011 C 
ENDBRANCH  12  13
ENDBRANCH   9  12
ENDBRANCH   7   8
ENDBRANCH   6   7
ENDBRANCH   3   6
BRANCH   2  16
HETATM   16  C   UNL     1      26.673  44.723  51.075  1.00  0.00     0.043 A 
HETATM   17  C   UNL     1      27.076  45.292  49.861  1.00  0.00     0.030 A 
HETATM   18  C   UNL     1      26.852  46.649  49.613  1.00  0.00     0.002 A 
HETATM   19  C   UNL     1      26.225  47.444  50.569  1.00  0.00     0.000 A 
HETATM   20  C   UNL     1      25.820  46.884  51.778  1.00  0.00     0.002 A 
HETATM   21  C   UNL     1      26.042  45.529  52.033  1.00  0.00     0.030 A 
ENDBRANCH   2  16
BRANCH   1  22
HETATM   22  C   UNL     1      29.144  43.404  52.597  1.00  0.00     0.256 C 
BRANCH  22  23
HETATM   23  O   UNL     1      28.667  44.149  53.712  1.00  0.00    -0.343 OA
BRANCH  23  24
HETATM   24  C   UNL     1      29.475  44.179  54.819  1.00  0.00     0.075 A 
HETATM   25  C   UNL     1      29.400  45.340  55.608  1.00  0.00    -0.029 A 
HETATM   26  C   UNL     1      28.434  46.448  55.292  1.00  0.00     0.051 C 
HETATM   27  C   UNL     1      30.187  45.434  56.767  1.00  0.00     0.009 A 
HETATM   28  C   UNL     1      31.063  44.408  57.117  1.00  0.00     0.001 A 
HETATM   29  C   UNL     1      31.154  43.273  56.319  1.00  0.00     0.003 A 
HETATM   30  C   UNL     1      30.364  43.158  55.173  1.00  0.00     0.037 A 
ENDBRANCH  23  24
ENDBRANCH  22  23
ENDBRANCH   1  22
TORSDOF 9
ENDMDL
MODEL 6
REMARK VINA RESULT:      -8.2      2.779      4.351
REMARK  9 active torsions:
REMARK  status: ('A' for Active; 'I' for Inactive)
REMARK    1  A    between atoms: C_3  and  O_4 
REMARK    2  A    between atoms: O_4  and  C_5 
REMARK    3  A    between atoms: C_5  and  C_6 
REMARK    4  A    between atoms: N_7  and  C_8 
REMARK    5  A    between atoms: C_14  and  S_15 
REMARK    6  A    between atoms: S_15  and  C_16 
REMARK    7  A    between atoms: C_16  and  C_17 
REMARK       I    between atoms: C_17  and  N_18 
REMARK    8  A    between atoms: N_18  and  C_19 
REMARK    9  A    between atoms: C_19  and  C_20 
ROOT
HETATM    1  C   UNL     1      27.109  42.508  51.195  1.00  0.00     0.160 A 
HETATM    2  N   UNL     1      26.169  43.323  50.563  1.00  0.00    -0.274 N 
HETATM    3  C   UNL     1      25.312  42.413  49.964  1.00  0.00     0.196 A 
HETATM    4  N   UNL     1      25.677  41.182  50.232  1.00  0.00    -0.122 NA
HETATM    5  N   UNL     1      26.806  41.238  50.988  1.00  0.00    -0.131 NA
ENDROOT
BRANCH   3   6
HETATM    6  S   UNL     1      24.128  42.761  48.741  1.00  0.00    -0.081 SA
BRANCH   6   7
HETATM    7  C   UNL     1      22.811  43.474  49.768  1.00  0.00     0.185 C 
BRANCH   7   8
HETATM    8  C   UNL     1      22.002  44.576  49.097  1.00  0.00     0.227 C 
HETATM    9  N   UNL     1      22.712  45.549  48.438  1.00  0.00    -0.360 N 
HETATM   10  H   UNL     1      23.728  45.494  48.417  1.00  0.00     0.162 HD
HETATM   11  O   UNL     1      20.780  44.632  49.236  1.00  0.00    -0.273 OA
BRANCH   9  12
HETATM   12  C   UNL     1      22.116  46.770  47.940  1.00  0.00     0.126 C 
BRANCH  12  13
HETATM   13  C   UNL     1      22.339  47.954  48.895  1.00  0.00    -0.005 C 
HETATM   14  C   UNL     1      23.388  48.932  48.359  1.00  0.00     0.011 C 
HETATM   15  C   UNL     1      21.019  48.687  49.134  1.00  0.00     0.011 C 
ENDBRANCH  12  13
ENDBRANCH   9  12
ENDBRANCH   7   8
ENDBRANCH   6   7
ENDBRANCH   3   6
BRANCH   2  16
HETATM   16  C   UNL     1      26.110  44.744  50.515  1.00  0.00     0.043 A 
HETATM   17  C   UNL     1      25.211  45.453  51.321  1.00  0.00     0.030 A 
HETATM   18  C   UNL     1      25.169  46.849  51.267  1.00  0.00     0.002 A 
HETATM   19  C   UNL     1      26.021  47.545  50.412  1.00  0.00     0.000 A 
HETATM   20  C   UNL     1      26.919  46.846  49.609  1.00  0.00     0.002 A 
HETATM   21  C   UNL     1      26.964  45.451  49.658  1.00  0.00     0.030 A 
ENDBRANCH   2  16
BRANCH   1  22
HETATM   22  C   UNL     1      28.242  42.945  52.058  1.00  0.00     0.256 C 
BRANCH  22  23
HETATM   23  O   UNL     1      27.696  43.414  53.285  1.00  0.00    -0.343 OA
BRANCH  23  24
HETATM   24  C   UNL     1      28.592  43.862  54.221  1.00  0.00     0.075 A 
HETATM   25  C   UNL     1      28.357  45.151  54.734  1.00  0.00    -0.029 A 
HETATM   26  C   UNL     1      27.152  45.954  54.330  1.00  0.00     0.051 C 
HETATM   27  C   UNL     1      29.225  45.671  55.708  1.00  0.00     0.009 A 
HETATM   28  C   UNL     1      30.330  44.938  56.141  1.00  0.00     0.001 A 
HETATM   29  C   UNL     1      30.573  43.676  55.611  1.00  0.00     0.003 A 
HETATM   30  C   UNL     1      29.708  43.139  54.655  1.00  0.00     0.037 A 
ENDBRANCH  23  24
ENDBRANCH  22  23
ENDBRANCH   1  22
TORSDOF 9
ENDMDL
MODEL 7
REMARK VINA RESULT:      -8.1      2.787      4.240
REMARK  9 active torsions:
REMARK  status: ('A' for Active; 'I' for Inactive)
REMARK    1  A    between atoms: C_3  and  O_4 
REMARK    2  A    between atoms: O_4  and  C_5 
REMARK    3  A    between atoms: C_5  and  C_6 
REMARK    4  A    between atoms: N_7  and  C_8 
REMARK    5  A    between atoms: C_14  and  S_15 
REMARK    6  A    between atoms: S_15  and  C_16 
REMARK    7  A    between atoms: C_16  and  C_17 
REMARK       I    between atoms: C_17  and  N_18 
REMARK    8  A    between atoms: N_18  and  C_19 
REMARK    9  A    between atoms: C_19  and  C_20 
ROOT
HETATM    1  C   UNL     1      24.887  47.254  50.565  1.00  0.00     0.160 A 
HETATM    2  N   UNL     1      24.445  46.096  49.924  1.00  0.00    -0.274 N 
HETATM    3  C   UNL     1      23.395  46.550  49.139  1.00  0.00     0.196 A 
HETATM    4  N   UNL     1      23.242  47.846  49.268  1.00  0.00    -0.122 NA
HETATM    5  N   UNL     1      24.162  48.286  50.167  1.00  0.00    -0.131 NA
ENDROOT
BRANCH   3   6
HETATM    6  S   UNL     1      22.194  45.569  48.354  1.00  0.00    -0.081 SA
BRANCH   6   7
HETATM    7  C   UNL     1      21.619  46.731  47.082  1.00  0.00     0.185 C 
BRANCH   7   8
HETATM    8  C   UNL     1      20.406  47.562  47.477  1.00  0.00     0.227 C 
HETATM    9  N   UNL     1      20.638  48.873  47.810  1.00  0.00    -0.360 N 
HETATM   10  H   UNL     1      21.589  49.234  47.774  1.00  0.00     0.162 HD
HETATM   11  O   UNL     1      19.295  47.041  47.586  1.00  0.00    -0.273 OA
BRANCH   9  12
HETATM   12  C   UNL     1      19.640  49.731  48.412  1.00  0.00     0.126 C 
BRANCH  12  13
HETATM   13  C   UNL     1      20.254  51.015  48.992  1.00  0.00    -0.005 C 
HETATM   14  C   UNL     1      21.734  51.157  48.627  1.00  0.00     0.011 C 
HETATM   15  C   UNL     1      19.477  52.235  48.497  1.00  0.00     0.011 C 
ENDBRANCH  12  13
ENDBRANCH   9  12
ENDBRANCH   7   8
ENDBRANCH   6   7
ENDBRANCH   3   6
BRANCH   2  16
HETATM   16  C   UNL     1      24.926  44.764  50.056  1.00  0.00     0.043 A 
HETATM   17  C   UNL     1      24.227  43.821  50.818  1.00  0.00     0.030 A 
HETATM   18  C   UNL     1      24.710  42.514  50.934  1.00  0.00     0.002 A 
HETATM   19  C   UNL     1      25.888  42.140  50.291  1.00  0.00     0.000 A 
HETATM   20  C   UNL     1      26.587  43.074  49.530  1.00  0.00     0.002 A 
HETATM   21  C   UNL     1      26.111  44.381  49.412  1.00  0.00     0.030 A 
ENDBRANCH   2  16
BRANCH   1  22
HETATM   22  C   UNL     1      26.048  47.382  51.489  1.00  0.00     0.256 C 
BRANCH  22  23
HETATM   23  O   UNL     1      25.665  46.836  52.745  1.00  0.00    -0.343 OA
BRANCH  23  24
HETATM   24  C   UNL     1      26.617  46.112  53.414  1.00  0.00     0.075 A 
HETATM   25  C   UNL     1      27.110  46.685  54.600  1.00  0.00    -0.029 A 
HETATM   26  C   UNL     1      26.567  47.980  55.136  1.00  0.00     0.051 C 
HETATM   27  C   UNL     1      28.077  45.992  55.347  1.00  0.00     0.009 A 
HETATM   28  C   UNL     1      28.574  44.767  54.905  1.00  0.00     0.001 A 
HETATM   29  C   UNL     1      28.103  44.217  53.718  1.00  0.00     0.003 A 
HETATM   30  C   UNL     1      27.129  44.886  52.974  1.00  0.00     0.037 A 
ENDBRANCH  23  24
ENDBRANCH  22  23
ENDBRANCH   1  22
TORSDOF 9
ENDMDL
MODEL 8
REMARK VINA RESULT:      -7.9      3.345     12.265
REMARK  9 active torsions:
REMARK  status: ('A' for Active; 'I' for Inactive)
REMARK    1  A    between atoms: C_3  and  O_4 
REMARK    2  A    between atoms: O_4  and  C_5 
REMARK    3  A    between atoms: C_5  and  C_6 
REMARK    4  A    between atoms: N_7  and  C_8 
REMARK    5  A    between atoms: C_14  and  S_15 
REMARK    6  A    between atoms: S_15  and  C_16 
REMARK    7  A    between atoms: C_16  and  C_17 
REMARK       I    between atoms: C_17  and  N_18 
REMARK    8  A    between atoms: N_18  and  C_19 
REMARK    9  A    between atoms: C_19  and  C_20 
ROOT
HETATM    1  C   UNL     1      20.119  47.362  47.257  1.00  0.00     0.160 A 
HETATM    2  N   UNL     1      20.739  48.399  47.954  1.00  0.00    -0.274 N 
HETATM    3  C   UNL     1      22.077  48.034  47.942  1.00  0.00     0.196 A 
HETATM    4  N   UNL     1      22.248  46.914  47.282  1.00  0.00    -0.122 NA
HETATM    5  N   UNL     1      21.027  46.485  46.865  1.00  0.00    -0.131 NA
ENDROOT
BRANCH   3   6
HETATM    6  S   UNL     1      23.340  48.709  48.926  1.00  0.00    -0.081 SA
BRANCH   6   7
HETATM    7  C   UNL     1      24.032  47.188  49.639  1.00  0.00     0.185 C 
BRANCH   7   8
HETATM    8  C   UNL     1      25.212  47.402  50.578  1.00  0.00     0.227 C 
HETATM    9  N   UNL     1      25.137  46.800  51.810  1.00  0.00    -0.360 N 
HETATM   10  H   UNL     1      24.318  46.240  52.040  1.00  0.00     0.162 HD
HETATM   11  O   UNL     1      26.129  48.164  50.271  1.00  0.00    -0.273 OA
BRANCH   9  12
HETATM   12  C   UNL     1      26.060  47.078  52.889  1.00  0.00     0.126 C 
BRANCH  12  13
HETATM   13  C   UNL     1      26.490  45.799  53.626  1.00  0.00    -0.005 C 
HETATM   14  C   UNL     1      26.992  44.723  52.659  1.00  0.00     0.011 C 
HETATM   15  C   UNL     1      27.579  46.128  54.648  1.00  0.00     0.011 C 
ENDBRANCH  12  13
ENDBRANCH   9  12
ENDBRANCH   7   8
ENDBRANCH   6   7
ENDBRANCH   3   6
BRANCH   2  16
HETATM   16  C   UNL     1      20.150  49.544  48.558  1.00  0.00     0.043 A 
HETATM   17  C   UNL     1      19.379  49.426  49.721  1.00  0.00     0.030 A 
HETATM   18  C   UNL     1      18.812  50.562  50.307  1.00  0.00     0.002 A 
HETATM   19  C   UNL     1      19.011  51.819  49.740  1.00  0.00     0.000 A 
HETATM   20  C   UNL     1      19.779  51.944  48.585  1.00  0.00     0.002 A 
HETATM   21  C   UNL     1      20.346  50.813  47.994  1.00  0.00     0.030 A 
ENDBRANCH   2  16
BRANCH   1  22
HETATM   22  C   UNL     1      18.677  47.255  46.900  1.00  0.00     0.256 C 
BRANCH  22  23
HETATM   23  O   UNL     1      18.366  48.333  46.024  1.00  0.00    -0.343 OA
BRANCH  23  24
HETATM   24  C   UNL     1      17.479  49.266  46.493  1.00  0.00     0.075 A 
HETATM   25  C   UNL     1      17.529  50.531  45.880  1.00  0.00    -0.029 A 
HETATM   26  C   UNL     1      18.453  50.812  44.728  1.00  0.00     0.051 C 
HETATM   27  C   UNL     1      16.639  51.533  46.298  1.00  0.00     0.009 A 
HETATM   28  C   UNL     1      15.737  51.296  47.335  1.00  0.00     0.001 A 
HETATM   29  C   UNL     1      15.709  50.053  47.957  1.00  0.00     0.003 A 
HETATM   30  C   UNL     1      16.577  49.041  47.539  1.00  0.00     0.037 A 
ENDBRANCH  23  24
ENDBRANCH  22  23
ENDBRANCH   1  22
TORSDOF 9
ENDMDL
MODEL 9
REMARK VINA RESULT:      -7.9     13.433     16.449
REMARK  9 active torsions:
REMARK  status: ('A' for Active; 'I' for Inactive)
REMARK    1  A    between atoms: C_3  and  O_4 
REMARK    2  A    between atoms: O_4  and  C_5 
REMARK    3  A    between atoms: C_5  and  C_6 
REMARK    4  A    between atoms: N_7  and  C_8 
REMARK    5  A    between atoms: C_14  and  S_15 
REMARK    6  A    between atoms: S_15  and  C_16 
REMARK    7  A    between atoms: C_16  and  C_17 
REMARK       I    between atoms: C_17  and  N_18 
REMARK    8  A    between atoms: N_18  and  C_19 
REMARK    9  A    between atoms: C_19  and  C_20 
ROOT
HETATM    1  C   UNL     1      32.134  51.303  38.603  1.00  0.00     0.160 A 
HETATM    2  N   UNL     1      32.207  50.542  39.770  1.00  0.00    -0.274 N 
HETATM    3  C   UNL     1      33.456  50.863  40.280  1.00  0.00     0.196 A 
HETATM    4  N   UNL     1      34.058  51.746  39.520  1.00  0.00    -0.122 NA
HETATM    5  N   UNL     1      33.241  52.013  38.466  1.00  0.00    -0.131 NA
ENDROOT
BRANCH   3   6
HETATM    6  S   UNL     1      34.312  50.009  41.528  1.00  0.00    -0.081 SA
BRANCH   6   7
HETATM    7  C   UNL     1      34.483  51.333  42.759  1.00  0.00     0.185 C 
BRANCH   7   8
HETATM    8  C   UNL     1      35.911  51.810  42.991  1.00  0.00     0.227 C 
HETATM    9  N   UNL     1      36.072  52.897  43.814  1.00  0.00    -0.360 N 
HETATM   10  H   UNL     1      35.251  53.328  44.235  1.00  0.00     0.162 HD
HETATM   11  O   UNL     1      36.851  51.299  42.382  1.00  0.00    -0.273 OA
BRANCH   9  12
HETATM   12  C   UNL     1      37.326  53.602  43.964  1.00  0.00     0.126 C 
BRANCH  12  13
HETATM   13  C   UNL     1      37.483  54.213  45.367  1.00  0.00    -0.005 C 
HETATM   14  C   UNL     1      38.325  53.324  46.286  1.00  0.00     0.011 C 
HETATM   15  C   UNL     1      38.116  55.601  45.263  1.00  0.00     0.011 C 
ENDBRANCH  12  13
ENDBRANCH   9  12
ENDBRANCH   7   8
ENDBRANCH   6   7
ENDBRANCH   3   6
BRANCH   2  16
HETATM   16  C   UNL     1      31.252  49.633  40.303  1.00  0.00     0.043 A 
HETATM   17  C   UNL     1      30.707  49.829  41.578  1.00  0.00     0.030 A 
HETATM   18  C   UNL     1      29.764  48.929  42.085  1.00  0.00     0.002 A 
HETATM   19  C   UNL     1      29.359  47.834  41.326  1.00  0.00     0.000 A 
HETATM   20  C   UNL     1      29.896  47.634  40.057  1.00  0.00     0.002 A 
HETATM   21  C   UNL     1      30.839  48.528  39.545  1.00  0.00     0.030 A 
ENDBRANCH   2  16
BRANCH   1  22
HETATM   22  C   UNL     1      30.977  51.411  37.671  1.00  0.00     0.256 C 
BRANCH  22  23
HETATM   23  O   UNL     1      30.151  52.475  38.127  1.00  0.00    -0.343 OA
BRANCH  23  24
HETATM   24  C   UNL     1      29.207  52.156  39.069  1.00  0.00     0.075 A 
HETATM   25  C   UNL     1      29.283  52.861  40.284  1.00  0.00    -0.029 A 
HETATM   26  C   UNL     1      30.295  53.951  40.502  1.00  0.00     0.051 C 
HETATM   27  C   UNL     1      28.339  52.598  41.290  1.00  0.00     0.009 A 
HETATM   28  C   UNL     1      27.357  51.626  41.108  1.00  0.00     0.001 A 
HETATM   29  C   UNL     1      27.302  50.912  39.916  1.00  0.00     0.003 A 
HETATM   30  C   UNL     1      28.224  51.175  38.900  1.00  0.00     0.037 A 
ENDBRANCH  23  24
ENDBRANCH  22  23
ENDBRANCH   1  22
TORSDOF 9
ENDMDL
MODEL 10
REMARK VINA RESULT:      -7.9      3.058     10.593
REMARK  9 active torsions:
REMARK  status: ('A' for Active; 'I' for Inactive)
REMARK    1  A    between atoms: C_3  and  O_4 
REMARK    2  A    between atoms: O_4  and  C_5 
REMARK    3  A    between atoms: C_5  and  C_6 
REMARK    4  A    between atoms: N_7  and  C_8 
REMARK    5  A    between atoms: C_14  and  S_15 
REMARK    6  A    between atoms: S_15  and  C_16 
REMARK    7  A    between atoms: C_16  and  C_17 
REMARK       I    between atoms: C_17  and  N_18 
REMARK    8  A    between atoms: N_18  and  C_19 
REMARK    9  A    between atoms: C_19  and  C_20 
ROOT
HETATM    1  C   UNL     1      22.931  48.383  49.111  1.00  0.00     0.160 A 
HETATM    2  N   UNL     1      22.708  47.024  48.888  1.00  0.00    -0.274 N 
HETATM    3  C   UNL     1      23.770  46.417  49.541  1.00  0.00     0.196 A 
HETATM    4  N   UNL     1      24.533  47.312  50.121  1.00  0.00    -0.122 NA
HETATM    5  N   UNL     1      24.020  48.540  49.843  1.00  0.00    -0.131 NA
ENDROOT
BRANCH   3   6
HETATM    6  S   UNL     1      24.282  44.766  49.366  1.00  0.00    -0.081 SA
BRANCH   6   7
HETATM    7  C   UNL     1      26.083  44.981  49.456  1.00  0.00     0.185 C 
BRANCH   7   8
HETATM    8  C   UNL     1      26.842  43.789  50.022  1.00  0.00     0.227 C 
HETATM    9  N   UNL     1      27.126  43.818  51.365  1.00  0.00    -0.360 N 
HETATM   10  H   UNL     1      26.818  44.614  51.921  1.00  0.00     0.162 HD
HETATM   11  O   UNL     1      27.263  42.902  49.280  1.00  0.00    -0.273 OA
BRANCH   9  12
HETATM   12  C   UNL     1      28.019  42.881  52.011  1.00  0.00     0.126 C 
BRANCH  12  13
HETATM   13  C   UNL     1      29.133  43.592  52.799  1.00  0.00    -0.005 C 
HETATM   14  C   UNL     1      28.590  44.305  54.040  1.00  0.00     0.011 C 
HETATM   15  C   UNL     1      30.207  42.583  53.206  1.00  0.00     0.011 C 
ENDBRANCH  12  13
ENDBRANCH   9  12
ENDBRANCH   7   8
ENDBRANCH   6   7
ENDBRANCH   3   6
BRANCH   2  16
HETATM   16  C   UNL     1      21.664  46.401  48.148  1.00  0.00     0.043 A 
HETATM   17  C   UNL     1      20.435  46.105  48.751  1.00  0.00     0.030 A 
HETATM   18  C   UNL     1      19.417  45.498  48.009  1.00  0.00     0.002 A 
HETATM   19  C   UNL     1      19.617  45.185  46.667  1.00  0.00     0.000 A 
HETATM   20  C   UNL     1      20.836  45.477  46.061  1.00  0.00     0.002 A 
HETATM   21  C   UNL     1      21.858  46.082  46.797  1.00  0.00     0.030 A 
ENDBRANCH   2  16
BRANCH   1  22
HETATM   22  C   UNL     1      22.060  49.517  48.692  1.00  0.00     0.256 C 
BRANCH  22  23
HETATM   23  O   UNL     1      21.131  49.760  49.743  1.00  0.00    -0.343 OA
BRANCH  23  24
HETATM   24  C   UNL     1      20.096  50.613  49.458  1.00  0.00     0.075 A 
HETATM   25  C   UNL     1      18.859  50.302  50.050  1.00  0.00    -0.029 A 
HETATM   26  C   UNL     1      18.706  49.145  50.997  1.00  0.00     0.051 C 
HETATM   27  C   UNL     1      17.756  51.140  49.816  1.00  0.00     0.009 A 
HETATM   28  C   UNL     1      17.870  52.248  48.978  1.00  0.00     0.001 A 
HETATM   29  C   UNL     1      19.088  52.536  48.373  1.00  0.00     0.003 A 
HETATM   30  C   UNL     1      20.198  51.722  48.611  1.00  0.00     0.037 A 
ENDBRANCH  23  24
ENDBRANCH  22  23
ENDBRANCH   1  22
TORSDOF 9
ENDMDL
