MODEL 1
REMARK VINA RESULT:     -10.6      0.000      0.000
REMARK  5 active torsions:
REMARK  status: ('A' for Active; 'I' for Inactive)
REMARK    1  A    between atoms: C_4  and  C_5 
REMARK    2  A    between atoms: C_6  and  N_7 
REMARK    3  A    between atoms: C_9  and  C_10 
REMARK       I    between atoms: C_10  and  N_11 
REMARK    4  A    between atoms: N_11  and  C_12 
REMARK    5  A    between atoms: C_12  and  C_13 
ROOT
HETATM    1  C   UNL     1      28.392  44.572  54.432  1.00  0.00     0.019 A 
HETATM    2  C   UNL     1      27.470  45.533  54.160  1.00  0.00     0.111 A 
HETATM    3  C   UNL     1      27.383  46.753  55.073  1.00  0.00     0.273 A 
HETATM    4  O   UNL     1      26.546  47.641  54.913  1.00  0.00    -0.266 OA
HETATM    5  N   UNL     1      28.262  46.838  56.111  1.00  0.00    -0.321 N 
HETATM    6  C   UNL     1      29.216  45.869  56.401  1.00  0.00     0.046 A 
HETATM    7  C   UNL     1      29.311  44.731  55.592  1.00  0.00     0.006 A 
HETATM    8  C   UNL     1      30.059  46.055  57.501  1.00  0.00     0.032 A 
HETATM    9  C   UNL     1      31.018  45.091  57.805  1.00  0.00     0.026 A 
HETATM   10  C   UNL     1      31.129  43.954  57.008  1.00  0.00     0.035 A 
HETATM   11 CL   UNL     1      32.312  42.763  57.384  1.00  0.00    -0.084 Cl
HETATM   12  C   UNL     1      30.287  43.773  55.908  1.00  0.00     0.038 A 
HETATM   13  H   UNL     1      28.169  47.662  56.689  1.00  0.00     0.169 HD
ENDROOT
BRANCH   2  14
HETATM   14  N   UNL     1      26.547  45.460  53.088  1.00  0.00    -0.375 N 
HETATM   15  C   UNL     1      26.496  46.570  52.110  1.00  0.00     0.137 C 
HETATM   16  C   UNL     1      25.880  46.082  50.797  1.00  0.00     0.096 C 
HETATM   17  C   UNL     1      24.500  45.455  51.031  1.00  0.00     0.017 C 
HETATM   18  C   UNL     1      24.580  44.370  52.102  1.00  0.00     0.021 C 
HETATM   19  C   UNL     1      25.212  44.908  53.384  1.00  0.00     0.123 C 
BRANCH  16  20
HETATM   20  C   UNL     1      25.831  47.220  49.787  1.00  0.00     0.223 C 
HETATM   21  N   UNL     1      24.607  47.819  49.615  1.00  0.00    -0.358 N 
HETATM   22  H   UNL     1      23.871  47.669  50.298  1.00  0.00     0.162 HD
HETATM   23  O   UNL     1      26.834  47.577  49.174  1.00  0.00    -0.273 OA
BRANCH  21  24
HETATM   24  C   UNL     1      24.456  49.014  48.801  1.00  0.00     0.154 C 
BRANCH  24  25
HETATM   25  C   UNL     1      22.987  49.421  48.695  1.00  0.00     0.139 C 
HETATM   26  O   UNL     1      22.454  49.695  50.011  1.00  0.00    -0.384 OA
HETATM   27  C   UNL     1      21.638  50.874  49.930  1.00  0.00     0.168 C 
HETATM   28  C   UNL     1      21.474  51.198  48.460  1.00  0.00     0.029 C 
HETATM   29  C   UNL     1      22.767  50.683  47.880  1.00  0.00     0.035 C 
ENDBRANCH  24  25
ENDBRANCH  21  24
ENDBRANCH  16  20
ENDBRANCH   2  14
BRANCH   1  30
HETATM   30  C   UNL     1      28.444  43.393  53.527  1.00  0.00    -0.023 A 
HETATM   31  C   UNL     1      28.110  42.118  54.001  1.00  0.00     0.012 A 
HETATM   32  C   UNL     1      28.129  41.020  53.140  1.00  0.00     0.001 A 
HETATM   33  C   UNL     1      28.481  41.188  51.802  1.00  0.00     0.000 A 
HETATM   34  C   UNL     1      28.815  42.454  51.320  1.00  0.00     0.001 A 
HETATM   35  C   UNL     1      28.797  43.555  52.179  1.00  0.00     0.012 A 
ENDBRANCH   1  30
TORSDOF 5
ENDMDL
MODEL 2
REMARK VINA RESULT:      -9.4      3.697      5.687
REMARK  5 active torsions:
REMARK  status: ('A' for Active; 'I' for Inactive)
REMARK    1  A    between atoms: C_4  and  C_5 
REMARK    2  A    between atoms: C_6  and  N_7 
REMARK    3  A    between atoms: C_9  and  C_10 
REMARK       I    between atoms: C_10  and  N_11 
REMARK    4  A    between atoms: N_11  and  C_12 
REMARK    5  A    between atoms: C_12  and  C_13 
ROOT
HETATM    1  C   UNL     1      26.485  42.021  50.372  1.00  0.00     0.019 A 
HETATM    2  C   UNL     1      27.145  42.950  51.113  1.00  0.00     0.111 A 
HETATM    3  C   UNL     1      28.487  42.580  51.737  1.00  0.00     0.273 A 
HETATM    4  O   UNL     1      29.121  43.354  52.454  1.00  0.00    -0.266 OA
HETATM    5  N   UNL     1      28.982  41.332  51.495  1.00  0.00    -0.321 N 
HETATM    6  C   UNL     1      28.325  40.372  50.735  1.00  0.00     0.046 A 
HETATM    7  C   UNL     1      27.085  40.676  50.162  1.00  0.00     0.006 A 
HETATM    8  C   UNL     1      28.921  39.119  50.563  1.00  0.00     0.032 A 
HETATM    9  C   UNL     1      28.273  38.145  49.806  1.00  0.00     0.026 A 
HETATM   10  C   UNL     1      27.040  38.433  49.225  1.00  0.00     0.035 A 
HETATM   11 CL   UNL     1      26.239  37.230  48.290  1.00  0.00    -0.084 Cl
HETATM   12  C   UNL     1      26.448  39.686  49.395  1.00  0.00     0.038 A 
HETATM   13  H   UNL     1      29.873  41.131  51.928  1.00  0.00     0.169 HD
ENDROOT
BRANCH   2  14
HETATM   14  N   UNL     1      26.645  44.250  51.377  1.00  0.00    -0.375 N 
HETATM   15  C   UNL     1      26.952  45.341  50.426  1.00  0.00     0.137 C 
HETATM   16  C   UNL     1      25.924  46.465  50.571  1.00  0.00     0.096 C 
HETATM   17  C   UNL     1      25.849  46.965  52.019  1.00  0.00     0.017 C 
HETATM   18  C   UNL     1      25.611  45.799  52.976  1.00  0.00     0.021 C 
HETATM   19  C   UNL     1      26.657  44.704  52.780  1.00  0.00     0.123 C 
BRANCH  16  20
HETATM   20  C   UNL     1      26.233  47.587  49.590  1.00  0.00     0.223 C 
HETATM   21  N   UNL     1      25.204  48.462  49.333  1.00  0.00    -0.358 N 
HETATM   22  H   UNL     1      24.398  48.487  49.950  1.00  0.00     0.162 HD
HETATM   23  O   UNL     1      27.340  47.698  49.070  1.00  0.00    -0.273 OA
BRANCH  21  24
HETATM   24  C   UNL     1      25.411  49.663  48.541  1.00  0.00     0.154 C 
BRANCH  24  25
HETATM   25  C   UNL     1      24.091  50.167  47.960  1.00  0.00     0.139 C 
HETATM   26  O   UNL     1      23.251  49.048  47.597  1.00  0.00    -0.384 OA
HETATM   27  C   UNL     1      21.906  49.341  48.005  1.00  0.00     0.168 C 
HETATM   28  C   UNL     1      21.878  50.797  48.421  1.00  0.00     0.029 C 
HETATM   29  C   UNL     1      23.281  51.001  48.936  1.00  0.00     0.035 C 
ENDBRANCH  24  25
ENDBRANCH  21  24
ENDBRANCH  16  20
ENDBRANCH   2  14
BRANCH   1  30
HETATM   30  C   UNL     1      25.176  42.414  49.785  1.00  0.00    -0.023 A 
HETATM   31  C   UNL     1      24.039  42.524  50.596  1.00  0.00     0.012 A 
HETATM   32  C   UNL     1      22.819  42.924  50.047  1.00  0.00     0.001 A 
HETATM   33  C   UNL     1      22.728  43.216  48.687  1.00  0.00     0.000 A 
HETATM   34  C   UNL     1      23.855  43.109  47.872  1.00  0.00     0.001 A 
HETATM   35  C   UNL     1      25.076  42.710  48.418  1.00  0.00     0.012 A 
ENDBRANCH   1  30
TORSDOF 5
ENDMDL
MODEL 3
REMARK VINA RESULT:      -9.3     12.998     16.086
REMARK  5 active torsions:
REMARK  status: ('A' for Active; 'I' for Inactive)
REMARK    1  A    between atoms: C_4  and  C_5 
REMARK    2  A    between atoms: C_6  and  N_7 
REMARK    3  A    between atoms: C_9  and  C_10 
REMARK       I    between atoms: C_10  and  N_11 
REMARK    4  A    between atoms: N_11  and  C_12 
REMARK    5  A    between atoms: C_12  and  C_13 
ROOT
HETATM    1  C   UNL     1      30.202  49.358  40.128  1.00  0.00     0.019 A 
HETATM    2  C   UNL     1      31.359  49.006  40.750  1.00  0.00     0.111 A 
HETATM    3  C   UNL     1      31.876  47.579  40.597  1.00  0.00     0.273 A 
HETATM    4  O   UNL     1      32.892  47.178  41.163  1.00  0.00    -0.266 OA
HETATM    5  N   UNL     1      31.163  46.722  39.811  1.00  0.00    -0.321 N 
HETATM    6  C   UNL     1      29.983  47.066  39.161  1.00  0.00     0.046 A 
HETATM    7  C   UNL     1      29.474  48.363  39.295  1.00  0.00     0.006 A 
HETATM    8  C   UNL     1      29.328  46.101  38.390  1.00  0.00     0.032 A 
HETATM    9  C   UNL     1      28.142  46.430  37.736  1.00  0.00     0.026 A 
HETATM   10  C   UNL     1      27.625  47.717  37.855  1.00  0.00     0.035 A 
HETATM   11 CL   UNL     1      26.160  48.123  37.048  1.00  0.00    -0.084 Cl
HETATM   12  C   UNL     1      28.283  48.680  38.624  1.00  0.00     0.038 A 
HETATM   13  H   UNL     1      31.543  45.789  39.737  1.00  0.00     0.169 HD
ENDROOT
BRANCH   2  14
HETATM   14  N   UNL     1      32.110  49.882  41.572  1.00  0.00    -0.375 N 
HETATM   15  C   UNL     1      33.537  50.115  41.254  1.00  0.00     0.137 C 
HETATM   16  C   UNL     1      34.000  51.437  41.870  1.00  0.00     0.096 C 
HETATM   17  C   UNL     1      33.733  51.469  43.380  1.00  0.00     0.017 C 
HETATM   18  C   UNL     1      32.269  51.145  43.672  1.00  0.00     0.021 C 
HETATM   19  C   UNL     1      31.859  49.824  43.025  1.00  0.00     0.123 C 
BRANCH  16  20
HETATM   20  C   UNL     1      35.465  51.683  41.539  1.00  0.00     0.223 C 
HETATM   21  N   UNL     1      36.029  52.802  42.104  1.00  0.00    -0.358 N 
HETATM   22  H   UNL     1      35.561  53.268  42.875  1.00  0.00     0.162 HD
HETATM   23  O   UNL     1      36.097  50.918  40.816  1.00  0.00    -0.273 OA
BRANCH  21  24
HETATM   24  C   UNL     1      37.454  53.069  41.997  1.00  0.00     0.154 C 
BRANCH  24  25
HETATM   25  C   UNL     1      38.041  53.452  43.355  1.00  0.00     0.139 C 
HETATM   26  O   UNL     1      38.623  54.774  43.287  1.00  0.00    -0.384 OA
HETATM   27  C   UNL     1      38.267  55.486  44.481  1.00  0.00     0.168 C 
HETATM   28  C   UNL     1      37.640  54.481  45.425  1.00  0.00     0.029 C 
HETATM   29  C   UNL     1      37.007  53.504  44.465  1.00  0.00     0.035 C 
ENDBRANCH  24  25
ENDBRANCH  21  24
ENDBRANCH  16  20
ENDBRANCH   2  14
BRANCH   1  30
HETATM   30  C   UNL     1      29.723  50.755  40.306  1.00  0.00    -0.023 A 
HETATM   31  C   UNL     1      30.186  51.776  39.466  1.00  0.00     0.012 A 
HETATM   32  C   UNL     1      29.710  53.080  39.615  1.00  0.00     0.001 A 
HETATM   33  C   UNL     1      28.770  53.370  40.603  1.00  0.00     0.000 A 
HETATM   34  C   UNL     1      28.304  52.360  41.444  1.00  0.00     0.001 A 
HETATM   35  C   UNL     1      28.778  51.055  41.297  1.00  0.00     0.012 A 
ENDBRANCH   1  30
TORSDOF 5
ENDMDL
MODEL 4
REMARK VINA RESULT:      -9.2      1.663      2.225
REMARK  5 active torsions:
REMARK  status: ('A' for Active; 'I' for Inactive)
REMARK    1  A    between atoms: C_4  and  C_5 
REMARK    2  A    between atoms: C_6  and  N_7 
REMARK    3  A    between atoms: C_9  and  C_10 
REMARK       I    between atoms: C_10  and  N_11 
REMARK    4  A    between atoms: N_11  and  C_12 
REMARK    5  A    between atoms: C_12  and  C_13 
ROOT
HETATM    1  C   UNL     1      27.294  44.960  53.149  1.00  0.00     0.019 A 
HETATM    2  C   UNL     1      26.373  45.929  52.904  1.00  0.00     0.111 A 
HETATM    3  C   UNL     1      26.283  47.120  53.853  1.00  0.00     0.273 A 
HETATM    4  O   UNL     1      25.447  48.014  53.719  1.00  0.00    -0.266 OA
HETATM    5  N   UNL     1      27.159  47.173  54.897  1.00  0.00    -0.321 N 
HETATM    6  C   UNL     1      28.113  46.195  55.160  1.00  0.00     0.046 A 
HETATM    7  C   UNL     1      28.209  45.083  54.316  1.00  0.00     0.006 A 
HETATM    8  C   UNL     1      28.952  46.347  56.267  1.00  0.00     0.032 A 
HETATM    9  C   UNL     1      29.910  45.373  56.544  1.00  0.00     0.026 A 
HETATM   10  C   UNL     1      30.022  44.262  55.713  1.00  0.00     0.035 A 
HETATM   11 CL   UNL     1      31.205  43.060  56.055  1.00  0.00    -0.084 Cl
HETATM   12  C   UNL     1      29.185  44.115  54.605  1.00  0.00     0.038 A 
HETATM   13  H   UNL     1      27.064  47.979  55.499  1.00  0.00     0.169 HD
ENDROOT
BRANCH   2  14
HETATM   14  N   UNL     1      25.453  45.890  51.827  1.00  0.00    -0.375 N 
HETATM   15  C   UNL     1      24.952  47.164  51.266  1.00  0.00     0.137 C 
HETATM   16  C   UNL     1      24.444  46.943  49.840  1.00  0.00     0.096 C 
HETATM   17  C   UNL     1      23.384  45.836  49.794  1.00  0.00     0.017 C 
HETATM   18  C   UNL     1      23.910  44.563  50.453  1.00  0.00     0.021 C 
HETATM   19  C   UNL     1      24.414  44.844  51.867  1.00  0.00     0.123 C 
BRANCH  16  20
HETATM   20  C   UNL     1      23.934  48.253  49.257  1.00  0.00     0.223 C 
HETATM   21  N   UNL     1      22.701  48.669  49.699  1.00  0.00    -0.358 N 
HETATM   22  H   UNL     1      22.298  48.253  50.533  1.00  0.00     0.162 HD
HETATM   23  O   UNL     1      24.597  48.895  48.446  1.00  0.00    -0.273 OA
BRANCH  21  24
HETATM   24  C   UNL     1      22.169  49.974  49.343  1.00  0.00     0.154 C 
BRANCH  24  25
HETATM   25  C   UNL     1      20.653  49.914  49.162  1.00  0.00     0.139 C 
HETATM   26  O   UNL     1      20.100  48.848  49.967  1.00  0.00    -0.384 OA
HETATM   27  C   UNL     1      18.895  49.327  50.584  1.00  0.00     0.168 C 
HETATM   28  C   UNL     1      18.571  50.660  49.945  1.00  0.00     0.029 C 
HETATM   29  C   UNL     1      19.943  51.183  49.599  1.00  0.00     0.035 C 
ENDBRANCH  24  25
ENDBRANCH  21  24
ENDBRANCH  16  20
ENDBRANCH   2  14
BRANCH   1  30
HETATM   30  C   UNL     1      27.348  43.810  52.208  1.00  0.00    -0.023 A 
HETATM   31  C   UNL     1      27.545  44.023  50.837  1.00  0.00     0.012 A 
HETATM   32  C   UNL     1      27.628  42.939  49.961  1.00  0.00     0.001 A 
HETATM   33  C   UNL     1      27.515  41.638  50.449  1.00  0.00     0.000 A 
HETATM   34  C   UNL     1      27.319  41.416  51.812  1.00  0.00     0.001 A 
HETATM   35  C   UNL     1      27.236  42.498  52.690  1.00  0.00     0.012 A 
ENDBRANCH   1  30
TORSDOF 5
ENDMDL
MODEL 5
REMARK VINA RESULT:      -8.8     13.022     16.602
REMARK  5 active torsions:
REMARK  status: ('A' for Active; 'I' for Inactive)
REMARK    1  A    between atoms: C_4  and  C_5 
REMARK    2  A    between atoms: C_6  and  N_7 
REMARK    3  A    between atoms: C_9  and  C_10 
REMARK       I    between atoms: C_10  and  N_11 
REMARK    4  A    between atoms: N_11  and  C_12 
REMARK    5  A    between atoms: C_12  and  C_13 
ROOT
HETATM    1  C   UNL     1      29.965  49.353  40.035  1.00  0.00     0.019 A 
HETATM    2  C   UNL     1      31.132  48.972  40.620  1.00  0.00     0.111 A 
HETATM    3  C   UNL     1      31.610  47.534  40.448  1.00  0.00     0.273 A 
HETATM    4  O   UNL     1      32.633  47.106  40.982  1.00  0.00    -0.266 OA
HETATM    5  N   UNL     1      30.852  46.696  39.684  1.00  0.00    -0.321 N 
HETATM    6  C   UNL     1      29.660  47.069  39.073  1.00  0.00     0.046 A 
HETATM    7  C   UNL     1      29.188  48.378  39.224  1.00  0.00     0.006 A 
HETATM    8  C   UNL     1      28.958  46.122  38.321  1.00  0.00     0.032 A 
HETATM    9  C   UNL     1      27.760  46.480  37.706  1.00  0.00     0.026 A 
HETATM   10  C   UNL     1      27.278  47.780  37.842  1.00  0.00     0.035 A 
HETATM   11 CL   UNL     1      25.799  48.223  37.082  1.00  0.00    -0.084 Cl
HETATM   12  C   UNL     1      27.983  48.725  38.591  1.00  0.00     0.038 A 
HETATM   13  H   UNL     1      31.206  45.753  39.597  1.00  0.00     0.169 HD
ENDROOT
BRANCH   2  14
HETATM   14  N   UNL     1      31.931  49.828  41.419  1.00  0.00    -0.375 N 
HETATM   15  C   UNL     1      33.305  50.147  40.973  1.00  0.00     0.137 C 
HETATM   16  C   UNL     1      33.778  51.447  41.627  1.00  0.00     0.096 C 
HETATM   17  C   UNL     1      33.670  51.371  43.155  1.00  0.00     0.017 C 
HETATM   18  C   UNL     1      32.258  50.961  43.572  1.00  0.00     0.021 C 
HETATM   19  C   UNL     1      31.835  49.666  42.882  1.00  0.00     0.123 C 
BRANCH  16  20
HETATM   20  C   UNL     1      35.189  51.782  41.166  1.00  0.00     0.223 C 
HETATM   21  N   UNL     1      35.296  52.801  40.250  1.00  0.00    -0.358 N 
HETATM   22  H   UNL     1      34.513  53.430  40.101  1.00  0.00     0.162 HD
HETATM   23  O   UNL     1      36.166  51.177  41.599  1.00  0.00    -0.273 OA
BRANCH  21  24
HETATM   24  C   UNL     1      36.591  53.325  39.847  1.00  0.00     0.154 C 
BRANCH  24  25
HETATM   25  C   UNL     1      37.090  52.631  38.581  1.00  0.00     0.139 C 
HETATM   26  O   UNL     1      37.034  53.544  37.461  1.00  0.00    -0.384 OA
HETATM   27  C   UNL     1      38.234  53.386  36.689  1.00  0.00     0.168 C 
HETATM   28  C   UNL     1      38.946  52.162  37.224  1.00  0.00     0.029 C 
HETATM   29  C   UNL     1      38.534  52.169  38.675  1.00  0.00     0.035 C 
ENDBRANCH  24  25
ENDBRANCH  21  24
ENDBRANCH  16  20
ENDBRANCH   2  14
BRANCH   1  30
HETATM   30  C   UNL     1      29.527  50.761  40.229  1.00  0.00    -0.023 A 
HETATM   31  C   UNL     1      29.951  51.765  39.349  1.00  0.00     0.012 A 
HETATM   32  C   UNL     1      29.512  53.079  39.516  1.00  0.00     0.001 A 
HETATM   33  C   UNL     1      28.646  53.398  40.561  1.00  0.00     0.000 A 
HETATM   34  C   UNL     1      28.218  52.405  41.442  1.00  0.00     0.001 A 
HETATM   35  C   UNL     1      28.656  51.090  41.278  1.00  0.00     0.012 A 
ENDBRANCH   1  30
TORSDOF 5
ENDMDL
MODEL 6
REMARK VINA RESULT:      -8.7      3.105      4.935
REMARK  5 active torsions:
REMARK  status: ('A' for Active; 'I' for Inactive)
REMARK    1  A    between atoms: C_4  and  C_5 
REMARK    2  A    between atoms: C_6  and  N_7 
REMARK    3  A    between atoms: C_9  and  C_10 
REMARK       I    between atoms: C_10  and  N_11 
REMARK    4  A    between atoms: N_11  and  C_12 
REMARK    5  A    between atoms: C_12  and  C_13 
ROOT
HETATM    1  C   UNL     1      26.534  43.537  51.243  1.00  0.00     0.019 A 
HETATM    2  C   UNL     1      25.915  42.573  50.510  1.00  0.00     0.111 A 
HETATM    3  C   UNL     1      26.200  41.108  50.825  1.00  0.00     0.273 A 
HETATM    4  O   UNL     1      25.710  40.183  50.178  1.00  0.00    -0.266 OA
HETATM    5  N   UNL     1      27.047  40.830  51.857  1.00  0.00    -0.321 N 
HETATM    6  C   UNL     1      27.683  41.801  52.622  1.00  0.00     0.046 A 
HETATM    7  C   UNL     1      27.454  43.154  52.347  1.00  0.00     0.006 A 
HETATM    8  C   UNL     1      28.543  41.400  53.649  1.00  0.00     0.032 A 
HETATM    9  C   UNL     1      29.190  42.362  54.422  1.00  0.00     0.026 A 
HETATM   10  C   UNL     1      28.970  43.713  54.165  1.00  0.00     0.035 A 
HETATM   11 CL   UNL     1      29.769  44.902  55.119  1.00  0.00    -0.084 Cl
HETATM   12  C   UNL     1      28.108  44.111  53.140  1.00  0.00     0.038 A 
HETATM   13  H   UNL     1      27.207  39.847  52.031  1.00  0.00     0.169 HD
ENDROOT
BRANCH   2  14
HETATM   14  N   UNL     1      25.035  42.844  49.433  1.00  0.00    -0.375 N 
HETATM   15  C   UNL     1      23.796  43.609  49.696  1.00  0.00     0.137 C 
HETATM   16  C   UNL     1      23.291  44.248  48.401  1.00  0.00     0.096 C 
HETATM   17  C   UNL     1      23.097  43.195  47.302  1.00  0.00     0.017 C 
HETATM   18  C   UNL     1      24.372  42.375  47.116  1.00  0.00     0.021 C 
HETATM   19  C   UNL     1      24.836  41.771  48.440  1.00  0.00     0.123 C 
BRANCH  16  20
HETATM   20  C   UNL     1      22.020  45.041  48.669  1.00  0.00     0.223 C 
HETATM   21  N   UNL     1      22.167  46.405  48.746  1.00  0.00    -0.358 N 
HETATM   22  H   UNL     1      23.015  46.841  48.398  1.00  0.00     0.162 HD
HETATM   23  O   UNL     1      20.933  44.485  48.800  1.00  0.00    -0.273 OA
BRANCH  21  24
HETATM   24  C   UNL     1      21.016  47.287  48.841  1.00  0.00     0.154 C 
BRANCH  24  25
HETATM   25  C   UNL     1      21.388  48.715  48.446  1.00  0.00     0.139 C 
HETATM   26  O   UNL     1      20.991  49.636  49.488  1.00  0.00    -0.384 OA
HETATM   27  C   UNL     1      22.046  50.592  49.672  1.00  0.00     0.168 C 
HETATM   28  C   UNL     1      23.027  50.392  48.535  1.00  0.00     0.029 C 
HETATM   29  C   UNL     1      22.880  48.917  48.252  1.00  0.00     0.035 C 
ENDBRANCH  24  25
ENDBRANCH  21  24
ENDBRANCH  16  20
ENDBRANCH   2  14
BRANCH   1  30
HETATM   30  C   UNL     1      26.239  44.954  50.903  1.00  0.00    -0.023 A 
HETATM   31  C   UNL     1      25.295  45.680  51.642  1.00  0.00     0.012 A 
HETATM   32  C   UNL     1      25.044  47.019  51.340  1.00  0.00     0.001 A 
HETATM   33  C   UNL     1      25.734  47.642  50.301  1.00  0.00     0.000 A 
HETATM   34  C   UNL     1      26.675  46.927  49.560  1.00  0.00     0.001 A 
HETATM   35  C   UNL     1      26.929  45.587  49.859  1.00  0.00     0.012 A 
ENDBRANCH   1  30
TORSDOF 5
ENDMDL
MODEL 7
REMARK VINA RESULT:      -8.5      3.615      6.037
REMARK  5 active torsions:
REMARK  status: ('A' for Active; 'I' for Inactive)
REMARK    1  A    between atoms: C_4  and  C_5 
REMARK    2  A    between atoms: C_6  and  N_7 
REMARK    3  A    between atoms: C_9  and  C_10 
REMARK       I    between atoms: C_10  and  N_11 
REMARK    4  A    between atoms: N_11  and  C_12 
REMARK    5  A    between atoms: C_12  and  C_13 
ROOT
HETATM    1  C   UNL     1      24.834  46.134  50.757  1.00  0.00     0.019 A 
HETATM    2  C   UNL     1      24.093  45.139  50.203  1.00  0.00     0.111 A 
HETATM    3  C   UNL     1      23.952  43.818  50.952  1.00  0.00     0.273 A 
HETATM    4  O   UNL     1      23.332  42.858  50.494  1.00  0.00    -0.266 OA
HETATM    5  N   UNL     1      24.556  43.706  52.170  1.00  0.00    -0.321 N 
HETATM    6  C   UNL     1      25.312  44.715  52.756  1.00  0.00     0.046 A 
HETATM    7  C   UNL     1      25.473  45.933  52.086  1.00  0.00     0.006 A 
HETATM    8  C   UNL     1      25.897  44.485  54.004  1.00  0.00     0.032 A 
HETATM    9  C   UNL     1      26.660  45.486  54.603  1.00  0.00     0.026 A 
HETATM   10  C   UNL     1      26.827  46.706  53.952  1.00  0.00     0.035 A 
HETATM   11 CL   UNL     1      27.769  47.942  54.691  1.00  0.00    -0.084 Cl
HETATM   12  C   UNL     1      26.238  46.934  52.706  1.00  0.00     0.038 A 
HETATM   13  H   UNL     1      24.436  42.814  52.630  1.00  0.00     0.169 HD
ENDROOT
BRANCH   2  14
HETATM   14  N   UNL     1      23.461  45.236  48.938  1.00  0.00    -0.375 N 
HETATM   15  C   UNL     1      22.090  45.789  48.865  1.00  0.00     0.137 C 
HETATM   16  C   UNL     1      21.811  46.308  47.453  1.00  0.00     0.096 C 
HETATM   17  C   UNL     1      22.050  45.215  46.403  1.00  0.00     0.017 C 
HETATM   18  C   UNL     1      23.446  44.616  46.563  1.00  0.00     0.021 C 
HETATM   19  C   UNL     1      23.673  44.126  47.992  1.00  0.00     0.123 C 
BRANCH  16  20
HETATM   20  C   UNL     1      20.404  46.883  47.374  1.00  0.00     0.223 C 
HETATM   21  N   UNL     1      19.986  47.603  48.468  1.00  0.00    -0.358 N 
HETATM   22  H   UNL     1      20.667  47.924  49.149  1.00  0.00     0.162 HD
HETATM   23  O   UNL     1      19.696  46.713  46.385  1.00  0.00    -0.273 OA
BRANCH  21  24
HETATM   24  C   UNL     1      18.730  48.334  48.459  1.00  0.00     0.154 C 
BRANCH  24  25
HETATM   25  C   UNL     1      18.961  49.817  48.745  1.00  0.00     0.139 C 
HETATM   26  O   UNL     1      19.527  49.984  50.065  1.00  0.00    -0.384 OA
HETATM   27  C   UNL     1      20.564  50.975  49.989  1.00  0.00     0.168 C 
HETATM   28  C   UNL     1      20.468  51.610  48.618  1.00  0.00     0.029 C 
HETATM   29  C   UNL     1      19.935  50.473  47.783  1.00  0.00     0.035 C 
ENDBRANCH  24  25
ENDBRANCH  21  24
ENDBRANCH  16  20
ENDBRANCH   2  14
BRANCH   1  30
HETATM   30  C   UNL     1      24.957  47.406  49.996  1.00  0.00    -0.023 A 
HETATM   31  C   UNL     1      26.195  47.804  49.474  1.00  0.00     0.012 A 
HETATM   32  C   UNL     1      26.299  48.982  48.733  1.00  0.00     0.001 A 
HETATM   33  C   UNL     1      25.170  49.768  48.507  1.00  0.00     0.000 A 
HETATM   34  C   UNL     1      23.934  49.379  49.023  1.00  0.00     0.001 A 
HETATM   35  C   UNL     1      23.826  48.201  49.764  1.00  0.00     0.012 A 
ENDBRANCH   1  30
TORSDOF 5
ENDMDL
MODEL 8
REMARK VINA RESULT:      -8.5      5.026      6.683
REMARK  5 active torsions:
REMARK  status: ('A' for Active; 'I' for Inactive)
REMARK    1  A    between atoms: C_4  and  C_5 
REMARK    2  A    between atoms: C_6  and  N_7 
REMARK    3  A    between atoms: C_9  and  C_10 
REMARK       I    between atoms: C_10  and  N_11 
REMARK    4  A    between atoms: N_11  and  C_12 
REMARK    5  A    between atoms: C_12  and  C_13 
ROOT
HETATM    1  C   UNL     1      27.479  43.079  51.441  1.00  0.00     0.019 A 
HETATM    2  C   UNL     1      27.569  41.912  50.750  1.00  0.00     0.111 A 
HETATM    3  C   UNL     1      28.474  40.805  51.282  1.00  0.00     0.273 A 
HETATM    4  O   UNL     1      28.638  39.740  50.689  1.00  0.00    -0.266 OA
HETATM    5  N   UNL     1      29.133  41.029  52.455  1.00  0.00    -0.321 N 
HETATM    6  C   UNL     1      29.048  42.212  53.180  1.00  0.00     0.046 A 
HETATM    7  C   UNL     1      28.239  43.252  52.709  1.00  0.00     0.006 A 
HETATM    8  C   UNL     1      29.779  42.335  54.365  1.00  0.00     0.032 A 
HETATM    9  C   UNL     1      29.706  43.517  55.100  1.00  0.00     0.026 A 
HETATM   10  C   UNL     1      28.902  44.560  54.648  1.00  0.00     0.035 A 
HETATM   11 CL   UNL     1      28.812  46.019  55.555  1.00  0.00    -0.084 Cl
HETATM   12  C   UNL     1      28.170  44.433  53.465  1.00  0.00     0.038 A 
HETATM   13  H   UNL     1      29.720  40.269  52.771  1.00  0.00     0.169 HD
ENDROOT
BRANCH   2  14
HETATM   14  N   UNL     1      26.894  41.664  49.529  1.00  0.00    -0.375 N 
HETATM   15  C   UNL     1      25.467  41.271  49.567  1.00  0.00     0.137 C 
HETATM   16  C   UNL     1      24.805  41.579  48.223  1.00  0.00     0.096 C 
HETATM   17  C   UNL     1      25.557  40.908  47.067  1.00  0.00     0.017 C 
HETATM   18  C   UNL     1      27.039  41.275  47.109  1.00  0.00     0.021 C 
HETATM   19  C   UNL     1      27.646  40.958  48.474  1.00  0.00     0.123 C 
BRANCH  16  20
HETATM   20  C   UNL     1      23.336  41.182  48.260  1.00  0.00     0.223 C 
HETATM   21  N   UNL     1      22.951  40.215  47.361  1.00  0.00    -0.358 N 
HETATM   22  H   UNL     1      23.655  39.649  46.898  1.00  0.00     0.162 HD
HETATM   23  O   UNL     1      22.553  41.695  49.054  1.00  0.00    -0.273 OA
BRANCH  21  24
HETATM   24  C   UNL     1      21.619  39.635  47.397  1.00  0.00     0.154 C 
BRANCH  24  25
HETATM   25  C   UNL     1      20.773  40.137  46.227  1.00  0.00     0.139 C 
HETATM   26  O   UNL     1      20.319  41.484  46.488  1.00  0.00    -0.384 OA
HETATM   27  C   UNL     1      20.451  42.247  45.278  1.00  0.00     0.168 C 
HETATM   28  C   UNL     1      20.776  41.266  44.171  1.00  0.00     0.029 C 
HETATM   29  C   UNL     1      21.534  40.195  44.915  1.00  0.00     0.035 C 
ENDBRANCH  24  25
ENDBRANCH  21  24
ENDBRANCH  16  20
ENDBRANCH   2  14
BRANCH   1  30
HETATM   30  C   UNL     1      26.594  44.139  50.888  1.00  0.00    -0.023 A 
HETATM   31  C   UNL     1      25.247  44.208  51.269  1.00  0.00     0.012 A 
HETATM   32  C   UNL     1      24.428  45.224  50.773  1.00  0.00     0.001 A 
HETATM   33  C   UNL     1      24.948  46.175  49.896  1.00  0.00     0.000 A 
HETATM   34  C   UNL     1      26.287  46.113  49.511  1.00  0.00     0.001 A 
HETATM   35  C   UNL     1      27.109  45.099  50.006  1.00  0.00     0.012 A 
ENDBRANCH   1  30
TORSDOF 5
ENDMDL
MODEL 9
REMARK VINA RESULT:      -8.4      7.508     13.723
REMARK  5 active torsions:
REMARK  status: ('A' for Active; 'I' for Inactive)
REMARK    1  A    between atoms: C_4  and  C_5 
REMARK    2  A    between atoms: C_6  and  N_7 
REMARK    3  A    between atoms: C_9  and  C_10 
REMARK       I    between atoms: C_10  and  N_11 
REMARK    4  A    between atoms: N_11  and  C_12 
REMARK    5  A    between atoms: C_12  and  C_13 
ROOT
HETATM    1  C   UNL     1      17.444  50.781  45.945  1.00  0.00     0.019 A 
HETATM    2  C   UNL     1      18.003  49.546  45.843  1.00  0.00     0.111 A 
HETATM    3  C   UNL     1      18.044  48.863  44.480  1.00  0.00     0.273 A 
HETATM    4  O   UNL     1      18.496  47.730  44.319  1.00  0.00    -0.266 OA
HETATM    5  N   UNL     1      17.539  49.542  43.410  1.00  0.00    -0.321 N 
HETATM    6  C   UNL     1      16.969  50.808  43.493  1.00  0.00     0.046 A 
HETATM    7  C   UNL     1      16.904  51.454  44.733  1.00  0.00     0.006 A 
HETATM    8  C   UNL     1      16.472  51.404  42.331  1.00  0.00     0.032 A 
HETATM    9  C   UNL     1      15.895  52.671  42.400  1.00  0.00     0.026 A 
HETATM   10  C   UNL     1      15.825  53.330  43.624  1.00  0.00     0.035 A 
HETATM   11 CL   UNL     1      15.113  54.894  43.709  1.00  0.00    -0.084 Cl
HETATM   12  C   UNL     1      16.326  52.733  44.783  1.00  0.00     0.038 A 
HETATM   13  H   UNL     1      17.587  49.052  42.527  1.00  0.00     0.169 HD
ENDROOT
BRANCH   2  14
HETATM   14  N   UNL     1      18.530  48.825  46.944  1.00  0.00    -0.375 N 
HETATM   15  C   UNL     1      19.937  48.369  46.894  1.00  0.00     0.137 C 
HETATM   16  C   UNL     1      20.456  48.122  48.312  1.00  0.00     0.096 C 
HETATM   17  C   UNL     1      19.557  47.136  49.068  1.00  0.00     0.017 C 
HETATM   18  C   UNL     1      18.102  47.601  49.029  1.00  0.00     0.021 C 
HETATM   19  C   UNL     1      17.641  47.843  47.593  1.00  0.00     0.123 C 
BRANCH  16  20
HETATM   20  C   UNL     1      21.905  47.658  48.265  1.00  0.00     0.223 C 
HETATM   21  N   UNL     1      22.666  47.951  49.371  1.00  0.00    -0.358 N 
HETATM   22  H   UNL     1      22.212  48.227  50.237  1.00  0.00     0.162 HD
HETATM   23  O   UNL     1      22.354  47.054  47.294  1.00  0.00    -0.273 OA
BRANCH  21  24
HETATM   24  C   UNL     1      24.015  47.431  49.522  1.00  0.00     0.154 C 
BRANCH  24  25
HETATM   25  C   UNL     1      25.034  48.568  49.587  1.00  0.00     0.139 C 
HETATM   26  O   UNL     1      26.359  48.032  49.810  1.00  0.00    -0.384 OA
HETATM   27  C   UNL     1      27.279  48.739  48.964  1.00  0.00     0.168 C 
HETATM   28  C   UNL     1      26.525  49.913  48.375  1.00  0.00     0.029 C 
HETATM   29  C   UNL     1      25.117  49.377  48.306  1.00  0.00     0.035 C 
ENDBRANCH  24  25
ENDBRANCH  21  24
ENDBRANCH  16  20
ENDBRANCH   2  14
BRANCH   1  30
HETATM   30  C   UNL     1      17.414  51.414  47.291  1.00  0.00    -0.023 A 
HETATM   31  C   UNL     1      16.261  51.344  48.083  1.00  0.00     0.012 A 
HETATM   32  C   UNL     1      16.248  51.911  49.358  1.00  0.00     0.001 A 
HETATM   33  C   UNL     1      17.385  52.550  49.849  1.00  0.00     0.000 A 
HETATM   34  C   UNL     1      18.538  52.625  49.068  1.00  0.00     0.001 A 
HETATM   35  C   UNL     1      18.554  52.058  47.792  1.00  0.00     0.012 A 
ENDBRANCH   1  30
TORSDOF 5
ENDMDL
MODEL 10
REMARK VINA RESULT:      -8.2     12.777     15.420
REMARK  5 active torsions:
REMARK  status: ('A' for Active; 'I' for Inactive)
REMARK    1  A    between atoms: C_4  and  C_5 
REMARK    2  A    between atoms: C_6  and  N_7 
REMARK    3  A    between atoms: C_9  and  C_10 
REMARK       I    between atoms: C_10  and  N_11 
REMARK    4  A    between atoms: N_11  and  C_12 
REMARK    5  A    between atoms: C_12  and  C_13 
ROOT
HETATM    1  C   UNL     1      29.009  48.705  39.809  1.00  0.00     0.019 A 
HETATM    2  C   UNL     1      28.729  49.945  39.326  1.00  0.00     0.111 A 
HETATM    3  C   UNL     1      27.542  50.121  38.385  1.00  0.00     0.273 A 
HETATM    4  O   UNL     1      27.254  51.204  37.876  1.00  0.00    -0.266 OA
HETATM    5  N   UNL     1      26.791  49.021  38.091  1.00  0.00    -0.321 N 
HETATM    6  C   UNL     1      27.056  47.747  38.580  1.00  0.00     0.046 A 
HETATM    7  C   UNL     1      28.148  47.551  39.434  1.00  0.00     0.006 A 
HETATM    8  C   UNL     1      26.225  46.689  38.202  1.00  0.00     0.032 A 
HETATM    9  C   UNL     1      26.482  45.406  38.682  1.00  0.00     0.026 A 
HETATM   10  C   UNL     1      27.561  45.194  39.536  1.00  0.00     0.035 A 
HETATM   11 CL   UNL     1      27.878  43.609  40.128  1.00  0.00    -0.084 Cl
HETATM   12  C   UNL     1      28.388  46.253  39.914  1.00  0.00     0.038 A 
HETATM   13  H   UNL     1      26.015  49.185  37.464  1.00  0.00     0.169 HD
ENDROOT
BRANCH   2  14
HETATM   14  N   UNL     1      29.500  51.098  39.618  1.00  0.00    -0.375 N 
HETATM   15  C   UNL     1      30.972  50.973  39.696  1.00  0.00     0.137 C 
HETATM   16  C   UNL     1      31.624  52.339  39.474  1.00  0.00     0.096 C 
HETATM   17  C   UNL     1      31.081  53.381  40.459  1.00  0.00     0.017 C 
HETATM   18  C   UNL     1      29.555  53.423  40.406  1.00  0.00     0.021 C 
HETATM   19  C   UNL     1      28.959  52.033  40.622  1.00  0.00     0.123 C 
BRANCH  16  20
HETATM   20  C   UNL     1      33.139  52.214  39.547  1.00  0.00     0.223 C 
HETATM   21  N   UNL     1      33.629  51.405  40.544  1.00  0.00    -0.358 N 
HETATM   22  H   UNL     1      33.008  50.756  41.017  1.00  0.00     0.162 HD
HETATM   23  O   UNL     1      33.870  52.801  38.752  1.00  0.00    -0.273 OA
BRANCH  21  24
HETATM   24  C   UNL     1      35.043  51.075  40.627  1.00  0.00     0.154 C 
BRANCH  24  25
HETATM   25  C   UNL     1      35.529  51.119  42.074  1.00  0.00     0.139 C 
HETATM   26  O   UNL     1      36.656  52.018  42.190  1.00  0.00    -0.384 OA
HETATM   27  C   UNL     1      36.492  52.795  43.386  1.00  0.00     0.168 C 
HETATM   28  C   UNL     1      35.341  52.184  44.156  1.00  0.00     0.029 C 
HETATM   29  C   UNL     1      34.481  51.631  43.047  1.00  0.00     0.035 C 
ENDBRANCH  24  25
ENDBRANCH  21  24
ENDBRANCH  16  20
ENDBRANCH   2  14
BRANCH   1  30
HETATM   30  C   UNL     1      30.178  48.569  40.718  1.00  0.00    -0.023 A 
HETATM   31  C   UNL     1      30.071  48.924  42.070  1.00  0.00     0.012 A 
HETATM   32  C   UNL     1      31.161  48.764  42.927  1.00  0.00     0.001 A 
HETATM   33  C   UNL     1      32.362  48.249  42.440  1.00  0.00     0.000 A 
HETATM   34  C   UNL     1      32.477  47.894  41.097  1.00  0.00     0.001 A 
HETATM   35  C   UNL     1      31.389  48.052  40.237  1.00  0.00     0.012 A 
ENDBRANCH   1  30
TORSDOF 5
ENDMDL
