MODEL 1
REMARK VINA RESULT:      -8.7      0.000      0.000
REMARK  8 active torsions:
REMARK  status: ('A' for Active; 'I' for Inactive)
REMARK    1  A    between atoms: C_2  and  N_3 
REMARK       I    between atoms: N_3  and  C_4 
REMARK    2  A    between atoms: C_4  and  C_5 
REMARK    3  A    between atoms: C_5  and  O_6 
REMARK    4  A    between atoms: O_6  and  C_7 
REMARK    5  A    between atoms: C_8  and  O_9 
REMARK    6  A    between atoms: C_12  and  C_13 
REMARK    7  A    between atoms: C_13  and  N_14 
REMARK    8  A    between atoms: N_14  and  C_15 
ROOT
HETATM    1  C   UNL     1      25.219  47.462  50.257  1.00  0.00     0.102 A 
HETATM    2  C   UNL     1      26.451  47.262  49.611  1.00  0.00     0.102 A 
HETATM    3  C   UNL     1      27.209  46.118  49.909  1.00  0.00     0.048 A 
HETATM    4  C   UNL     1      26.748  45.146  50.803  1.00  0.00    -0.042 A 
HETATM    5  C   UNL     1      25.521  45.352  51.439  1.00  0.00     0.011 A 
HETATM    6  C   UNL     1      24.763  46.493  51.163  1.00  0.00     0.040 A 
ENDROOT
BRANCH   4   7
HETATM    7  C   UNL     1      27.557  43.904  51.085  1.00  0.00     0.131 C 
BRANCH   7   8
HETATM    8  N   UNL     1      27.321  43.469  52.456  1.00  0.00    -0.289 NA
HETATM    9  H   UNL     1      26.392  43.733  52.776  1.00  0.00     0.128 HD
BRANCH   8  10
HETATM   10  C   UNL     1      28.306  43.730  53.422  1.00  0.00     0.010 A 
HETATM   11  C   UNL     1      28.061  44.744  54.366  1.00  0.00     0.055 A 
HETATM   12  C   UNL     1      29.003  44.950  55.348  1.00  0.00     0.065 A 
HETATM   13  C   UNL     1      30.150  44.173  55.452  1.00  0.00     0.063 A 
HETATM   14  N   UNL     1      29.029  45.887  56.378  1.00  0.00    -0.306 N 
HETATM   15  N   UNL     1      30.884  44.627  56.540  1.00  0.00    -0.307 N 
HETATM   16  C   UNL     1      30.411  43.145  54.582  1.00  0.00     0.034 A 
HETATM   17  C   UNL     1      30.197  45.699  57.130  1.00  0.00     0.325 A 
HETATM   18  H   UNL     1      31.761  44.268  56.881  1.00  0.00     0.170 HD
HETATM   19  O   UNL     1      30.548  46.340  58.104  1.00  0.00    -0.247 OA
HETATM   20  C   UNL     1      29.466  42.923  53.570  1.00  0.00     0.026 A 
HETATM   21  H   UNL     1      28.340  46.593  56.579  1.00  0.00     0.170 HD
ENDBRANCH   8  10
ENDBRANCH   7   8
ENDBRANCH   4   7
BRANCH   2  22
HETATM   22  O   UNL     1      27.076  48.072  48.700  1.00  0.00    -0.353 OA
HETATM   23  C   UNL     1      27.839  49.172  49.173  1.00  0.00     0.210 C 
ENDBRANCH   2  22
BRANCH   1  24
HETATM   24  O   UNL     1      24.478  48.568  49.934  1.00  0.00    -0.339 OA
BRANCH  24  25
HETATM   25  C   UNL     1      23.650  48.509  48.776  1.00  0.00     0.278 C 
BRANCH  25  26
HETATM   26  C   UNL     1      22.451  49.466  48.794  1.00  0.00     0.242 C 
HETATM   27  N   UNL     1      21.335  48.966  49.431  1.00  0.00    -0.351 N 
HETATM   28  H   UNL     1      21.387  47.987  49.697  1.00  0.00     0.163 HD
HETATM   29  O   UNL     1      22.514  50.580  48.282  1.00  0.00    -0.271 OA
BRANCH  27  30
HETATM   30  C   UNL     1      20.040  49.645  49.551  1.00  0.00     0.022 C 
HETATM   31  C   UNL     1      19.442  49.912  48.163  1.00  0.00     0.037 C 
HETATM   32  C   UNL     1      20.166  50.962  50.334  1.00  0.00     0.037 C 
HETATM   33  C   UNL     1      19.088  48.717  50.329  1.00  0.00     0.037 C 
ENDBRANCH  27  30
ENDBRANCH  25  26
ENDBRANCH  24  25
ENDBRANCH   1  24
TORSDOF 8
ENDMDL
MODEL 2
REMARK VINA RESULT:      -8.6      1.593      2.188
REMARK  8 active torsions:
REMARK  status: ('A' for Active; 'I' for Inactive)
REMARK    1  A    between atoms: C_2  and  N_3 
REMARK       I    between atoms: N_3  and  C_4 
REMARK    2  A    between atoms: C_4  and  C_5 
REMARK    3  A    between atoms: C_5  and  O_6 
REMARK    4  A    between atoms: O_6  and  C_7 
REMARK    5  A    between atoms: C_8  and  O_9 
REMARK    6  A    between atoms: C_12  and  C_13 
REMARK    7  A    between atoms: C_13  and  N_14 
REMARK    8  A    between atoms: N_14  and  C_15 
ROOT
HETATM    1  C   UNL     1      23.726  45.728  49.511  1.00  0.00     0.102 A 
HETATM    2  C   UNL     1      24.492  46.585  50.320  1.00  0.00     0.102 A 
HETATM    3  C   UNL     1      25.187  46.057  51.420  1.00  0.00     0.048 A 
HETATM    4  C   UNL     1      25.171  44.688  51.709  1.00  0.00    -0.042 A 
HETATM    5  C   UNL     1      24.408  43.844  50.898  1.00  0.00     0.011 A 
HETATM    6  C   UNL     1      23.700  44.357  49.808  1.00  0.00     0.040 A 
ENDROOT
BRANCH   4   7
HETATM    7  C   UNL     1      25.953  44.131  52.873  1.00  0.00     0.131 C 
BRANCH   7   8
HETATM    8  N   UNL     1      27.354  43.990  52.496  1.00  0.00    -0.289 NA
HETATM    9  H   UNL     1      27.503  43.168  51.914  1.00  0.00     0.128 HD
BRANCH   8  10
HETATM   10  C   UNL     1      28.334  44.114  53.493  1.00  0.00     0.010 A 
HETATM   11  C   UNL     1      28.174  45.118  54.465  1.00  0.00     0.055 A 
HETATM   12  C   UNL     1      29.105  45.192  55.475  1.00  0.00     0.065 A 
HETATM   13  C   UNL     1      30.161  44.293  55.579  1.00  0.00     0.063 A 
HETATM   14  N   UNL     1      29.203  46.088  56.536  1.00  0.00    -0.306 N 
HETATM   15  N   UNL     1      30.910  44.632  56.698  1.00  0.00    -0.307 N 
HETATM   16  C   UNL     1      30.334  43.271  54.682  1.00  0.00     0.034 A 
HETATM   17  C   UNL     1      30.325  45.752  57.308  1.00  0.00     0.325 A 
HETATM   18  H   UNL     1      31.733  44.171  57.047  1.00  0.00     0.170 HD
HETATM   19  O   UNL     1      30.716  46.321  58.311  1.00  0.00    -0.247 OA
HETATM   20  C   UNL     1      29.397  43.182  53.641  1.00  0.00     0.026 A 
HETATM   21  H   UNL     1      28.588  46.857  56.745  1.00  0.00     0.170 HD
ENDBRANCH   8  10
ENDBRANCH   7   8
ENDBRANCH   4   7
BRANCH   2  22
HETATM   22  O   UNL     1      24.655  47.941  50.208  1.00  0.00    -0.353 OA
HETATM   23  C   UNL     1      25.729  48.438  49.425  1.00  0.00     0.210 C 
ENDBRANCH   2  22
BRANCH   1  24
HETATM   24  O   UNL     1      23.078  46.253  48.424  1.00  0.00    -0.339 OA
BRANCH  24  25
HETATM   25  C   UNL     1      21.669  46.451  48.510  1.00  0.00     0.278 C 
BRANCH  25  26
HETATM   26  C   UNL     1      21.238  47.901  48.762  1.00  0.00     0.242 C 
HETATM   27  N   UNL     1      22.171  48.844  48.388  1.00  0.00    -0.351 N 
HETATM   28  H   UNL     1      23.077  48.476  48.114  1.00  0.00     0.163 HD
HETATM   29  O   UNL     1      20.144  48.167  49.251  1.00  0.00    -0.271 OA
BRANCH  27  30
HETATM   30  C   UNL     1      22.040  50.296  48.561  1.00  0.00     0.022 C 
HETATM   31  C   UNL     1      21.975  50.656  50.051  1.00  0.00     0.037 C 
HETATM   32  C   UNL     1      20.801  50.839  47.831  1.00  0.00     0.037 C 
HETATM   33  C   UNL     1      23.286  50.961  47.946  1.00  0.00     0.037 C 
ENDBRANCH  27  30
ENDBRANCH  25  26
ENDBRANCH  24  25
ENDBRANCH   1  24
TORSDOF 8
ENDMDL
MODEL 3
REMARK VINA RESULT:      -8.5      2.064      2.773
REMARK  8 active torsions:
REMARK  status: ('A' for Active; 'I' for Inactive)
REMARK    1  A    between atoms: C_2  and  N_3 
REMARK       I    between atoms: N_3  and  C_4 
REMARK    2  A    between atoms: C_4  and  C_5 
REMARK    3  A    between atoms: C_5  and  O_6 
REMARK    4  A    between atoms: O_6  and  C_7 
REMARK    5  A    between atoms: C_8  and  O_9 
REMARK    6  A    between atoms: C_12  and  C_13 
REMARK    7  A    between atoms: C_13  and  N_14 
REMARK    8  A    between atoms: N_14  and  C_15 
ROOT
HETATM    1  C   UNL     1      24.260  45.550  50.089  1.00  0.00     0.102 A 
HETATM    2  C   UNL     1      24.803  46.673  50.735  1.00  0.00     0.102 A 
HETATM    3  C   UNL     1      25.328  46.537  52.031  1.00  0.00     0.048 A 
HETATM    4  C   UNL     1      25.363  45.298  52.680  1.00  0.00    -0.042 A 
HETATM    5  C   UNL     1      24.823  44.187  52.028  1.00  0.00     0.011 A 
HETATM    6  C   UNL     1      24.284  44.311  50.745  1.00  0.00     0.040 A 
ENDROOT
BRANCH   4   7
HETATM    7  C   UNL     1      25.964  45.161  54.058  1.00  0.00     0.131 C 
BRANCH   7   8
HETATM    8  N   UNL     1      27.180  45.960  54.141  1.00  0.00    -0.289 NA
HETATM    9  H   UNL     1      27.618  46.069  53.229  1.00  0.00     0.128 HD
BRANCH   8  10
HETATM   10  C   UNL     1      28.116  45.657  55.142  1.00  0.00     0.010 A 
HETATM   11  C   UNL     1      29.004  44.588  54.923  1.00  0.00     0.055 A 
HETATM   12  C   UNL     1      29.960  44.338  55.880  1.00  0.00     0.065 A 
HETATM   13  C   UNL     1      30.092  45.123  57.020  1.00  0.00     0.063 A 
HETATM   14  N   UNL     1      30.934  43.345  55.932  1.00  0.00    -0.306 N 
HETATM   15  N   UNL     1      31.143  44.617  57.775  1.00  0.00    -0.307 N 
HETATM   16  C   UNL     1      29.280  46.202  57.256  1.00  0.00     0.034 A 
HETATM   17  C   UNL     1      31.680  43.505  57.109  1.00  0.00     0.325 A 
HETATM   18  H   UNL     1      31.492  44.967  58.651  1.00  0.00     0.170 HD
HETATM   19  O   UNL     1      32.611  42.814  57.481  1.00  0.00    -0.247 OA
HETATM   20  C   UNL     1      28.294  46.469  56.294  1.00  0.00     0.026 A 
HETATM   21  H   UNL     1      31.104  42.620  55.254  1.00  0.00     0.170 HD
ENDBRANCH   8  10
ENDBRANCH   7   8
ENDBRANCH   4   7
BRANCH   2  22
HETATM   22  O   UNL     1      24.882  47.964  50.280  1.00  0.00    -0.353 OA
HETATM   23  C   UNL     1      26.007  48.346  49.503  1.00  0.00     0.210 C 
ENDBRANCH   2  22
BRANCH   1  24
HETATM   24  O   UNL     1      23.779  45.694  48.814  1.00  0.00    -0.339 OA
BRANCH  24  25
HETATM   25  C   UNL     1      22.406  46.037  48.646  1.00  0.00     0.278 C 
BRANCH  25  26
HETATM   26  C   UNL     1      22.160  47.412  48.011  1.00  0.00     0.242 C 
HETATM   27  N   UNL     1      22.280  48.470  48.886  1.00  0.00    -0.351 N 
HETATM   28  H   UNL     1      22.387  48.219  49.864  1.00  0.00     0.163 HD
HETATM   29  O   UNL     1      21.888  47.526  46.820  1.00  0.00    -0.271 OA
BRANCH  27  30
HETATM   30  C   UNL     1      22.051  49.883  48.560  1.00  0.00     0.022 C 
HETATM   31  C   UNL     1      20.707  50.056  47.838  1.00  0.00     0.037 C 
HETATM   32  C   UNL     1      23.190  50.453  47.699  1.00  0.00     0.037 C 
HETATM   33  C   UNL     1      22.008  50.674  49.880  1.00  0.00     0.037 C 
ENDBRANCH  27  30
ENDBRANCH  25  26
ENDBRANCH  24  25
ENDBRANCH   1  24
TORSDOF 8
ENDMDL
MODEL 4
REMARK VINA RESULT:      -8.4      1.340      2.004
REMARK  8 active torsions:
REMARK  status: ('A' for Active; 'I' for Inactive)
REMARK    1  A    between atoms: C_2  and  N_3 
REMARK       I    between atoms: N_3  and  C_4 
REMARK    2  A    between atoms: C_4  and  C_5 
REMARK    3  A    between atoms: C_5  and  O_6 
REMARK    4  A    between atoms: O_6  and  C_7 
REMARK    5  A    between atoms: C_8  and  O_9 
REMARK    6  A    between atoms: C_12  and  C_13 
REMARK    7  A    between atoms: C_13  and  N_14 
REMARK    8  A    between atoms: N_14  and  C_15 
ROOT
HETATM    1  C   UNL     1      24.315  46.709  49.949  1.00  0.00     0.102 A 
HETATM    2  C   UNL     1      24.124  45.323  49.819  1.00  0.00     0.102 A 
HETATM    3  C   UNL     1      24.705  44.455  50.758  1.00  0.00     0.048 A 
HETATM    4  C   UNL     1      25.436  44.939  51.849  1.00  0.00    -0.042 A 
HETATM    5  C   UNL     1      25.618  46.319  51.970  1.00  0.00     0.011 A 
HETATM    6  C   UNL     1      25.058  47.193  51.035  1.00  0.00     0.040 A 
ENDROOT
BRANCH   4   7
HETATM    7  C   UNL     1      26.023  43.996  52.870  1.00  0.00     0.131 C 
BRANCH   7   8
HETATM    8  N   UNL     1      27.414  43.722  52.537  1.00  0.00    -0.289 NA
HETATM    9  H   UNL     1      27.517  42.822  52.074  1.00  0.00     0.128 HD
BRANCH   8  10
HETATM   10  C   UNL     1      28.393  43.921  53.523  1.00  0.00     0.010 A 
HETATM   11  C   UNL     1      28.181  44.930  54.480  1.00  0.00     0.055 A 
HETATM   12  C   UNL     1      29.114  45.077  55.480  1.00  0.00     0.065 A 
HETATM   13  C   UNL     1      30.223  44.245  55.589  1.00  0.00     0.063 A 
HETATM   14  N   UNL     1      29.166  45.995  56.526  1.00  0.00    -0.306 N 
HETATM   15  N   UNL     1      30.959  44.648  56.696  1.00  0.00    -0.307 N 
HETATM   16  C   UNL     1      30.450  43.220  54.707  1.00  0.00     0.034 A 
HETATM   17  C   UNL     1      30.312  45.740  57.293  1.00  0.00     0.325 A 
HETATM   18  H   UNL     1      31.812  44.243  57.045  1.00  0.00     0.170 HD
HETATM   19  O   UNL     1      30.676  46.349  58.283  1.00  0.00    -0.247 OA
HETATM   20  C   UNL     1      29.512  43.059  53.676  1.00  0.00     0.026 A 
HETATM   21  H   UNL     1      28.508  46.729  56.728  1.00  0.00     0.170 HD
ENDBRANCH   8  10
ENDBRANCH   7   8
ENDBRANCH   4   7
BRANCH   2  22
HETATM   22  O   UNL     1      23.439  44.644  48.845  1.00  0.00    -0.353 OA
HETATM   23  C   UNL     1      22.057  44.382  49.039  1.00  0.00     0.210 C 
ENDBRANCH   2  22
BRANCH   1  24
HETATM   24  O   UNL     1      23.717  47.543  49.041  1.00  0.00    -0.339 OA
BRANCH  24  25
HETATM   25  C   UNL     1      23.938  48.945  49.168  1.00  0.00     0.278 C 
BRANCH  25  26
HETATM   26  C   UNL     1      22.667  49.803  49.118  1.00  0.00     0.242 C 
HETATM   27  N   UNL     1      21.513  49.127  49.450  1.00  0.00    -0.351 N 
HETATM   28  H   UNL     1      21.612  48.122  49.561  1.00  0.00     0.163 HD
HETATM   29  O   UNL     1      22.708  50.991  48.812  1.00  0.00    -0.271 OA
BRANCH  27  30
HETATM   30  C   UNL     1      20.156  49.687  49.438  1.00  0.00     0.022 C 
HETATM   31  C   UNL     1      19.715  49.996  48.000  1.00  0.00     0.037 C 
HETATM   32  C   UNL     1      20.064  50.955  50.302  1.00  0.00     0.037 C 
HETATM   33  C   UNL     1      19.202  48.634  50.032  1.00  0.00     0.037 C 
ENDBRANCH  27  30
ENDBRANCH  25  26
ENDBRANCH  24  25
ENDBRANCH   1  24
TORSDOF 8
ENDMDL
MODEL 5
REMARK VINA RESULT:      -8.4      1.872      2.769
REMARK  8 active torsions:
REMARK  status: ('A' for Active; 'I' for Inactive)
REMARK    1  A    between atoms: C_2  and  N_3 
REMARK       I    between atoms: N_3  and  C_4 
REMARK    2  A    between atoms: C_4  and  C_5 
REMARK    3  A    between atoms: C_5  and  O_6 
REMARK    4  A    between atoms: O_6  and  C_7 
REMARK    5  A    between atoms: C_8  and  O_9 
REMARK    6  A    between atoms: C_12  and  C_13 
REMARK    7  A    between atoms: C_13  and  N_14 
REMARK    8  A    between atoms: N_14  and  C_15 
ROOT
HETATM    1  C   UNL     1      24.034  46.794  49.730  1.00  0.00     0.102 A 
HETATM    2  C   UNL     1      23.736  45.424  49.819  1.00  0.00     0.102 A 
HETATM    3  C   UNL     1      24.326  44.654  50.835  1.00  0.00     0.048 A 
HETATM    4  C   UNL     1      25.173  45.227  51.791  1.00  0.00    -0.042 A 
HETATM    5  C   UNL     1      25.461  46.590  51.695  1.00  0.00     0.011 A 
HETATM    6  C   UNL     1      24.892  47.366  50.681  1.00  0.00     0.040 A 
ENDROOT
BRANCH   4   7
HETATM    7  C   UNL     1      25.770  44.393  52.898  1.00  0.00     0.131 C 
BRANCH   7   8
HETATM    8  N   UNL     1      27.218  44.347  52.746  1.00  0.00    -0.289 NA
HETATM    9  H   UNL     1      27.514  43.518  52.236  1.00  0.00     0.128 HD
BRANCH   8  10
HETATM   10  C   UNL     1      28.020  44.586  53.873  1.00  0.00     0.010 A 
HETATM   11  C   UNL     1      29.005  43.637  54.203  1.00  0.00     0.055 A 
HETATM   12  C   UNL     1      29.829  43.908  55.272  1.00  0.00     0.065 A 
HETATM   13  C   UNL     1      29.739  45.092  55.996  1.00  0.00     0.063 A 
HETATM   14  N   UNL     1      30.854  43.147  55.825  1.00  0.00    -0.306 N 
HETATM   15  N   UNL     1      30.703  45.061  56.995  1.00  0.00    -0.307 N 
HETATM   16  C   UNL     1      28.826  46.065  55.685  1.00  0.00     0.034 A 
HETATM   17  C   UNL     1      31.409  43.852  56.902  1.00  0.00     0.325 A 
HETATM   18  H   UNL     1      30.897  45.771  57.682  1.00  0.00     0.170 HD
HETATM   19  O   UNL     1      32.324  43.487  57.618  1.00  0.00    -0.247 OA
HETATM   20  C   UNL     1      27.972  45.804  54.603  1.00  0.00     0.026 A 
HETATM   21  H   UNL     1      31.171  42.239  55.525  1.00  0.00     0.170 HD
ENDBRANCH   8  10
ENDBRANCH   7   8
ENDBRANCH   4   7
BRANCH   2  22
HETATM   22  O   UNL     1      22.930  44.672  49.004  1.00  0.00    -0.353 OA
HETATM   23  C   UNL     1      23.512  44.009  47.893  1.00  0.00     0.210 C 
ENDBRANCH   2  22
BRANCH   1  24
HETATM   24  O   UNL     1      23.427  47.537  48.752  1.00  0.00    -0.339 OA
BRANCH  24  25
HETATM   25  C   UNL     1      22.925  48.825  49.098  1.00  0.00     0.278 C 
BRANCH  25  26
HETATM   26  C   UNL     1      21.400  48.965  49.012  1.00  0.00     0.242 C 
HETATM   27  N   UNL     1      20.956  50.263  48.876  1.00  0.00    -0.351 N 
HETATM   28  H   UNL     1      21.668  50.981  48.977  1.00  0.00     0.163 HD
HETATM   29  O   UNL     1      20.664  47.984  49.056  1.00  0.00    -0.271 OA
BRANCH  27  30
HETATM   30  C   UNL     1      19.552  50.689  48.820  1.00  0.00     0.022 C 
HETATM   31  C   UNL     1      18.858  50.429  50.164  1.00  0.00     0.037 C 
HETATM   32  C   UNL     1      18.794  49.977  47.688  1.00  0.00     0.037 C 
HETATM   33  C   UNL     1      19.526  52.202  48.535  1.00  0.00     0.037 C 
ENDBRANCH  27  30
ENDBRANCH  25  26
ENDBRANCH  24  25
ENDBRANCH   1  24
TORSDOF 8
ENDMDL
MODEL 6
REMARK VINA RESULT:      -8.3      1.512      2.203
REMARK  8 active torsions:
REMARK  status: ('A' for Active; 'I' for Inactive)
REMARK    1  A    between atoms: C_2  and  N_3 
REMARK       I    between atoms: N_3  and  C_4 
REMARK    2  A    between atoms: C_4  and  C_5 
REMARK    3  A    between atoms: C_5  and  O_6 
REMARK    4  A    between atoms: O_6  and  C_7 
REMARK    5  A    between atoms: C_8  and  O_9 
REMARK    6  A    between atoms: C_12  and  C_13 
REMARK    7  A    between atoms: C_13  and  N_14 
REMARK    8  A    between atoms: N_14  and  C_15 
ROOT
HETATM    1  C   UNL     1      23.878  46.342  49.527  1.00  0.00     0.102 A 
HETATM    2  C   UNL     1      24.869  46.979  50.292  1.00  0.00     0.102 A 
HETATM    3  C   UNL     1      25.468  46.289  51.359  1.00  0.00     0.048 A 
HETATM    4  C   UNL     1      25.134  44.962  51.653  1.00  0.00    -0.042 A 
HETATM    5  C   UNL     1      24.148  44.337  50.885  1.00  0.00     0.011 A 
HETATM    6  C   UNL     1      23.533  45.017  49.830  1.00  0.00     0.040 A 
ENDROOT
BRANCH   4   7
HETATM    7  C   UNL     1      25.813  44.222  52.779  1.00  0.00     0.131 C 
BRANCH   7   8
HETATM    8  N   UNL     1      27.258  44.343  52.639  1.00  0.00    -0.289 NA
HETATM    9  H   UNL     1      27.643  43.589  52.074  1.00  0.00     0.128 HD
BRANCH   8  10
HETATM   10  C   UNL     1      28.026  44.584  53.789  1.00  0.00     0.010 A 
HETATM   11  C   UNL     1      29.024  43.653  54.132  1.00  0.00     0.055 A 
HETATM   12  C   UNL     1      29.814  43.929  55.224  1.00  0.00     0.065 A 
HETATM   13  C   UNL     1      29.680  45.100  55.961  1.00  0.00     0.063 A 
HETATM   14  N   UNL     1      30.842  43.183  55.794  1.00  0.00    -0.306 N 
HETATM   15  N   UNL     1      30.619  45.078  56.983  1.00  0.00    -0.307 N 
HETATM   16  C   UNL     1      28.753  46.057  55.639  1.00  0.00     0.034 A 
HETATM   17  C   UNL     1      31.354  43.886  56.894  1.00  0.00     0.325 A 
HETATM   18  H   UNL     1      30.780  45.783  57.684  1.00  0.00     0.170 HD
HETATM   19  O   UNL     1      32.259  43.532  57.627  1.00  0.00    -0.247 OA
HETATM   20  C   UNL     1      27.933  45.791  54.533  1.00  0.00     0.026 A 
HETATM   21  H   UNL     1      31.187  42.287  55.491  1.00  0.00     0.170 HD
ENDBRANCH   8  10
ENDBRANCH   7   8
ENDBRANCH   4   7
BRANCH   2  22
HETATM   22  O   UNL     1      25.353  48.256  50.168  1.00  0.00    -0.353 OA
HETATM   23  C   UNL     1      26.593  48.454  49.506  1.00  0.00     0.210 C 
ENDBRANCH   2  22
BRANCH   1  24
HETATM   24  O   UNL     1      23.325  47.019  48.472  1.00  0.00    -0.339 OA
BRANCH  24  25
HETATM   25  C   UNL     1      21.916  47.230  48.472  1.00  0.00     0.278 C 
BRANCH  25  26
HETATM   26  C   UNL     1      21.475  48.628  48.926  1.00  0.00     0.242 C 
HETATM   27  N   UNL     1      20.172  48.943  48.609  1.00  0.00    -0.351 N 
HETATM   28  H   UNL     1      19.696  48.279  48.005  1.00  0.00     0.163 HD
HETATM   29  O   UNL     1      22.242  49.376  49.527  1.00  0.00    -0.271 OA
BRANCH  27  30
HETATM   30  C   UNL     1      19.509  50.225  48.879  1.00  0.00     0.022 C 
HETATM   31  C   UNL     1      19.348  50.438  50.391  1.00  0.00     0.037 C 
HETATM   32  C   UNL     1      18.139  50.307  48.186  1.00  0.00     0.037 C 
HETATM   33  C   UNL     1      20.398  51.348  48.314  1.00  0.00     0.037 C 
ENDBRANCH  27  30
ENDBRANCH  25  26
ENDBRANCH  24  25
ENDBRANCH   1  24
TORSDOF 8
ENDMDL
MODEL 7
REMARK VINA RESULT:      -8.2      1.562      1.805
REMARK  8 active torsions:
REMARK  status: ('A' for Active; 'I' for Inactive)
REMARK    1  A    between atoms: C_2  and  N_3 
REMARK       I    between atoms: N_3  and  C_4 
REMARK    2  A    between atoms: C_4  and  C_5 
REMARK    3  A    between atoms: C_5  and  O_6 
REMARK    4  A    between atoms: O_6  and  C_7 
REMARK    5  A    between atoms: C_8  and  O_9 
REMARK    6  A    between atoms: C_12  and  C_13 
REMARK    7  A    between atoms: C_13  and  N_14 
REMARK    8  A    between atoms: N_14  and  C_15 
ROOT
HETATM    1  C   UNL     1      23.967  46.455  49.508  1.00  0.00     0.102 A 
HETATM    2  C   UNL     1      25.066  47.063  50.138  1.00  0.00     0.102 A 
HETATM    3  C   UNL     1      25.799  46.341  51.094  1.00  0.00     0.048 A 
HETATM    4  C   UNL     1      25.489  45.013  51.406  1.00  0.00    -0.042 A 
HETATM    5  C   UNL     1      24.395  44.417  50.773  1.00  0.00     0.011 A 
HETATM    6  C   UNL     1      23.648  45.128  49.830  1.00  0.00     0.040 A 
ENDROOT
BRANCH   4   7
HETATM    7  C   UNL     1      26.309  44.239  52.409  1.00  0.00     0.131 C 
BRANCH   7   8
HETATM    8  N   UNL     1      27.134  45.161  53.179  1.00  0.00    -0.289 NA
HETATM    9  H   UNL     1      27.370  45.991  52.639  1.00  0.00     0.128 HD
BRANCH   8  10
HETATM   10  C   UNL     1      28.242  44.651  53.873  1.00  0.00     0.010 A 
HETATM   11  C   UNL     1      28.608  45.263  55.086  1.00  0.00     0.055 A 
HETATM   12  C   UNL     1      29.657  44.718  55.791  1.00  0.00     0.065 A 
HETATM   13  C   UNL     1      30.327  43.578  55.363  1.00  0.00     0.063 A 
HETATM   14  N   UNL     1      30.236  45.129  56.988  1.00  0.00    -0.306 N 
HETATM   15  N   UNL     1      31.319  43.286  56.290  1.00  0.00    -0.307 N 
HETATM   16  C   UNL     1      29.979  42.922  54.211  1.00  0.00     0.034 A 
HETATM   17  C   UNL     1      31.276  44.245  57.312  1.00  0.00     0.325 A 
HETATM   18  H   UNL     1      31.971  42.519  56.269  1.00  0.00     0.170 HD
HETATM   19  O   UNL     1      32.001  44.300  58.289  1.00  0.00    -0.247 OA
HETATM   20  C   UNL     1      28.916  43.465  53.474  1.00  0.00     0.026 A 
HETATM   21  H   UNL     1      29.976  45.920  57.554  1.00  0.00     0.170 HD
ENDBRANCH   8  10
ENDBRANCH   7   8
ENDBRANCH   4   7
BRANCH   2  22
HETATM   22  O   UNL     1      25.547  48.335  49.971  1.00  0.00    -0.353 OA
HETATM   23  C   UNL     1      26.838  48.509  49.406  1.00  0.00     0.210 C 
ENDBRANCH   2  22
BRANCH   1  24
HETATM   24  O   UNL     1      23.280  47.162  48.556  1.00  0.00    -0.339 OA
BRANCH  24  25
HETATM   25  C   UNL     1      21.896  46.876  48.372  1.00  0.00     0.278 C 
BRANCH  25  26
HETATM   26  C   UNL     1      20.940  47.935  48.935  1.00  0.00     0.242 C 
HETATM   27  N   UNL     1      19.618  47.545  48.971  1.00  0.00    -0.351 N 
HETATM   28  H   UNL     1      19.410  46.665  48.508  1.00  0.00     0.163 HD
HETATM   29  O   UNL     1      21.349  49.026  49.319  1.00  0.00    -0.271 OA
BRANCH  27  30
HETATM   30  C   UNL     1      18.491  48.374  49.413  1.00  0.00     0.022 C 
HETATM   31  C   UNL     1      18.448  49.689  48.623  1.00  0.00     0.037 C 
HETATM   32  C   UNL     1      18.565  48.666  50.921  1.00  0.00     0.037 C 
HETATM   33  C   UNL     1      17.192  47.592  49.142  1.00  0.00     0.037 C 
ENDBRANCH  27  30
ENDBRANCH  25  26
ENDBRANCH  24  25
ENDBRANCH   1  24
TORSDOF 8
ENDMDL
MODEL 8
REMARK VINA RESULT:      -8.2      1.790      2.991
REMARK  8 active torsions:
REMARK  status: ('A' for Active; 'I' for Inactive)
REMARK    1  A    between atoms: C_2  and  N_3 
REMARK       I    between atoms: N_3  and  C_4 
REMARK    2  A    between atoms: C_4  and  C_5 
REMARK    3  A    between atoms: C_5  and  O_6 
REMARK    4  A    between atoms: O_6  and  C_7 
REMARK    5  A    between atoms: C_8  and  O_9 
REMARK    6  A    between atoms: C_12  and  C_13 
REMARK    7  A    between atoms: C_13  and  N_14 
REMARK    8  A    between atoms: N_14  and  C_15 
ROOT
HETATM    1  C   UNL     1      24.296  48.767  48.839  1.00  0.00     0.102 A 
HETATM    2  C   UNL     1      23.558  47.620  49.175  1.00  0.00     0.102 A 
HETATM    3  C   UNL     1      24.178  46.586  49.896  1.00  0.00     0.048 A 
HETATM    4  C   UNL     1      25.505  46.687  50.328  1.00  0.00    -0.042 A 
HETATM    5  C   UNL     1      26.230  47.833  49.991  1.00  0.00     0.011 A 
HETATM    6  C   UNL     1      25.630  48.863  49.261  1.00  0.00     0.040 A 
ENDROOT
BRANCH   4   7
HETATM    7  C   UNL     1      26.146  45.584  51.133  1.00  0.00     0.131 C 
BRANCH   7   8
HETATM    8  N   UNL     1      25.768  45.722  52.534  1.00  0.00    -0.289 NA
HETATM    9  H   UNL     1      25.066  46.446  52.662  1.00  0.00     0.128 HD
BRANCH   8  10
HETATM   10  C   UNL     1      26.785  45.798  53.499  1.00  0.00     0.010 A 
HETATM   11  C   UNL     1      27.629  44.685  53.668  1.00  0.00     0.055 A 
HETATM   12  C   UNL     1      28.661  44.791  54.572  1.00  0.00     0.065 A 
HETATM   13  C   UNL     1      28.910  45.961  55.281  1.00  0.00     0.063 A 
HETATM   14  N   UNL     1      29.616  43.852  54.950  1.00  0.00    -0.306 N 
HETATM   15  N   UNL     1      30.013  45.745  56.097  1.00  0.00    -0.307 N 
HETATM   16  C   UNL     1      28.142  47.085  55.118  1.00  0.00     0.034 A 
HETATM   17  C   UNL     1      30.467  44.432  55.903  1.00  0.00     0.325 A 
HETATM   18  H   UNL     1      30.446  46.400  56.728  1.00  0.00     0.170 HD
HETATM   19  O   UNL     1      31.414  43.901  56.454  1.00  0.00    -0.247 OA
HETATM   20  C   UNL     1      27.081  46.995  54.206  1.00  0.00     0.026 A 
HETATM   21  H   UNL     1      29.711  42.907  54.615  1.00  0.00     0.170 HD
ENDBRANCH   8  10
ENDBRANCH   7   8
ENDBRANCH   4   7
BRANCH   2  22
HETATM   22  O   UNL     1      22.255  47.325  48.868  1.00  0.00    -0.353 OA
HETATM   23  C   UNL     1      21.871  47.270  47.503  1.00  0.00     0.210 C 
ENDBRANCH   2  22
BRANCH   1  24
HETATM   24  O   UNL     1      23.669  49.779  48.162  1.00  0.00    -0.339 OA
BRANCH  24  25
HETATM   25  C   UNL     1      23.249  50.924  48.899  1.00  0.00     0.278 C 
BRANCH  25  26
HETATM   26  C   UNL     1      21.745  50.982  49.196  1.00  0.00     0.242 C 
HETATM   27  N   UNL     1      20.942  50.865  48.082  1.00  0.00    -0.351 N 
HETATM   28  H   UNL     1      21.427  50.886  47.189  1.00  0.00     0.163 HD
HETATM   29  O   UNL     1      21.324  51.114  50.341  1.00  0.00    -0.271 OA
BRANCH  27  30
HETATM   30  C   UNL     1      19.475  50.936  48.070  1.00  0.00     0.022 C 
HETATM   31  C   UNL     1      19.003  52.346  48.452  1.00  0.00     0.037 C 
HETATM   32  C   UNL     1      18.855  49.896  49.017  1.00  0.00     0.037 C 
HETATM   33  C   UNL     1      18.997  50.626  46.640  1.00  0.00     0.037 C 
ENDBRANCH  27  30
ENDBRANCH  25  26
ENDBRANCH  24  25
ENDBRANCH   1  24
TORSDOF 8
ENDMDL
MODEL 9
REMARK VINA RESULT:      -8.0      2.507      9.461
REMARK  8 active torsions:
REMARK  status: ('A' for Active; 'I' for Inactive)
REMARK    1  A    between atoms: C_2  and  N_3 
REMARK       I    between atoms: N_3  and  C_4 
REMARK    2  A    between atoms: C_4  and  C_5 
REMARK    3  A    between atoms: C_5  and  O_6 
REMARK    4  A    between atoms: O_6  and  C_7 
REMARK    5  A    between atoms: C_8  and  O_9 
REMARK    6  A    between atoms: C_12  and  C_13 
REMARK    7  A    between atoms: C_13  and  N_14 
REMARK    8  A    between atoms: N_14  and  C_15 
ROOT
HETATM    1  C   UNL     1      26.119  44.871  52.743  1.00  0.00     0.102 A 
HETATM    2  C   UNL     1      25.935  46.198  53.168  1.00  0.00     0.102 A 
HETATM    3  C   UNL     1      26.036  47.242  52.235  1.00  0.00     0.048 A 
HETATM    4  C   UNL     1      26.273  46.993  50.879  1.00  0.00    -0.042 A 
HETATM    5  C   UNL     1      26.453  45.671  50.465  1.00  0.00     0.011 A 
HETATM    6  C   UNL     1      26.369  44.622  51.385  1.00  0.00     0.040 A 
ENDROOT
BRANCH   4   7
HETATM    7  C   UNL     1      26.342  48.123  49.882  1.00  0.00     0.131 C 
BRANCH   7   8
HETATM    8  N   UNL     1      25.326  47.930  48.855  1.00  0.00    -0.289 NA
HETATM    9  H   UNL     1      25.742  47.841  47.931  1.00  0.00     0.128 HD
BRANCH   8  10
HETATM   10  C   UNL     1      24.207  48.777  48.850  1.00  0.00     0.010 A 
HETATM   11  C   UNL     1      22.988  48.275  49.343  1.00  0.00     0.055 A 
HETATM   12  C   UNL     1      21.912  49.131  49.393  1.00  0.00     0.065 A 
HETATM   13  C   UNL     1      22.005  50.464  49.010  1.00  0.00     0.063 A 
HETATM   14  N   UNL     1      20.603  48.896  49.804  1.00  0.00    -0.306 N 
HETATM   15  N   UNL     1      20.759  51.052  49.183  1.00  0.00    -0.307 N 
HETATM   16  C   UNL     1      23.181  51.011  48.565  1.00  0.00     0.034 A 
HETATM   17  C   UNL     1      19.871  50.085  49.679  1.00  0.00     0.325 A 
HETATM   18  H   UNL     1      20.501  52.008  49.002  1.00  0.00     0.170 HD
HETATM   19  O   UNL     1      18.694  50.248  49.946  1.00  0.00    -0.247 OA
HETATM   20  C   UNL     1      24.289  50.152  48.501  1.00  0.00     0.026 A 
HETATM   21  H   UNL     1      20.215  48.031  50.144  1.00  0.00     0.170 HD
ENDBRANCH   8  10
ENDBRANCH   7   8
ENDBRANCH   4   7
BRANCH   2  22
HETATM   22  O   UNL     1      25.682  46.659  54.434  1.00  0.00    -0.353 OA
HETATM   23  C   UNL     1      26.014  48.002  54.750  1.00  0.00     0.210 C 
ENDBRANCH   2  22
BRANCH   1  24
HETATM   24  O   UNL     1      25.988  43.861  53.660  1.00  0.00    -0.339 OA
BRANCH  24  25
HETATM   25  C   UNL     1      27.141  43.088  53.980  1.00  0.00     0.278 C 
BRANCH  25  26
HETATM   26  C   UNL     1      28.366  43.907  54.407  1.00  0.00     0.242 C 
HETATM   27  N   UNL     1      28.155  44.709  55.508  1.00  0.00    -0.351 N 
HETATM   28  H   UNL     1      27.193  44.768  55.829  1.00  0.00     0.163 HD
HETATM   29  O   UNL     1      29.431  43.827  53.803  1.00  0.00    -0.271 OA
BRANCH  27  30
HETATM   30  C   UNL     1      29.135  45.630  56.099  1.00  0.00     0.022 C 
HETATM   31  C   UNL     1      30.503  44.947  56.228  1.00  0.00     0.037 C 
HETATM   32  C   UNL     1      28.668  46.142  57.471  1.00  0.00     0.037 C 
HETATM   33  C   UNL     1      29.274  46.841  55.159  1.00  0.00     0.037 C 
ENDBRANCH  27  30
ENDBRANCH  25  26
ENDBRANCH  24  25
ENDBRANCH   1  24
TORSDOF 8
ENDMDL
MODEL 10
REMARK VINA RESULT:      -8.0      3.186     10.341
REMARK  8 active torsions:
REMARK  status: ('A' for Active; 'I' for Inactive)
REMARK    1  A    between atoms: C_2  and  N_3 
REMARK       I    between atoms: N_3  and  C_4 
REMARK    2  A    between atoms: C_4  and  C_5 
REMARK    3  A    between atoms: C_5  and  O_6 
REMARK    4  A    between atoms: O_6  and  C_7 
REMARK    5  A    between atoms: C_8  and  O_9 
REMARK    6  A    between atoms: C_12  and  C_13 
REMARK    7  A    between atoms: C_13  and  N_14 
REMARK    8  A    between atoms: N_14  and  C_15 
ROOT
HETATM    1  C   UNL     1      24.184  44.708  50.669  1.00  0.00     0.102 A 
HETATM    2  C   UNL     1      24.944  45.774  51.179  1.00  0.00     0.102 A 
HETATM    3  C   UNL     1      24.798  47.055  50.622  1.00  0.00     0.048 A 
HETATM    4  C   UNL     1      23.880  47.308  49.597  1.00  0.00    -0.042 A 
HETATM    5  C   UNL     1      23.127  46.242  49.098  1.00  0.00     0.011 A 
HETATM    6  C   UNL     1      23.273  44.959  49.633  1.00  0.00     0.040 A 
ENDROOT
BRANCH   4   7
HETATM    7  C   UNL     1      23.707  48.697  49.035  1.00  0.00     0.131 C 
BRANCH   7   8
HETATM    8  N   UNL     1      22.804  49.459  49.887  1.00  0.00    -0.289 NA
HETATM    9  H   UNL     1      22.698  49.025  50.801  1.00  0.00     0.128 HD
BRANCH   8  10
HETATM   10  C   UNL     1      21.573  49.877  49.357  1.00  0.00     0.010 A 
HETATM   11  C   UNL     1      20.471  49.009  49.464  1.00  0.00     0.055 A 
HETATM   12  C   UNL     1      19.254  49.452  48.999  1.00  0.00     0.065 A 
HETATM   13  C   UNL     1      19.081  50.726  48.471  1.00  0.00     0.063 A 
HETATM   14  N   UNL     1      18.024  48.803  48.958  1.00  0.00    -0.306 N 
HETATM   15  N   UNL     1      17.749  50.864  48.102  1.00  0.00    -0.307 N 
HETATM   16  C   UNL     1      20.114  51.624  48.386  1.00  0.00     0.034 A 
HETATM   17  C   UNL     1      17.074  49.670  48.399  1.00  0.00     0.325 A 
HETATM   18  H   UNL     1      17.306  51.671  47.694  1.00  0.00     0.170 HD
HETATM   19  O   UNL     1      15.895  49.434  48.209  1.00  0.00    -0.247 OA
HETATM   20  C   UNL     1      21.364  51.188  48.849  1.00  0.00     0.026 A 
HETATM   21  H   UNL     1      17.815  47.869  49.270  1.00  0.00     0.170 HD
ENDBRANCH   8  10
ENDBRANCH   7   8
ENDBRANCH   4   7
BRANCH   2  22
HETATM   22  O   UNL     1      25.882  45.750  52.179  1.00  0.00    -0.353 OA
HETATM   23  C   UNL     1      25.677  46.560  53.326  1.00  0.00     0.210 C 
ENDBRANCH   2  22
BRANCH   1  24
HETATM   24  O   UNL     1      24.317  43.471  51.242  1.00  0.00    -0.339 OA
BRANCH  24  25
HETATM   25  C   UNL     1      25.088  42.489  50.555  1.00  0.00     0.278 C 
BRANCH  25  26
HETATM   26  C   UNL     1      26.449  42.178  51.193  1.00  0.00     0.242 C 
HETATM   27  N   UNL     1      26.657  42.790  52.411  1.00  0.00    -0.351 N 
HETATM   28  H   UNL     1      25.954  43.470  52.684  1.00  0.00     0.163 HD
HETATM   29  O   UNL     1      27.259  41.438  50.644  1.00  0.00    -0.271 OA
BRANCH  27  30
HETATM   30  C   UNL     1      27.883  42.707  53.214  1.00  0.00     0.022 C 
HETATM   31  C   UNL     1      27.719  43.484  54.528  1.00  0.00     0.037 C 
HETATM   32  C   UNL     1      29.101  43.234  52.437  1.00  0.00     0.037 C 
HETATM   33  C   UNL     1      28.134  41.224  53.545  1.00  0.00     0.037 C 
ENDBRANCH  27  30
ENDBRANCH  25  26
ENDBRANCH  24  25
ENDBRANCH   1  24
TORSDOF 8
ENDMDL
