MODEL 1
REMARK VINA RESULT:     -10.2      0.000      0.000
REMARK  8 active torsions:
REMARK  status: ('A' for Active; 'I' for Inactive)
REMARK    1  A    between atoms: C_2  and  O_3 
REMARK    2  A    between atoms: O_3  and  C_4 
REMARK    3  A    between atoms: C_7  and  N_8 
REMARK       I    between atoms: N_8  and  C_9 
REMARK    4  A    between atoms: C_9  and  C_10 
REMARK    5  A    between atoms: C_12  and  N_13 
REMARK    6  A    between atoms: N_16  and  C_18 
REMARK    7  A    between atoms: C_18  and  C_19 
REMARK    8  A    between atoms: C_18  and  C_25 
ROOT
HETATM    1  C   UNL     1      23.812  50.018  49.089  1.00  0.00     0.200 C 
HETATM    2  N   UNL     1      23.654  48.754  49.824  1.00  0.00    -0.211 N 
HETATM    3  C   UNL     1      24.708  47.908  49.949  1.00  0.00     0.702 C 
HETATM    4  N   UNL     1      25.889  48.166  49.487  1.00  0.00    -0.028 NA
HETATM    5  C   UNL     1      26.052  49.295  48.720  1.00  0.00     0.263 C 
HETATM    6  O   UNL     1      27.136  49.853  48.586  1.00  0.00    -0.271 OA
HETATM    7  C   UNL     1      24.835  49.808  48.001  1.00  0.00     0.141 C 
HETATM    8  H   UNL     1      22.757  48.330  49.581  1.00  0.00     0.178 HD
ENDROOT
BRANCH   3   9
HETATM    9  N   UNL     1      24.465  46.765  50.683  1.00  0.00    -0.213 N 
HETATM   10  C   UNL     1      25.102  46.464  51.976  1.00  0.00     0.169 C 
HETATM   11  C   UNL     1      26.419  45.704  51.739  1.00  0.00     0.256 C 
HETATM   12  N   UNL     1      26.123  44.413  50.966  1.00  0.00    -0.056 N 
HETATM   13  H   UNL     1      25.421  43.894  51.496  1.00  0.00     0.281 HD
HETATM   14  C   UNL     1      25.423  44.741  49.636  1.00  0.00     0.256 C 
HETATM   15  C   UNL     1      24.125  45.535  49.928  1.00  0.00     0.169 C 
BRANCH  12  16
HETATM   16  C   UNL     1      27.310  43.456  50.836  1.00  0.00     0.254 C 
BRANCH  16  17
HETATM   17  C   UNL     1      28.066  43.292  52.155  1.00  0.00    -0.023 A 
HETATM   18  C   UNL     1      27.403  43.271  53.397  1.00  0.00     0.009 A 
HETATM   19  C   UNL     1      28.119  43.138  54.588  1.00  0.00     0.001 A 
HETATM   20  C   UNL     1      29.506  43.022  54.559  1.00  0.00     0.000 A 
HETATM   21  C   UNL     1      30.179  43.033  53.341  1.00  0.00     0.001 A 
HETATM   22  C   UNL     1      29.467  43.167  52.146  1.00  0.00     0.009 A 
ENDBRANCH  16  17
BRANCH  16  23
HETATM   23  C   UNL     1      26.988  42.141  50.095  1.00  0.00    -0.023 A 
HETATM   24  C   UNL     1      27.317  41.925  48.742  1.00  0.00     0.009 A 
HETATM   25  C   UNL     1      27.041  40.705  48.112  1.00  0.00     0.001 A 
HETATM   26  C   UNL     1      26.451  39.667  48.822  1.00  0.00     0.000 A 
HETATM   27  C   UNL     1      26.153  39.838  50.167  1.00  0.00     0.001 A 
HETATM   28  C   UNL     1      26.432  41.052  50.800  1.00  0.00     0.009 A 
ENDBRANCH  16  23
ENDBRANCH  12  16
ENDBRANCH   3   9
BRANCH   1  29
HETATM   29  C   UNL     1      22.422  50.441  48.575  1.00  0.00     0.246 C 
HETATM   30  N   UNL     1      21.585  50.991  49.525  1.00  0.00    -0.325 N 
HETATM   31  H   UNL     1      21.983  51.315  50.399  1.00  0.00     0.169 HD
HETATM   32  O   UNL     1      22.137  50.238  47.392  1.00  0.00    -0.271 OA
BRANCH  30  33
HETATM   33  C   UNL     1      20.203  51.243  49.372  1.00  0.00     0.035 A 
HETATM   34  C   UNL     1      19.685  52.219  48.518  1.00  0.00     0.032 A 
HETATM   35  C   UNL     1      18.302  52.381  48.372  1.00  0.00     0.039 A 
HETATM   36  C   UNL     1      17.419  51.573  49.085  1.00  0.00     0.068 A 
HETATM   37  C   UNL     1      17.934  50.608  49.950  1.00  0.00     0.039 A 
HETATM   38  C   UNL     1      19.315  50.431  50.084  1.00  0.00     0.032 A 
BRANCH  36  39
HETATM   39  O   UNL     1      16.056  51.631  49.032  1.00  0.00    -0.352 OA
BRANCH  39  40
HETATM   40  C   UNL     1      15.459  52.925  49.113  1.00  0.00     0.171 C 
HETATM   41  C   UNL     1      14.695  53.010  50.422  1.00  0.00     0.034 C 
ENDBRANCH  39  40
ENDBRANCH  36  39
ENDBRANCH  30  33
ENDBRANCH   1  29
TORSDOF 8
ENDMDL
MODEL 2
REMARK VINA RESULT:     -10.2      4.320      8.761
REMARK  8 active torsions:
REMARK  status: ('A' for Active; 'I' for Inactive)
REMARK    1  A    between atoms: C_2  and  O_3 
REMARK    2  A    between atoms: O_3  and  C_4 
REMARK    3  A    between atoms: C_7  and  N_8 
REMARK       I    between atoms: N_8  and  C_9 
REMARK    4  A    between atoms: C_9  and  C_10 
REMARK    5  A    between atoms: C_12  and  N_13 
REMARK    6  A    between atoms: N_16  and  C_18 
REMARK    7  A    between atoms: C_18  and  C_19 
REMARK    8  A    between atoms: C_18  and  C_25 
ROOT
HETATM    1  C   UNL     1      24.188  45.212  50.110  1.00  0.00     0.200 C 
HETATM    2  N   UNL     1      24.718  45.372  51.473  1.00  0.00    -0.211 N 
HETATM    3  C   UNL     1      24.994  46.612  51.950  1.00  0.00     0.702 C 
HETATM    4  N   UNL     1      24.778  47.699  51.281  1.00  0.00    -0.028 NA
HETATM    5  C   UNL     1      24.367  47.584  49.975  1.00  0.00     0.263 C 
HETATM    6  O   UNL     1      23.751  48.472  49.394  1.00  0.00    -0.271 OA
HETATM    7  C   UNL     1      24.746  46.320  49.252  1.00  0.00     0.141 C 
HETATM    8  H   UNL     1      25.417  44.649  51.652  1.00  0.00     0.178 HD
ENDROOT
BRANCH   3   9
HETATM    9  N   UNL     1      25.457  46.656  53.250  1.00  0.00    -0.213 N 
HETATM   10  C   UNL     1      26.588  47.488  53.693  1.00  0.00     0.169 C 
HETATM   11  C   UNL     1      27.901  46.700  53.540  1.00  0.00     0.256 C 
HETATM   12  N   UNL     1      27.815  45.413  54.369  1.00  0.00    -0.056 N 
HETATM   13  H   UNL     1      27.589  45.682  55.328  1.00  0.00     0.281 HD
HETATM   14  C   UNL     1      26.607  44.574  53.920  1.00  0.00     0.256 C 
HETATM   15  C   UNL     1      25.318  45.423  54.060  1.00  0.00     0.169 C 
BRANCH  12  16
HETATM   16  C   UNL     1      29.125  44.629  54.475  1.00  0.00     0.254 C 
BRANCH  16  17
HETATM   17  C   UNL     1      29.761  44.753  55.860  1.00  0.00    -0.023 A 
HETATM   18  C   UNL     1      29.326  45.709  56.798  1.00  0.00     0.009 A 
HETATM   19  C   UNL     1      29.937  45.813  58.049  1.00  0.00     0.001 A 
HETATM   20  C   UNL     1      30.987  44.965  58.386  1.00  0.00     0.000 A 
HETATM   21  C   UNL     1      31.427  44.007  57.475  1.00  0.00     0.001 A 
HETATM   22  C   UNL     1      30.819  43.900  56.222  1.00  0.00     0.009 A 
ENDBRANCH  16  17
BRANCH  16  23
HETATM   23  C   UNL     1      29.054  43.195  53.911  1.00  0.00    -0.023 A 
HETATM   24  C   UNL     1      28.183  42.212  54.424  1.00  0.00     0.009 A 
HETATM   25  C   UNL     1      28.121  40.931  53.863  1.00  0.00     0.001 A 
HETATM   26  C   UNL     1      28.909  40.606  52.766  1.00  0.00     0.000 A 
HETATM   27  C   UNL     1      29.746  41.567  52.215  1.00  0.00     0.001 A 
HETATM   28  C   UNL     1      29.807  42.848  52.768  1.00  0.00     0.009 A 
ENDBRANCH  16  23
ENDBRANCH  12  16
ENDBRANCH   3   9
BRANCH   1  29
HETATM   29  C   UNL     1      24.553  43.795  49.626  1.00  0.00     0.246 C 
HETATM   30  N   UNL     1      25.571  43.178  50.326  1.00  0.00    -0.325 N 
HETATM   31  H   UNL     1      25.837  43.549  51.230  1.00  0.00     0.169 HD
HETATM   32  O   UNL     1      23.957  43.326  48.653  1.00  0.00    -0.271 OA
BRANCH  30  33
HETATM   33  C   UNL     1      26.243  41.994  49.947  1.00  0.00     0.035 A 
HETATM   34  C   UNL     1      27.309  41.965  49.046  1.00  0.00     0.032 A 
HETATM   35  C   UNL     1      27.968  40.763  48.754  1.00  0.00     0.039 A 
HETATM   36  C   UNL     1      27.561  39.575  49.355  1.00  0.00     0.068 A 
HETATM   37  C   UNL     1      26.487  39.599  50.245  1.00  0.00     0.039 A 
HETATM   38  C   UNL     1      25.840  40.800  50.551  1.00  0.00     0.032 A 
BRANCH  36  39
HETATM   39  O   UNL     1      28.116  38.343  49.156  1.00  0.00    -0.352 OA
BRANCH  39  40
HETATM   40  C   UNL     1      29.539  38.255  49.226  1.00  0.00     0.171 C 
HETATM   41  C   UNL     1      29.914  37.808  50.628  1.00  0.00     0.034 C 
ENDBRANCH  39  40
ENDBRANCH  36  39
ENDBRANCH  30  33
ENDBRANCH   1  29
TORSDOF 8
ENDMDL
MODEL 3
REMARK VINA RESULT:      -9.9      2.047      2.773
REMARK  8 active torsions:
REMARK  status: ('A' for Active; 'I' for Inactive)
REMARK    1  A    between atoms: C_2  and  O_3 
REMARK    2  A    between atoms: O_3  and  C_4 
REMARK    3  A    between atoms: C_7  and  N_8 
REMARK       I    between atoms: N_8  and  C_9 
REMARK    4  A    between atoms: C_9  and  C_10 
REMARK    5  A    between atoms: C_12  and  N_13 
REMARK    6  A    between atoms: N_16  and  C_18 
REMARK    7  A    between atoms: C_18  and  C_19 
REMARK    8  A    between atoms: C_18  and  C_25 
ROOT
HETATM    1  C   UNL     1      21.829  46.469  47.951  1.00  0.00     0.200 C 
HETATM    2  N   UNL     1      22.920  46.769  48.890  1.00  0.00    -0.211 N 
HETATM    3  C   UNL     1      23.511  45.763  49.583  1.00  0.00     0.702 C 
HETATM    4  N   UNL     1      23.197  44.516  49.439  1.00  0.00    -0.028 NA
HETATM    5  C   UNL     1      22.124  44.207  48.637  1.00  0.00     0.263 C 
HETATM    6  O   UNL     1      21.992  43.111  48.102  1.00  0.00    -0.271 OA
HETATM    7  C   UNL     1      21.074  45.271  48.468  1.00  0.00     0.141 C 
HETATM    8  H   UNL     1      22.690  47.613  49.419  1.00  0.00     0.178 HD
ENDROOT
BRANCH   3   9
HETATM    9  N   UNL     1      24.544  46.145  50.415  1.00  0.00    -0.213 N 
HETATM   10  C   UNL     1      25.863  46.593  49.937  1.00  0.00     0.169 C 
HETATM   11  C   UNL     1      26.797  45.379  49.785  1.00  0.00     0.256 C 
HETATM   12  N   UNL     1      26.922  44.667  51.137  1.00  0.00    -0.056 N 
HETATM   13  H   UNL     1      27.233  45.360  51.820  1.00  0.00     0.281 HD
HETATM   14  C   UNL     1      25.532  44.240  51.641  1.00  0.00     0.256 C 
HETATM   15  C   UNL     1      24.622  45.490  51.742  1.00  0.00     0.169 C 
BRANCH  12  16
HETATM   16  C   UNL     1      27.979  43.562  51.186  1.00  0.00     0.254 C 
BRANCH  16  17
HETATM   17  C   UNL     1      28.729  43.539  52.518  1.00  0.00    -0.023 A 
HETATM   18  C   UNL     1      29.874  42.745  52.717  1.00  0.00     0.009 A 
HETATM   19  C   UNL     1      30.530  42.729  53.949  1.00  0.00     0.001 A 
HETATM   20  C   UNL     1      30.054  43.507  55.002  1.00  0.00     0.000 A 
HETATM   21  C   UNL     1      28.927  44.305  54.823  1.00  0.00     0.001 A 
HETATM   22  C   UNL     1      28.268  44.323  53.591  1.00  0.00     0.009 A 
ENDBRANCH  16  17
BRANCH  16  23
HETATM   23  C   UNL     1      27.485  42.188  50.687  1.00  0.00    -0.023 A 
HETATM   24  C   UNL     1      27.619  41.765  49.349  1.00  0.00     0.009 A 
HETATM   25  C   UNL     1      27.191  40.496  48.939  1.00  0.00     0.001 A 
HETATM   26  C   UNL     1      26.639  39.613  49.858  1.00  0.00     0.000 A 
HETATM   27  C   UNL     1      26.531  39.987  51.191  1.00  0.00     0.001 A 
HETATM   28  C   UNL     1      26.962  41.250  51.604  1.00  0.00     0.009 A 
ENDBRANCH  16  23
ENDBRANCH  12  16
ENDBRANCH   3   9
BRANCH   1  29
HETATM   29  C   UNL     1      20.969  47.741  47.806  1.00  0.00     0.246 C 
HETATM   30  N   UNL     1      21.114  48.668  48.819  1.00  0.00    -0.325 N 
HETATM   31  H   UNL     1      21.916  48.599  49.433  1.00  0.00     0.169 HD
HETATM   32  O   UNL     1      20.204  47.836  46.843  1.00  0.00    -0.271 OA
BRANCH  30  33
HETATM   33  C   UNL     1      20.287  49.791  49.043  1.00  0.00     0.035 A 
HETATM   34  C   UNL     1      20.508  51.042  48.464  1.00  0.00     0.032 A 
HETATM   35  C   UNL     1      19.618  52.101  48.685  1.00  0.00     0.039 A 
HETATM   36  C   UNL     1      18.500  51.923  49.496  1.00  0.00     0.068 A 
HETATM   37  C   UNL     1      18.285  50.678  50.088  1.00  0.00     0.039 A 
HETATM   38  C   UNL     1      19.161  49.614  49.853  1.00  0.00     0.032 A 
BRANCH  36  39
HETATM   39  O   UNL     1      17.562  52.870  49.791  1.00  0.00    -0.352 OA
BRANCH  39  40
HETATM   40  C   UNL     1      16.200  52.443  49.826  1.00  0.00     0.171 C 
HETATM   41  C   UNL     1      15.678  52.418  48.401  1.00  0.00     0.034 C 
ENDBRANCH  39  40
ENDBRANCH  36  39
ENDBRANCH  30  33
ENDBRANCH   1  29
TORSDOF 8
ENDMDL
MODEL 4
REMARK VINA RESULT:      -9.9      1.912      3.651
REMARK  8 active torsions:
REMARK  status: ('A' for Active; 'I' for Inactive)
REMARK    1  A    between atoms: C_2  and  O_3 
REMARK    2  A    between atoms: O_3  and  C_4 
REMARK    3  A    between atoms: C_7  and  N_8 
REMARK       I    between atoms: N_8  and  C_9 
REMARK    4  A    between atoms: C_9  and  C_10 
REMARK    5  A    between atoms: C_12  and  N_13 
REMARK    6  A    between atoms: N_16  and  C_18 
REMARK    7  A    between atoms: C_18  and  C_19 
REMARK    8  A    between atoms: C_18  and  C_25 
ROOT
HETATM    1  C   UNL     1      24.036  49.575  49.072  1.00  0.00     0.200 C 
HETATM    2  N   UNL     1      24.064  48.123  49.308  1.00  0.00    -0.211 N 
HETATM    3  C   UNL     1      25.239  47.449  49.227  1.00  0.00     0.702 C 
HETATM    4  N   UNL     1      26.375  48.019  48.989  1.00  0.00    -0.028 NA
HETATM    5  C   UNL     1      26.375  49.358  48.677  1.00  0.00     0.263 C 
HETATM    6  O   UNL     1      27.356  50.076  48.841  1.00  0.00    -0.271 OA
HETATM    7  C   UNL     1      25.115  49.914  48.073  1.00  0.00     0.141 C 
HETATM    8  H   UNL     1      23.258  47.690  48.855  1.00  0.00     0.178 HD
ENDROOT
BRANCH   3   9
HETATM    9  N   UNL     1      25.163  46.097  49.497  1.00  0.00    -0.213 N 
HETATM   10  C   UNL     1      24.161  45.489  50.387  1.00  0.00     0.169 C 
HETATM   11  C   UNL     1      24.696  45.470  51.831  1.00  0.00     0.256 C 
HETATM   12  N   UNL     1      26.009  44.679  51.870  1.00  0.00    -0.056 N 
HETATM   13  H   UNL     1      25.822  43.756  51.473  1.00  0.00     0.281 HD
HETATM   14  C   UNL     1      27.032  45.302  50.905  1.00  0.00     0.256 C 
HETATM   15  C   UNL     1      26.433  45.331  49.477  1.00  0.00     0.169 C 
BRANCH  12  16
HETATM   16  C   UNL     1      26.551  44.403  53.275  1.00  0.00     0.254 C 
BRANCH  16  17
HETATM   17  C   UNL     1      27.698  43.392  53.262  1.00  0.00    -0.023 A 
HETATM   18  C   UNL     1      29.013  43.760  52.920  1.00  0.00     0.009 A 
HETATM   19  C   UNL     1      30.038  42.813  52.898  1.00  0.00     0.001 A 
HETATM   20  C   UNL     1      29.769  41.485  53.219  1.00  0.00     0.000 A 
HETATM   21  C   UNL     1      28.476  41.103  53.567  1.00  0.00     0.001 A 
HETATM   22  C   UNL     1      27.447  42.047  53.589  1.00  0.00     0.009 A 
ENDBRANCH  16  17
BRANCH  16  23
HETATM   23  C   UNL     1      26.801  45.670  54.119  1.00  0.00    -0.023 A 
HETATM   24  C   UNL     1      25.993  46.821  54.030  1.00  0.00     0.009 A 
HETATM   25  C   UNL     1      26.228  47.940  54.838  1.00  0.00     0.001 A 
HETATM   26  C   UNL     1      27.260  47.929  55.768  1.00  0.00     0.000 A 
HETATM   27  C   UNL     1      28.047  46.793  55.906  1.00  0.00     0.001 A 
HETATM   28  C   UNL     1      27.811  45.673  55.105  1.00  0.00     0.009 A 
ENDBRANCH  16  23
ENDBRANCH  12  16
ENDBRANCH   3   9
BRANCH   1  29
HETATM   29  C   UNL     1      22.613  49.950  48.613  1.00  0.00     0.246 C 
HETATM   30  N   UNL     1      21.924  50.795  49.460  1.00  0.00    -0.325 N 
HETATM   31  H   UNL     1      22.441  51.308  50.164  1.00  0.00     0.169 HD
HETATM   32  O   UNL     1      22.175  49.461  47.568  1.00  0.00    -0.271 OA
BRANCH  30  33
HETATM   33  C   UNL     1      20.546  51.101  49.393  1.00  0.00     0.035 A 
HETATM   34  C   UNL     1      20.011  52.074  48.547  1.00  0.00     0.032 A 
HETATM   35  C   UNL     1      18.629  52.291  48.489  1.00  0.00     0.039 A 
HETATM   36  C   UNL     1      17.765  51.540  49.283  1.00  0.00     0.068 A 
HETATM   37  C   UNL     1      18.298  50.577  50.139  1.00  0.00     0.039 A 
HETATM   38  C   UNL     1      19.677  50.346  50.185  1.00  0.00     0.032 A 
BRANCH  36  39
HETATM   39  O   UNL     1      16.405  51.654  49.320  1.00  0.00    -0.352 OA
BRANCH  39  40
HETATM   40  C   UNL     1      15.720  51.649  48.067  1.00  0.00     0.171 C 
HETATM   41  C   UNL     1      15.639  50.213  47.581  1.00  0.00     0.034 C 
ENDBRANCH  39  40
ENDBRANCH  36  39
ENDBRANCH  30  33
ENDBRANCH   1  29
TORSDOF 8
ENDMDL
MODEL 5
REMARK VINA RESULT:      -9.7      3.223      7.119
REMARK  8 active torsions:
REMARK  status: ('A' for Active; 'I' for Inactive)
REMARK    1  A    between atoms: C_2  and  O_3 
REMARK    2  A    between atoms: O_3  and  C_4 
REMARK    3  A    between atoms: C_7  and  N_8 
REMARK       I    between atoms: N_8  and  C_9 
REMARK    4  A    between atoms: C_9  and  C_10 
REMARK    5  A    between atoms: C_12  and  N_13 
REMARK    6  A    between atoms: N_16  and  C_18 
REMARK    7  A    between atoms: C_18  and  C_19 
REMARK    8  A    between atoms: C_18  and  C_25 
ROOT
HETATM    1  C   UNL     1      25.702  42.622  49.908  1.00  0.00     0.200 C 
HETATM    2  N   UNL     1      26.511  42.454  51.125  1.00  0.00    -0.211 N 
HETATM    3  C   UNL     1      27.085  41.254  51.394  1.00  0.00     0.702 C 
HETATM    4  N   UNL     1      26.998  40.229  50.610  1.00  0.00    -0.028 NA
HETATM    5  C   UNL     1      26.179  40.322  49.510  1.00  0.00     0.263 C 
HETATM    6  O   UNL     1      26.328  39.624  48.512  1.00  0.00    -0.271 OA
HETATM    7  C   UNL     1      25.042  41.303  49.592  1.00  0.00     0.141 C 
HETATM    8  H   UNL     1      26.051  42.925  51.906  1.00  0.00     0.178 HD
ENDROOT
BRANCH   3   9
HETATM    9  N   UNL     1      27.849  41.209  52.543  1.00  0.00    -0.213 N 
HETATM   10  C   UNL     1      27.328  41.489  53.891  1.00  0.00     0.169 C 
HETATM   11  C   UNL     1      27.454  42.993  54.192  1.00  0.00     0.256 C 
HETATM   12  N   UNL     1      28.926  43.406  54.082  1.00  0.00    -0.056 N 
HETATM   13  H   UNL     1      29.461  42.801  54.707  1.00  0.00     0.281 HD
HETATM   14  C   UNL     1      29.467  43.071  52.681  1.00  0.00     0.256 C 
HETATM   15  C   UNL     1      29.285  41.556  52.415  1.00  0.00     0.169 C 
BRANCH  12  16
HETATM   16  C   UNL     1      29.231  44.830  54.554  1.00  0.00     0.254 C 
BRANCH  16  17
HETATM   17  C   UNL     1      28.035  45.766  54.372  1.00  0.00    -0.023 A 
HETATM   18  C   UNL     1      27.816  46.870  55.218  1.00  0.00     0.009 A 
HETATM   19  C   UNL     1      26.706  47.697  55.041  1.00  0.00     0.001 A 
HETATM   20  C   UNL     1      25.798  47.438  54.018  1.00  0.00     0.000 A 
HETATM   21  C   UNL     1      26.001  46.356  53.166  1.00  0.00     0.001 A 
HETATM   22  C   UNL     1      27.111  45.525  53.340  1.00  0.00     0.009 A 
ENDBRANCH  16  17
BRANCH  16  23
HETATM   23  C   UNL     1      29.924  44.909  55.930  1.00  0.00    -0.023 A 
HETATM   24  C   UNL     1      29.556  45.843  56.920  1.00  0.00     0.009 A 
HETATM   25  C   UNL     1      30.183  45.862  58.172  1.00  0.00     0.001 A 
HETATM   26  C   UNL     1      31.176  44.938  58.472  1.00  0.00     0.000 A 
HETATM   27  C   UNL     1      31.531  43.981  57.531  1.00  0.00     0.001 A 
HETATM   28  C   UNL     1      30.903  43.956  56.283  1.00  0.00     0.009 A 
ENDBRANCH  16  23
ENDBRANCH  12  16
ENDBRANCH   3   9
BRANCH   1  29
HETATM   29  C   UNL     1      24.713  43.778  50.156  1.00  0.00     0.246 C 
HETATM   30  N   UNL     1      24.490  44.606  49.073  1.00  0.00    -0.325 N 
HETATM   31  H   UNL     1      24.761  44.286  48.151  1.00  0.00     0.169 HD
HETATM   32  O   UNL     1      24.223  43.912  51.281  1.00  0.00    -0.271 OA
BRANCH  30  33
HETATM   33  C   UNL     1      23.821  45.850  49.100  1.00  0.00     0.035 A 
HETATM   34  C   UNL     1      24.348  46.998  49.693  1.00  0.00     0.032 A 
HETATM   35  C   UNL     1      23.657  48.215  49.637  1.00  0.00     0.039 A 
HETATM   36  C   UNL     1      22.425  48.295  48.992  1.00  0.00     0.068 A 
HETATM   37  C   UNL     1      21.889  47.146  48.411  1.00  0.00     0.039 A 
HETATM   38  C   UNL     1      22.586  45.934  48.450  1.00  0.00     0.032 A 
BRANCH  36  39
HETATM   39  O   UNL     1      21.654  49.415  48.869  1.00  0.00    -0.352 OA
BRANCH  39  40
HETATM   40  C   UNL     1      22.029  50.549  49.651  1.00  0.00     0.171 C 
HETATM   41  C   UNL     1      20.802  51.023  50.409  1.00  0.00     0.034 C 
ENDBRANCH  39  40
ENDBRANCH  36  39
ENDBRANCH  30  33
ENDBRANCH   1  29
TORSDOF 8
ENDMDL
MODEL 6
REMARK VINA RESULT:      -9.6      3.679     11.327
REMARK  8 active torsions:
REMARK  status: ('A' for Active; 'I' for Inactive)
REMARK    1  A    between atoms: C_2  and  O_3 
REMARK    2  A    between atoms: O_3  and  C_4 
REMARK    3  A    between atoms: C_7  and  N_8 
REMARK       I    between atoms: N_8  and  C_9 
REMARK    4  A    between atoms: C_9  and  C_10 
REMARK    5  A    between atoms: C_12  and  N_13 
REMARK    6  A    between atoms: N_16  and  C_18 
REMARK    7  A    between atoms: C_18  and  C_19 
REMARK    8  A    between atoms: C_18  and  C_25 
ROOT
HETATM    1  C   UNL     1      24.435  45.163  51.437  1.00  0.00     0.200 C 
HETATM    2  N   UNL     1      24.111  46.117  50.365  1.00  0.00    -0.211 N 
HETATM    3  C   UNL     1      23.311  45.734  49.338  1.00  0.00     0.702 C 
HETATM    4  N   UNL     1      22.764  44.564  49.257  1.00  0.00    -0.028 NA
HETATM    5  C   UNL     1      23.113  43.620  50.193  1.00  0.00     0.263 C 
HETATM    6  O   UNL     1      22.393  42.667  50.473  1.00  0.00    -0.271 OA
HETATM    7  C   UNL     1      24.459  43.776  50.845  1.00  0.00     0.141 C 
HETATM    8  H   UNL     1      24.950  46.645  50.116  1.00  0.00     0.178 HD
ENDROOT
BRANCH   3   9
HETATM    9  N   UNL     1      23.043  46.712  48.401  1.00  0.00    -0.213 N 
HETATM   10  C   UNL     1      22.845  48.134  48.727  1.00  0.00     0.169 C 
HETATM   11  C   UNL     1      21.357  48.393  49.024  1.00  0.00     0.256 C 
HETATM   12  N   UNL     1      20.523  47.996  47.800  1.00  0.00    -0.056 N 
HETATM   13  H   UNL     1      20.893  48.508  46.998  1.00  0.00     0.281 HD
HETATM   14  C   UNL     1      20.771  46.519  47.448  1.00  0.00     0.256 C 
HETATM   15  C   UNL     1      22.284  46.303  47.195  1.00  0.00     0.169 C 
BRANCH  12  16
HETATM   16  C   UNL     1      19.046  48.389  47.874  1.00  0.00     0.254 C 
BRANCH  16  17
HETATM   17  C   UNL     1      18.854  49.816  48.388  1.00  0.00    -0.023 A 
HETATM   18  C   UNL     1      19.604  50.897  47.886  1.00  0.00     0.009 A 
HETATM   19  C   UNL     1      19.422  52.188  48.386  1.00  0.00     0.001 A 
HETATM   20  C   UNL     1      18.488  52.421  49.392  1.00  0.00     0.000 A 
HETATM   21  C   UNL     1      17.731  51.366  49.897  1.00  0.00     0.001 A 
HETATM   22  C   UNL     1      17.911  50.073  49.400  1.00  0.00     0.009 A 
ENDBRANCH  16  17
BRANCH  16  23
HETATM   23  C   UNL     1      18.228  48.028  46.616  1.00  0.00    -0.023 A 
HETATM   24  C   UNL     1      17.084  47.205  46.657  1.00  0.00     0.009 A 
HETATM   25  C   UNL     1      16.346  46.928  45.500  1.00  0.00     0.001 A 
HETATM   26  C   UNL     1      16.719  47.480  44.281  1.00  0.00     0.000 A 
HETATM   27  C   UNL     1      17.818  48.327  44.219  1.00  0.00     0.001 A 
HETATM   28  C   UNL     1      18.554  48.610  45.372  1.00  0.00     0.009 A 
ENDBRANCH  16  23
ENDBRANCH  12  16
ENDBRANCH   3   9
BRANCH   1  29
HETATM   29  C   UNL     1      25.770  45.602  52.071  1.00  0.00     0.246 C 
HETATM   30  N   UNL     1      26.360  44.672  52.903  1.00  0.00    -0.325 N 
HETATM   31  H   UNL     1      26.049  43.709  52.857  1.00  0.00     0.169 HD
HETATM   32  O   UNL     1      26.199  46.734  51.832  1.00  0.00    -0.271 OA
BRANCH  30  33
HETATM   33  C   UNL     1      27.447  44.906  53.774  1.00  0.00     0.035 A 
HETATM   34  C   UNL     1      27.583  46.059  54.549  1.00  0.00     0.032 A 
HETATM   35  C   UNL     1      28.659  46.205  55.434  1.00  0.00     0.039 A 
HETATM   36  C   UNL     1      29.616  45.200  55.549  1.00  0.00     0.068 A 
HETATM   37  C   UNL     1      29.491  44.053  54.766  1.00  0.00     0.039 A 
HETATM   38  C   UNL     1      28.408  43.897  53.895  1.00  0.00     0.032 A 
BRANCH  36  39
HETATM   39  O   UNL     1      30.707  45.220  56.370  1.00  0.00    -0.352 OA
BRANCH  39  40
HETATM   40  C   UNL     1      30.758  44.237  57.404  1.00  0.00     0.171 C 
HETATM   41  C   UNL     1      31.996  43.387  57.184  1.00  0.00     0.034 C 
ENDBRANCH  39  40
ENDBRANCH  36  39
ENDBRANCH  30  33
ENDBRANCH   1  29
TORSDOF 8
ENDMDL
MODEL 7
REMARK VINA RESULT:      -9.6      2.143      4.192
REMARK  8 active torsions:
REMARK  status: ('A' for Active; 'I' for Inactive)
REMARK    1  A    between atoms: C_2  and  O_3 
REMARK    2  A    between atoms: O_3  and  C_4 
REMARK    3  A    between atoms: C_7  and  N_8 
REMARK       I    between atoms: N_8  and  C_9 
REMARK    4  A    between atoms: C_9  and  C_10 
REMARK    5  A    between atoms: C_12  and  N_13 
REMARK    6  A    between atoms: N_16  and  C_18 
REMARK    7  A    between atoms: C_18  and  C_19 
REMARK    8  A    between atoms: C_18  and  C_25 
ROOT
HETATM    1  C   UNL     1      22.251  46.264  48.200  1.00  0.00     0.200 C 
HETATM    2  N   UNL     1      23.425  46.592  49.023  1.00  0.00    -0.211 N 
HETATM    3  C   UNL     1      24.053  45.613  49.723  1.00  0.00     0.702 C 
HETATM    4  N   UNL     1      23.704  44.368  49.681  1.00  0.00    -0.028 NA
HETATM    5  C   UNL     1      22.560  44.040  48.994  1.00  0.00     0.263 C 
HETATM    6  O   UNL     1      22.359  42.918  48.540  1.00  0.00    -0.271 OA
HETATM    7  C   UNL     1      21.520  45.117  48.852  1.00  0.00     0.141 C 
HETATM    8  H   UNL     1      23.259  47.470  49.517  1.00  0.00     0.178 HD
ENDROOT
BRANCH   3   9
HETATM    9  N   UNL     1      25.163  46.018  50.439  1.00  0.00    -0.213 N 
HETATM   10  C   UNL     1      26.546  45.657  50.087  1.00  0.00     0.169 C 
HETATM   11  C   UNL     1      26.925  44.332  50.773  1.00  0.00     0.256 C 
HETATM   12  N   UNL     1      26.773  44.489  52.290  1.00  0.00    -0.056 N 
HETATM   13  H   UNL     1      27.338  45.291  52.573  1.00  0.00     0.281 HD
HETATM   14  C   UNL     1      25.333  44.904  52.638  1.00  0.00     0.256 C 
HETATM   15  C   UNL     1      24.990  46.220  51.897  1.00  0.00     0.169 C 
BRANCH  12  16
HETATM   16  C   UNL     1      27.309  43.316  53.114  1.00  0.00     0.254 C 
BRANCH  16  17
HETATM   17  C   UNL     1      27.582  42.083  52.252  1.00  0.00    -0.023 A 
HETATM   18  C   UNL     1      26.607  41.543  51.392  1.00  0.00     0.009 A 
HETATM   19  C   UNL     1      26.876  40.405  50.630  1.00  0.00     0.001 A 
HETATM   20  C   UNL     1      28.121  39.789  50.711  1.00  0.00     0.000 A 
HETATM   21  C   UNL     1      29.102  40.312  51.551  1.00  0.00     0.001 A 
HETATM   22  C   UNL     1      28.836  41.450  52.316  1.00  0.00     0.009 A 
ENDBRANCH  16  17
BRANCH  16  23
HETATM   23  C   UNL     1      28.438  43.693  54.097  1.00  0.00    -0.023 A 
HETATM   24  C   UNL     1      29.545  42.858  54.348  1.00  0.00     0.009 A 
HETATM   25  C   UNL     1      30.569  43.249  55.219  1.00  0.00     0.001 A 
HETATM   26  C   UNL     1      30.523  44.489  55.844  1.00  0.00     0.000 A 
HETATM   27  C   UNL     1      29.464  45.349  55.584  1.00  0.00     0.001 A 
HETATM   28  C   UNL     1      28.444  44.964  54.710  1.00  0.00     0.009 A 
ENDBRANCH  16  23
ENDBRANCH  12  16
ENDBRANCH   3   9
BRANCH   1  29
HETATM   29  C   UNL     1      21.407  47.546  48.052  1.00  0.00     0.246 C 
HETATM   30  N   UNL     1      21.399  48.377  49.156  1.00  0.00    -0.325 N 
HETATM   31  H   UNL     1      22.108  48.249  49.868  1.00  0.00     0.169 HD
HETATM   32  O   UNL     1      20.783  47.731  47.004  1.00  0.00    -0.271 OA
BRANCH  30  33
HETATM   33  C   UNL     1      20.537  49.477  49.364  1.00  0.00     0.035 A 
HETATM   34  C   UNL     1      20.763  50.747  48.830  1.00  0.00     0.032 A 
HETATM   35  C   UNL     1      19.840  51.782  49.029  1.00  0.00     0.039 A 
HETATM   36  C   UNL     1      18.683  51.559  49.773  1.00  0.00     0.068 A 
HETATM   37  C   UNL     1      18.463  50.295  50.319  1.00  0.00     0.039 A 
HETATM   38  C   UNL     1      19.373  49.256  50.106  1.00  0.00     0.032 A 
BRANCH  36  39
HETATM   39  O   UNL     1      17.711  52.479  50.039  1.00  0.00    -0.352 OA
BRANCH  39  40
HETATM   40  C   UNL     1      16.391  52.175  49.589  1.00  0.00     0.171 C 
HETATM   41  C   UNL     1      15.428  53.128  50.275  1.00  0.00     0.034 C 
ENDBRANCH  39  40
ENDBRANCH  36  39
ENDBRANCH  30  33
ENDBRANCH   1  29
TORSDOF 8
ENDMDL
MODEL 8
REMARK VINA RESULT:      -9.6      2.704     12.147
REMARK  8 active torsions:
REMARK  status: ('A' for Active; 'I' for Inactive)
REMARK    1  A    between atoms: C_2  and  O_3 
REMARK    2  A    between atoms: O_3  and  C_4 
REMARK    3  A    between atoms: C_7  and  N_8 
REMARK       I    between atoms: N_8  and  C_9 
REMARK    4  A    between atoms: C_9  and  C_10 
REMARK    5  A    between atoms: C_12  and  N_13 
REMARK    6  A    between atoms: N_16  and  C_18 
REMARK    7  A    between atoms: C_18  and  C_19 
REMARK    8  A    between atoms: C_18  and  C_25 
ROOT
HETATM    1  C   UNL     1      23.236  47.877  48.764  1.00  0.00     0.200 C 
HETATM    2  N   UNL     1      21.969  48.242  49.417  1.00  0.00    -0.211 N 
HETATM    3  C   UNL     1      21.531  49.526  49.370  1.00  0.00     0.702 C 
HETATM    4  N   UNL     1      22.150  50.469  48.737  1.00  0.00    -0.028 NA
HETATM    5  C   UNL     1      23.379  50.184  48.191  1.00  0.00     0.263 C 
HETATM    6  O   UNL     1      23.851  50.821  47.255  1.00  0.00    -0.271 OA
HETATM    7  C   UNL     1      24.160  49.066  48.825  1.00  0.00     0.141 C 
HETATM    8  H   UNL     1      21.905  47.772  50.321  1.00  0.00     0.178 HD
ENDROOT
BRANCH   3   9
HETATM    9  N   UNL     1      20.317  49.759  49.985  1.00  0.00    -0.213 N 
HETATM   10  C   UNL     1      19.144  48.878  49.853  1.00  0.00     0.169 C 
HETATM   11  C   UNL     1      18.304  49.315  48.639  1.00  0.00     0.256 C 
HETATM   12  N   UNL     1      17.870  50.773  48.826  1.00  0.00    -0.056 N 
HETATM   13  H   UNL     1      17.386  50.836  49.723  1.00  0.00     0.281 HD
HETATM   14  C   UNL     1      19.105  51.675  49.001  1.00  0.00     0.256 C 
HETATM   15  C   UNL     1      19.933  51.173  50.211  1.00  0.00     0.169 C 
BRANCH  12  16
HETATM   16  C   UNL     1      16.859  51.280  47.795  1.00  0.00     0.254 C 
BRANCH  16  17
HETATM   17  C   UNL     1      16.344  50.157  46.893  1.00  0.00    -0.023 A 
HETATM   18  C   UNL     1      15.247  49.353  47.255  1.00  0.00     0.009 A 
HETATM   19  C   UNL     1      14.809  48.322  46.421  1.00  0.00     0.001 A 
HETATM   20  C   UNL     1      15.456  48.080  45.213  1.00  0.00     0.000 A 
HETATM   21  C   UNL     1      16.538  48.869  44.833  1.00  0.00     0.001 A 
HETATM   22  C   UNL     1      16.981  49.901  45.665  1.00  0.00     0.009 A 
ENDBRANCH  16  17
BRANCH  16  23
HETATM   23  C   UNL     1      15.771  52.208  48.374  1.00  0.00    -0.023 A 
HETATM   24  C   UNL     1      15.451  52.249  49.746  1.00  0.00     0.009 A 
HETATM   25  C   UNL     1      14.482  53.131  50.241  1.00  0.00     0.001 A 
HETATM   26  C   UNL     1      13.827  54.006  49.384  1.00  0.00     0.000 A 
HETATM   27  C   UNL     1      14.152  54.016  48.034  1.00  0.00     0.001 A 
HETATM   28  C   UNL     1      15.121  53.141  47.537  1.00  0.00     0.009 A 
ENDBRANCH  16  23
ENDBRANCH  12  16
ENDBRANCH   3   9
BRANCH   1  29
HETATM   29  C   UNL     1      23.781  46.618  49.467  1.00  0.00     0.246 C 
HETATM   30  N   UNL     1      24.734  46.852  50.439  1.00  0.00    -0.325 N 
HETATM   31  H   UNL     1      24.835  47.790  50.808  1.00  0.00     0.169 HD
HETATM   32  O   UNL     1      23.373  45.510  49.108  1.00  0.00    -0.271 OA
BRANCH  30  33
HETATM   33  C   UNL     1      25.548  45.878  51.060  1.00  0.00     0.035 A 
HETATM   34  C   UNL     1      26.555  45.176  50.396  1.00  0.00     0.032 A 
HETATM   35  C   UNL     1      27.363  44.261  51.084  1.00  0.00     0.039 A 
HETATM   36  C   UNL     1      27.166  44.033  52.444  1.00  0.00     0.068 A 
HETATM   37  C   UNL     1      26.151  44.723  53.106  1.00  0.00     0.039 A 
HETATM   38  C   UNL     1      25.356  45.650  52.425  1.00  0.00     0.032 A 
BRANCH  36  39
HETATM   39  O   UNL     1      27.881  43.171  53.225  1.00  0.00    -0.352 OA
BRANCH  39  40
HETATM   40  C   UNL     1      29.116  43.651  53.756  1.00  0.00     0.171 C 
HETATM   41  C   UNL     1      30.235  42.792  53.195  1.00  0.00     0.034 C 
ENDBRANCH  39  40
ENDBRANCH  36  39
ENDBRANCH  30  33
ENDBRANCH   1  29
TORSDOF 8
ENDMDL
MODEL 9
REMARK VINA RESULT:      -9.6      3.195      5.443
REMARK  8 active torsions:
REMARK  status: ('A' for Active; 'I' for Inactive)
REMARK    1  A    between atoms: C_2  and  O_3 
REMARK    2  A    between atoms: O_3  and  C_4 
REMARK    3  A    between atoms: C_7  and  N_8 
REMARK       I    between atoms: N_8  and  C_9 
REMARK    4  A    between atoms: C_9  and  C_10 
REMARK    5  A    between atoms: C_12  and  N_13 
REMARK    6  A    between atoms: N_16  and  C_18 
REMARK    7  A    between atoms: C_18  and  C_19 
REMARK    8  A    between atoms: C_18  and  C_25 
ROOT
HETATM    1  C   UNL     1      22.973  44.187  46.353  1.00  0.00     0.200 C 
HETATM    2  N   UNL     1      23.685  43.975  47.623  1.00  0.00    -0.211 N 
HETATM    3  C   UNL     1      24.057  42.722  47.988  1.00  0.00     0.702 C 
HETATM    4  N   UNL     1      23.856  41.675  47.254  1.00  0.00    -0.028 NA
HETATM    5  C   UNL     1      23.117  41.822  46.105  1.00  0.00     0.263 C 
HETATM    6  O   UNL     1      23.208  41.050  45.156  1.00  0.00    -0.271 OA
HETATM    7  C   UNL     1      22.138  42.963  46.069  1.00  0.00     0.141 C 
HETATM    8  H   UNL     1      23.263  44.555  48.349  1.00  0.00     0.178 HD
ENDROOT
BRANCH   3   9
HETATM    9  N   UNL     1      24.747  42.634  49.181  1.00  0.00    -0.213 N 
HETATM   10  C   UNL     1      24.111  42.699  50.507  1.00  0.00     0.169 C 
HETATM   11  C   UNL     1      24.036  44.165  50.972  1.00  0.00     0.256 C 
HETATM   12  N   UNL     1      25.452  44.751  51.018  1.00  0.00    -0.056 N 
HETATM   13  H   UNL     1      26.015  44.143  51.615  1.00  0.00     0.281 HD
HETATM   14  C   UNL     1      26.117  44.639  49.635  1.00  0.00     0.256 C 
HETATM   15  C   UNL     1      26.135  43.153  49.199  1.00  0.00     0.169 C 
BRANCH  12  16
HETATM   16  C   UNL     1      25.553  46.138  51.658  1.00  0.00     0.254 C 
BRANCH  16  17
HETATM   17  C   UNL     1      26.466  46.142  52.885  1.00  0.00    -0.023 A 
HETATM   18  C   UNL     1      26.580  47.265  53.726  1.00  0.00     0.009 A 
HETATM   19  C   UNL     1      27.435  47.249  54.829  1.00  0.00     0.001 A 
HETATM   20  C   UNL     1      28.187  46.112  55.112  1.00  0.00     0.000 A 
HETATM   21  C   UNL     1      28.083  44.989  54.296  1.00  0.00     0.001 A 
HETATM   22  C   UNL     1      27.229  45.001  53.191  1.00  0.00     0.009 A 
ENDBRANCH  16  17
BRANCH  16  23
HETATM   23  C   UNL     1      25.796  47.285  50.654  1.00  0.00    -0.023 A 
HETATM   24  C   UNL     1      27.085  47.712  50.277  1.00  0.00     0.009 A 
HETATM   25  C   UNL     1      27.267  48.732  49.336  1.00  0.00     0.001 A 
HETATM   26  C   UNL     1      26.170  49.335  48.734  1.00  0.00     0.000 A 
HETATM   27  C   UNL     1      24.889  48.906  49.056  1.00  0.00     0.001 A 
HETATM   28  C   UNL     1      24.704  47.885  49.991  1.00  0.00     0.009 A 
ENDBRANCH  16  23
ENDBRANCH  12  16
ENDBRANCH   3   9
BRANCH   1  29
HETATM   29  C   UNL     1      22.159  45.489  46.482  1.00  0.00     0.246 C 
HETATM   30  N   UNL     1      21.980  45.947  47.773  1.00  0.00    -0.325 N 
HETATM   31  H   UNL     1      22.572  45.579  48.507  1.00  0.00     0.169 HD
HETATM   32  O   UNL     1      21.702  46.010  45.461  1.00  0.00    -0.271 OA
BRANCH  30  33
HETATM   33  C   UNL     1      21.094  46.970  48.178  1.00  0.00     0.035 A 
HETATM   34  C   UNL     1      19.814  46.731  48.681  1.00  0.00     0.032 A 
HETATM   35  C   UNL     1      19.006  47.788  49.117  1.00  0.00     0.039 A 
HETATM   36  C   UNL     1      19.466  49.101  49.045  1.00  0.00     0.068 A 
HETATM   37  C   UNL     1      20.739  49.344  48.529  1.00  0.00     0.039 A 
HETATM   38  C   UNL     1      21.555  48.288  48.111  1.00  0.00     0.032 A 
BRANCH  36  39
HETATM   39  O   UNL     1      18.780  50.215  49.434  1.00  0.00    -0.352 OA
BRANCH  39  40
HETATM   40  C   UNL     1      19.504  51.445  49.462  1.00  0.00     0.171 C 
HETATM   41  C   UNL     1      18.873  52.386  48.451  1.00  0.00     0.034 C 
ENDBRANCH  39  40
ENDBRANCH  36  39
ENDBRANCH  30  33
ENDBRANCH   1  29
TORSDOF 8
ENDMDL
MODEL 10
REMARK VINA RESULT:      -9.5      3.573     10.271
REMARK  8 active torsions:
REMARK  status: ('A' for Active; 'I' for Inactive)
REMARK    1  A    between atoms: C_2  and  O_3 
REMARK    2  A    between atoms: O_3  and  C_4 
REMARK    3  A    between atoms: C_7  and  N_8 
REMARK       I    between atoms: N_8  and  C_9 
REMARK    4  A    between atoms: C_9  and  C_10 
REMARK    5  A    between atoms: C_12  and  N_13 
REMARK    6  A    between atoms: N_16  and  C_18 
REMARK    7  A    between atoms: C_18  and  C_19 
REMARK    8  A    between atoms: C_18  and  C_25 
ROOT
HETATM    1  C   UNL     1      23.354  43.081  49.647  1.00  0.00     0.200 C 
HETATM    2  N   UNL     1      22.452  44.058  49.018  1.00  0.00    -0.211 N 
HETATM    3  C   UNL     1      21.763  43.719  47.899  1.00  0.00     0.702 C 
HETATM    4  N   UNL     1      21.817  42.546  47.355  1.00  0.00    -0.028 NA
HETATM    5  C   UNL     1      22.715  41.638  47.863  1.00  0.00     0.263 C 
HETATM    6  O   UNL     1      22.577  40.426  47.731  1.00  0.00    -0.271 OA
HETATM    7  C   UNL     1      23.922  42.196  48.566  1.00  0.00     0.141 C 
HETATM    8  H   UNL     1      22.895  44.979  49.019  1.00  0.00     0.178 HD
ENDROOT
BRANCH   3   9
HETATM    9  N   UNL     1      20.921  44.695  47.405  1.00  0.00    -0.213 N 
HETATM   10  C   UNL     1      21.323  45.706  46.413  1.00  0.00     0.169 C 
HETATM   11  C   UNL     1      21.887  46.943  47.137  1.00  0.00     0.256 C 
HETATM   12  N   UNL     1      20.818  47.504  48.082  1.00  0.00    -0.056 N 
HETATM   13  H   UNL     1      19.981  47.681  47.525  1.00  0.00     0.281 HD
HETATM   14  C   UNL     1      20.380  46.424  49.086  1.00  0.00     0.256 C 
HETATM   15  C   UNL     1      19.855  45.190  48.309  1.00  0.00     0.169 C 
BRANCH  12  16
HETATM   16  C   UNL     1      21.166  48.853  48.716  1.00  0.00     0.254 C 
BRANCH  16  17
HETATM   17  C   UNL     1      22.662  49.158  48.637  1.00  0.00    -0.023 A 
HETATM   18  C   UNL     1      23.176  50.162  47.795  1.00  0.00     0.009 A 
HETATM   19  C   UNL     1      24.548  50.408  47.728  1.00  0.00     0.001 A 
HETATM   20  C   UNL     1      25.429  49.659  48.503  1.00  0.00     0.000 A 
HETATM   21  C   UNL     1      24.941  48.666  49.348  1.00  0.00     0.001 A 
HETATM   22  C   UNL     1      23.568  48.416  49.417  1.00  0.00     0.009 A 
ENDBRANCH  16  17
BRANCH  16  23
HETATM   23  C   UNL     1      20.236  50.010  48.296  1.00  0.00    -0.023 A 
HETATM   24  C   UNL     1      19.463  49.983  47.118  1.00  0.00     0.009 A 
HETATM   25  C   UNL     1      18.603  51.037  46.787  1.00  0.00     0.001 A 
HETATM   26  C   UNL     1      18.478  52.131  47.633  1.00  0.00     0.000 A 
HETATM   27  C   UNL     1      19.196  52.167  48.821  1.00  0.00     0.001 A 
HETATM   28  C   UNL     1      20.052  51.114  49.156  1.00  0.00     0.009 A 
ENDBRANCH  16  23
ENDBRANCH  12  16
ENDBRANCH   3   9
BRANCH   1  29
HETATM   29  C   UNL     1      24.417  43.866  50.442  1.00  0.00     0.246 C 
HETATM   30  N   UNL     1      25.078  43.142  51.414  1.00  0.00    -0.325 N 
HETATM   31  H   UNL     1      25.029  42.130  51.388  1.00  0.00     0.169 HD
HETATM   32  O   UNL     1      24.583  45.063  50.193  1.00  0.00    -0.271 OA
BRANCH  30  33
HETATM   33  C   UNL     1      25.917  43.671  52.420  1.00  0.00     0.035 A 
HETATM   34  C   UNL     1      25.441  44.237  53.605  1.00  0.00     0.032 A 
HETATM   35  C   UNL     1      26.329  44.695  54.587  1.00  0.00     0.039 A 
HETATM   36  C   UNL     1      27.705  44.599  54.391  1.00  0.00     0.068 A 
HETATM   37  C   UNL     1      28.182  44.048  53.202  1.00  0.00     0.039 A 
HETATM   38  C   UNL     1      27.298  43.573  52.228  1.00  0.00     0.032 A 
BRANCH  36  39
HETATM   39  O   UNL     1      28.671  45.007  55.265  1.00  0.00    -0.352 OA
BRANCH  39  40
HETATM   40  C   UNL     1      28.405  46.191  56.017  1.00  0.00     0.171 C 
HETATM   41  C   UNL     1      29.019  46.020  57.395  1.00  0.00     0.034 C 
ENDBRANCH  39  40
ENDBRANCH  36  39
ENDBRANCH  30  33
ENDBRANCH   1  29
TORSDOF 8
ENDMDL
