MODEL 1
REMARK VINA RESULT:      -8.2      0.000      0.000
REMARK  4 active torsions:
REMARK  status: ('A' for Active; 'I' for Inactive)
REMARK    1  A    between atoms: O_2  and  C_3 
REMARK    2  A    between atoms: C_4  and  O_5 
REMARK    3  A    between atoms: C_9  and  C_10 
REMARK    4  A    between atoms: C_10  and  N_11 
ROOT
HETATM    1  N   UNL     1      27.724  43.488  52.308  1.00  0.00    -0.066 N 
HETATM    2  H   UNL     1      27.746  44.512  52.429  1.00  0.00     0.280 HD
HETATM    3  C   UNL     1      27.905  43.241  50.820  1.00  0.00     0.246 C 
HETATM    4  C   UNL     1      26.697  43.767  50.018  1.00  0.00     0.062 C 
HETATM    5  C   UNL     1      25.431  43.066  50.496  1.00  0.00     0.020 C 
HETATM    6  C   UNL     1      25.211  43.443  51.955  1.00  0.00     0.031 C 
HETATM    7  C   UNL     1      24.961  44.946  52.056  1.00  0.00     0.138 C 
HETATM    8  N   UNL     1      25.843  45.788  51.249  1.00  0.00    -0.317 N 
HETATM    9  C   UNL     1      26.568  45.275  50.168  1.00  0.00     0.020 A 
HETATM   10  C   UNL     1      27.152  46.114  49.296  1.00  0.00     0.026 A 
HETATM   11  C   UNL     1      25.698  47.171  51.461  1.00  0.00     0.247 A 
HETATM   12  O   UNL     1      25.067  47.652  52.396  1.00  0.00    -0.268 OA
HETATM   13  C   UNL     1      26.363  48.063  50.483  1.00  0.00     0.074 A 
HETATM   14  C   UNL     1      27.041  47.541  49.455  1.00  0.00     0.007 A 
HETATM   15  C   UNL     1      26.387  42.994  52.824  1.00  0.00     0.241 C 
ENDROOT
BRANCH   1  16
HETATM   16  C   UNL     1      28.837  42.927  53.173  1.00  0.00     0.273 C 
BRANCH  16  17
HETATM   17  C   UNL     1      29.298  43.783  54.321  1.00  0.00    -0.028 A 
HETATM   18  C   UNL     1      30.354  43.345  55.141  1.00  0.00     0.031 A 
HETATM   19  C   UNL     1      30.737  44.078  56.268  1.00  0.00     0.047 A 
HETATM   20  C   UNL     1      30.064  45.253  56.597  1.00  0.00     0.116 A 
HETATM   21 BR   UNL     1      32.140  43.398  57.344  1.00  0.00    -0.048 Br
HETATM   22  C   UNL     1      29.055  45.729  55.756  1.00  0.00     0.103 A 
HETATM   23  C   UNL     1      28.663  44.993  54.632  1.00  0.00     0.048 A 
BRANCH  20  24
HETATM   24  O   UNL     1      30.360  45.900  57.763  1.00  0.00    -0.357 OA
HETATM   25  H   UNL     1      30.494  45.220  58.447  1.00  0.00     0.218 HD
ENDBRANCH  20  24
BRANCH  22  26
HETATM   26  O   UNL     1      28.342  46.866  56.030  1.00  0.00    -0.353 OA
HETATM   27  C   UNL     1      27.816  47.485  54.851  1.00  0.00     0.210 C 
ENDBRANCH  22  26
ENDBRANCH  16  17
ENDBRANCH   1  16
TORSDOF 4
ENDMDL
MODEL 2
REMARK VINA RESULT:      -8.0     12.718     14.017
REMARK  4 active torsions:
REMARK  status: ('A' for Active; 'I' for Inactive)
REMARK    1  A    between atoms: O_2  and  C_3 
REMARK    2  A    between atoms: C_4  and  O_5 
REMARK    3  A    between atoms: C_9  and  C_10 
REMARK    4  A    between atoms: C_10  and  N_11 
ROOT
HETATM    1  N   UNL     1      30.746  48.754  40.523  1.00  0.00    -0.066 N 
HETATM    2  H   UNL     1      30.744  49.777  40.658  1.00  0.00     0.280 HD
HETATM    3  C   UNL     1      30.518  48.530  39.038  1.00  0.00     0.246 C 
HETATM    4  C   UNL     1      29.107  48.990  38.616  1.00  0.00     0.062 C 
HETATM    5  C   UNL     1      28.065  48.211  39.410  1.00  0.00     0.020 C 
HETATM    6  C   UNL     1      28.241  48.563  40.881  1.00  0.00     0.031 C 
HETATM    7  C   UNL     1      27.947  50.048  41.083  1.00  0.00     0.138 C 
HETATM    8  N   UNL     1      28.521  50.947  40.084  1.00  0.00    -0.317 N 
HETATM    9  C   UNL     1      28.943  50.486  38.833  1.00  0.00     0.020 A 
HETATM   10  C   UNL     1      29.214  51.365  37.852  1.00  0.00     0.026 A 
HETATM   11  C   UNL     1      28.366  52.317  40.361  1.00  0.00     0.247 A 
HETATM   12  O   UNL     1      27.994  52.753  41.446  1.00  0.00    -0.268 OA
HETATM   13  C   UNL     1      28.682  53.254  39.258  1.00  0.00     0.074 A 
HETATM   14  C   UNL     1      29.074  52.781  38.071  1.00  0.00     0.007 A 
HETATM   15  C   UNL     1      29.635  48.178  41.378  1.00  0.00     0.241 C 
ENDROOT
BRANCH   1  16
HETATM   16  C   UNL     1      32.085  48.253  41.031  1.00  0.00     0.273 C 
BRANCH  16  17
HETATM   17  C   UNL     1      32.972  49.262  41.708  1.00  0.00    -0.028 A 
HETATM   18  C   UNL     1      32.460  50.058  42.749  1.00  0.00     0.031 A 
HETATM   19  C   UNL     1      33.236  51.066  43.328  1.00  0.00     0.047 A 
HETATM   20  C   UNL     1      34.530  51.300  42.869  1.00  0.00     0.116 A 
HETATM   21 BR   UNL     1      32.456  52.122  44.695  1.00  0.00    -0.048 Br
HETATM   22  C   UNL     1      35.071  50.476  41.879  1.00  0.00     0.103 A 
HETATM   23  C   UNL     1      34.293  49.472  41.290  1.00  0.00     0.048 A 
BRANCH  20  24
HETATM   24  O   UNL     1      35.240  52.362  43.352  1.00  0.00    -0.357 OA
HETATM   25  H   UNL     1      35.289  53.027  42.642  1.00  0.00     0.218 HD
ENDBRANCH  20  24
BRANCH  22  26
HETATM   26  O   UNL     1      36.329  50.662  41.370  1.00  0.00    -0.353 OA
HETATM   27  C   UNL     1      36.364  50.575  39.942  1.00  0.00     0.210 C 
ENDBRANCH  22  26
ENDBRANCH  16  17
ENDBRANCH   1  16
TORSDOF 4
ENDMDL
MODEL 3
REMARK VINA RESULT:      -7.8      3.472      7.078
REMARK  4 active torsions:
REMARK  status: ('A' for Active; 'I' for Inactive)
REMARK    1  A    between atoms: O_2  and  C_3 
REMARK    2  A    between atoms: C_4  and  O_5 
REMARK    3  A    between atoms: C_9  and  C_10 
REMARK    4  A    between atoms: C_10  and  N_11 
ROOT
HETATM    1  N   UNL     1      27.059  44.872  52.034  1.00  0.00    -0.066 N 
HETATM    2  H   UNL     1      28.057  44.884  52.295  1.00  0.00     0.280 HD
HETATM    3  C   UNL     1      26.366  45.828  52.989  1.00  0.00     0.246 C 
HETATM    4  C   UNL     1      26.410  45.296  54.436  1.00  0.00     0.062 C 
HETATM    5  C   UNL     1      25.721  43.937  54.494  1.00  0.00     0.020 C 
HETATM    6  C   UNL     1      26.520  42.973  53.628  1.00  0.00     0.031 C 
HETATM    7  C   UNL     1      27.916  42.798  54.222  1.00  0.00     0.138 C 
HETATM    8  N   UNL     1      28.569  44.027  54.672  1.00  0.00    -0.317 N 
HETATM    9  C   UNL     1      27.844  45.195  54.929  1.00  0.00     0.020 A 
HETATM   10  C   UNL     1      28.427  46.212  55.588  1.00  0.00     0.026 A 
HETATM   11  C   UNL     1      29.905  43.872  55.081  1.00  0.00     0.247 A 
HETATM   12  O   UNL     1      30.566  42.860  54.874  1.00  0.00    -0.268 OA
HETATM   13  C   UNL     1      30.515  45.018  55.796  1.00  0.00     0.074 A 
HETATM   14  C   UNL     1      29.792  46.117  56.035  1.00  0.00     0.007 A 
HETATM   15  C   UNL     1      26.567  43.446  52.174  1.00  0.00     0.241 C 
ENDROOT
BRANCH   1  16
HETATM   16  C   UNL     1      26.991  45.288  50.576  1.00  0.00     0.273 C 
BRANCH  16  17
HETATM   17  C   UNL     1      25.726  45.966  50.124  1.00  0.00    -0.028 A 
HETATM   18  C   UNL     1      24.615  45.193  49.744  1.00  0.00     0.031 A 
HETATM   19  C   UNL     1      23.462  45.798  49.232  1.00  0.00     0.047 A 
HETATM   20  C   UNL     1      23.410  47.183  49.084  1.00  0.00     0.116 A 
HETATM   21 BR   UNL     1      22.026  44.683  48.702  1.00  0.00    -0.048 Br
HETATM   22  C   UNL     1      24.483  47.965  49.516  1.00  0.00     0.103 A 
HETATM   23  C   UNL     1      25.642  47.362  50.020  1.00  0.00     0.048 A 
BRANCH  20  24
HETATM   24  O   UNL     1      22.333  47.758  48.472  1.00  0.00    -0.357 OA
HETATM   25  H   UNL     1      22.100  48.556  48.981  1.00  0.00     0.218 HD
ENDBRANCH  20  24
BRANCH  22  26
HETATM   26  O   UNL     1      24.504  49.328  49.383  1.00  0.00    -0.353 OA
HETATM   27  C   UNL     1      25.418  49.770  48.375  1.00  0.00     0.210 C 
ENDBRANCH  22  26
ENDBRANCH  16  17
ENDBRANCH   1  16
TORSDOF 4
ENDMDL
MODEL 4
REMARK VINA RESULT:      -7.8     12.323     13.797
REMARK  4 active torsions:
REMARK  status: ('A' for Active; 'I' for Inactive)
REMARK    1  A    between atoms: O_2  and  C_3 
REMARK    2  A    between atoms: C_4  and  O_5 
REMARK    3  A    between atoms: C_9  and  C_10 
REMARK    4  A    between atoms: C_10  and  N_11 
ROOT
HETATM    1  N   UNL     1      30.949  48.940  41.012  1.00  0.00    -0.066 N 
HETATM    2  H   UNL     1      30.925  49.971  40.977  1.00  0.00     0.280 HD
HETATM    3  C   UNL     1      30.652  48.467  39.600  1.00  0.00     0.246 C 
HETATM    4  C   UNL     1      29.209  48.824  39.187  1.00  0.00     0.062 C 
HETATM    5  C   UNL     1      28.231  48.167  40.155  1.00  0.00     0.020 C 
HETATM    6  C   UNL     1      28.472  48.762  41.535  1.00  0.00     0.031 C 
HETATM    7  C   UNL     1      28.147  50.254  41.506  1.00  0.00     0.138 C 
HETATM    8  N   UNL     1      28.643  50.986  40.341  1.00  0.00    -0.317 N 
HETATM    9  C   UNL     1      29.013  50.331  39.162  1.00  0.00     0.020 A 
HETATM   10  C   UNL     1      29.208  51.040  38.036  1.00  0.00     0.026 A 
HETATM   11  C   UNL     1      28.464  52.379  40.396  1.00  0.00     0.247 A 
HETATM   12  O   UNL     1      28.136  52.982  41.413  1.00  0.00    -0.268 OA
HETATM   13  C   UNL     1      28.696  53.126  39.138  1.00  0.00     0.074 A 
HETATM   14  C   UNL     1      29.040  52.470  38.025  1.00  0.00     0.007 A 
HETATM   15  C   UNL     1      29.900  48.493  42.011  1.00  0.00     0.241 C 
ENDROOT
BRANCH   1  16
HETATM   16  C   UNL     1      32.326  48.557  41.522  1.00  0.00     0.273 C 
BRANCH  16  17
HETATM   17  C   UNL     1      33.263  49.686  41.852  1.00  0.00    -0.028 A 
HETATM   18  C   UNL     1      34.458  49.840  41.125  1.00  0.00     0.031 A 
HETATM   19  C   UNL     1      35.388  50.823  41.475  1.00  0.00     0.047 A 
HETATM   20  C   UNL     1      35.142  51.659  42.563  1.00  0.00     0.116 A 
HETATM   21 BR   UNL     1      36.991  50.937  40.472  1.00  0.00    -0.048 Br
HETATM   22  C   UNL     1      33.932  51.556  43.253  1.00  0.00     0.103 A 
HETATM   23  C   UNL     1      33.003  50.566  42.912  1.00  0.00     0.048 A 
BRANCH  20  24
HETATM   24  O   UNL     1      36.105  52.535  42.976  1.00  0.00    -0.357 OA
HETATM   25  H   UNL     1      35.997  53.353  42.457  1.00  0.00     0.218 HD
ENDBRANCH  20  24
BRANCH  22  26
HETATM   26  O   UNL     1      33.635  52.333  44.341  1.00  0.00    -0.353 OA
HETATM   27  C   UNL     1      32.352  52.033  44.900  1.00  0.00     0.210 C 
ENDBRANCH  22  26
ENDBRANCH  16  17
ENDBRANCH   1  16
TORSDOF 4
ENDMDL
MODEL 5
REMARK VINA RESULT:      -7.6      6.444      8.622
REMARK  4 active torsions:
REMARK  status: ('A' for Active; 'I' for Inactive)
REMARK    1  A    between atoms: O_2  and  C_3 
REMARK    2  A    between atoms: C_4  and  O_5 
REMARK    3  A    between atoms: C_9  and  C_10 
REMARK    4  A    between atoms: C_10  and  N_11 
ROOT
HETATM    1  N   UNL     1      20.452  46.739  47.936  1.00  0.00    -0.066 N 
HETATM    2  H   UNL     1      20.621  47.478  48.636  1.00  0.00     0.280 HD
HETATM    3  C   UNL     1      20.273  47.454  46.608  1.00  0.00     0.246 C 
HETATM    4  C   UNL     1      18.990  48.310  46.608  1.00  0.00     0.062 C 
HETATM    5  C   UNL     1      17.785  47.412  46.864  1.00  0.00     0.020 C 
HETATM    6  C   UNL     1      17.936  46.816  48.257  1.00  0.00     0.031 C 
HETATM    7  C   UNL     1      17.894  47.938  49.293  1.00  0.00     0.138 C 
HETATM    8  N   UNL     1      18.672  49.132  48.963  1.00  0.00    -0.317 N 
HETATM    9  C   UNL     1      19.076  49.409  47.654  1.00  0.00     0.020 A 
HETATM   10  C   UNL     1      19.551  50.629  47.345  1.00  0.00     0.026 A 
HETATM   11  C   UNL     1      18.742  50.093  49.986  1.00  0.00     0.247 A 
HETATM   12  O   UNL     1      18.392  49.882  51.143  1.00  0.00    -0.268 OA
HETATM   13  C   UNL     1      19.278  51.422  49.609  1.00  0.00     0.074 A 
HETATM   14  C   UNL     1      19.648  51.659  48.347  1.00  0.00     0.007 A 
HETATM   15  C   UNL     1      19.212  45.980  48.364  1.00  0.00     0.241 C 
ENDROOT
BRANCH   1  16
HETATM   16  C   UNL     1      21.653  45.812  47.989  1.00  0.00     0.273 C 
BRANCH  16  17
HETATM   17  C   UNL     1      22.868  46.320  48.716  1.00  0.00    -0.028 A 
HETATM   18  C   UNL     1      23.628  45.441  49.509  1.00  0.00     0.031 A 
HETATM   19  C   UNL     1      24.704  45.909  50.268  1.00  0.00     0.047 A 
HETATM   20  C   UNL     1      25.029  47.264  50.255  1.00  0.00     0.116 A 
HETATM   21 BR   UNL     1      25.650  44.667  51.342  1.00  0.00    -0.048 Br
HETATM   22  C   UNL     1      24.320  48.135  49.425  1.00  0.00     0.103 A 
HETATM   23  C   UNL     1      23.236  47.672  48.670  1.00  0.00     0.048 A 
BRANCH  20  24
HETATM   24  O   UNL     1      26.001  47.736  51.090  1.00  0.00    -0.357 OA
HETATM   25  H   UNL     1      26.645  47.017  51.223  1.00  0.00     0.218 HD
ENDBRANCH  20  24
BRANCH  22  26
HETATM   26  O   UNL     1      24.575  49.481  49.377  1.00  0.00    -0.353 OA
HETATM   27  C   UNL     1      25.347  49.855  48.232  1.00  0.00     0.210 C 
ENDBRANCH  22  26
ENDBRANCH  16  17
ENDBRANCH   1  16
TORSDOF 4
ENDMDL
MODEL 6
REMARK VINA RESULT:      -7.4      3.826      7.472
REMARK  4 active torsions:
REMARK  status: ('A' for Active; 'I' for Inactive)
REMARK    1  A    between atoms: O_2  and  C_3 
REMARK    2  A    between atoms: C_4  and  O_5 
REMARK    3  A    between atoms: C_9  and  C_10 
REMARK    4  A    between atoms: C_10  and  N_11 
ROOT
HETATM    1  N   UNL     1      26.527  45.716  51.735  1.00  0.00    -0.066 N 
HETATM    2  H   UNL     1      27.504  45.513  51.997  1.00  0.00     0.280 HD
HETATM    3  C   UNL     1      26.032  46.742  52.740  1.00  0.00     0.246 C 
HETATM    4  C   UNL     1      25.953  46.139  54.157  1.00  0.00     0.062 C 
HETATM    5  C   UNL     1      25.004  44.946  54.145  1.00  0.00     0.020 C 
HETATM    6  C   UNL     1      25.600  43.886  53.229  1.00  0.00     0.031 C 
HETATM    7  C   UNL     1      26.926  43.403  53.812  1.00  0.00     0.138 C 
HETATM    8  N   UNL     1      27.809  44.450  54.325  1.00  0.00    -0.317 N 
HETATM    9  C   UNL     1      27.333  45.726  54.644  1.00  0.00     0.020 A 
HETATM   10  C   UNL     1      28.103  46.569  55.353  1.00  0.00     0.026 A 
HETATM   11  C   UNL     1      29.082  44.007  54.725  1.00  0.00     0.247 A 
HETATM   12  O   UNL     1      29.528  42.894  54.464  1.00  0.00    -0.268 OA
HETATM   13  C   UNL     1      29.904  44.968  55.497  1.00  0.00     0.074 A 
HETATM   14  C   UNL     1      29.416  46.177  55.794  1.00  0.00     0.007 A 
HETATM   15  C   UNL     1      25.755  44.413  51.802  1.00  0.00     0.241 C 
ENDROOT
BRANCH   1  16
HETATM   16  C   UNL     1      26.558  46.212  50.301  1.00  0.00     0.273 C 
BRANCH  16  17
HETATM   17  C   UNL     1      25.253  46.683  49.720  1.00  0.00    -0.028 A 
HETATM   18  C   UNL     1      25.043  48.055  49.494  1.00  0.00     0.031 A 
HETATM   19  C   UNL     1      23.806  48.526  49.044  1.00  0.00     0.047 A 
HETATM   20  C   UNL     1      22.759  47.633  48.823  1.00  0.00     0.116 A 
HETATM   21 BR   UNL     1      23.591  50.393  48.806  1.00  0.00    -0.048 Br
HETATM   22  C   UNL     1      22.975  46.263  48.985  1.00  0.00     0.103 A 
HETATM   23  C   UNL     1      24.209  45.789  49.445  1.00  0.00     0.048 A 
BRANCH  20  24
HETATM   24  O   UNL     1      21.519  48.108  48.502  1.00  0.00    -0.357 OA
HETATM   25  H   UNL     1      21.571  48.468  47.598  1.00  0.00     0.218 HD
ENDBRANCH  20  24
BRANCH  22  26
HETATM   26  O   UNL     1      21.985  45.333  48.803  1.00  0.00    -0.353 OA
HETATM   27  C   UNL     1      22.433  44.187  48.072  1.00  0.00     0.210 C 
ENDBRANCH  22  26
ENDBRANCH  16  17
ENDBRANCH   1  16
TORSDOF 4
ENDMDL
MODEL 7
REMARK VINA RESULT:      -7.3     13.342     14.845
REMARK  4 active torsions:
REMARK  status: ('A' for Active; 'I' for Inactive)
REMARK    1  A    between atoms: O_2  and  C_3 
REMARK    2  A    between atoms: C_4  and  O_5 
REMARK    3  A    between atoms: C_9  and  C_10 
REMARK    4  A    between atoms: C_10  and  N_11 
ROOT
HETATM    1  N   UNL     1      28.081  50.809  39.923  1.00  0.00    -0.066 N 
HETATM    2  H   UNL     1      28.886  50.278  40.290  1.00  0.00     0.280 HD
HETATM    3  C   UNL     1      28.599  51.570  38.715  1.00  0.00     0.246 C 
HETATM    4  C   UNL     1      29.631  52.638  39.131  1.00  0.00     0.062 C 
HETATM    5  C   UNL     1      28.979  53.617  40.102  1.00  0.00     0.020 C 
HETATM    6  C   UNL     1      28.591  52.842  41.354  1.00  0.00     0.031 C 
HETATM    7  C   UNL     1      29.853  52.308  42.028  1.00  0.00     0.138 C 
HETATM    8  N   UNL     1      30.848  51.721  41.132  1.00  0.00    -0.317 N 
HETATM    9  C   UNL     1      30.853  51.989  39.759  1.00  0.00     0.020 A 
HETATM   10  C   UNL     1      31.923  51.654  39.017  1.00  0.00     0.026 A 
HETATM   11  C   UNL     1      31.936  51.106  41.777  1.00  0.00     0.247 A 
HETATM   12  O   UNL     1      31.963  50.861  42.978  1.00  0.00    -0.268 OA
HETATM   13  C   UNL     1      33.092  50.744  40.923  1.00  0.00     0.074 A 
HETATM   14  C   UNL     1      33.069  51.022  39.616  1.00  0.00     0.007 A 
HETATM   15  C   UNL     1      27.596  51.727  41.028  1.00  0.00     0.241 C 
ENDROOT
BRANCH   1  16
HETATM   16  C   UNL     1      27.001  49.791  39.603  1.00  0.00     0.273 C 
BRANCH  16  17
HETATM   17  C   UNL     1      27.405  48.343  39.642  1.00  0.00    -0.028 A 
HETATM   18  C   UNL     1      26.420  47.343  39.727  1.00  0.00     0.031 A 
HETATM   19  C   UNL     1      26.773  45.997  39.858  1.00  0.00     0.047 A 
HETATM   20  C   UNL     1      28.117  45.633  39.918  1.00  0.00     0.116 A 
HETATM   21 BR   UNL     1      25.385  44.717  40.010  1.00  0.00    -0.048 Br
HETATM   22  C   UNL     1      29.104  46.610  39.773  1.00  0.00     0.103 A 
HETATM   23  C   UNL     1      28.754  47.959  39.650  1.00  0.00     0.048 A 
BRANCH  20  24
HETATM   24  O   UNL     1      28.457  44.334  40.169  1.00  0.00    -0.357 OA
HETATM   25  H   UNL     1      29.292  44.155  39.700  1.00  0.00     0.218 HD
ENDBRANCH  20  24
BRANCH  22  26
HETATM   26  O   UNL     1      30.442  46.323  39.841  1.00  0.00    -0.353 OA
HETATM   27  C   UNL     1      31.241  47.478  40.113  1.00  0.00     0.210 C 
ENDBRANCH  22  26
ENDBRANCH  16  17
ENDBRANCH   1  16
TORSDOF 4
ENDMDL
MODEL 8
REMARK VINA RESULT:      -7.1      5.161      7.318
REMARK  4 active torsions:
REMARK  status: ('A' for Active; 'I' for Inactive)
REMARK    1  A    between atoms: O_2  and  C_3 
REMARK    2  A    between atoms: C_4  and  O_5 
REMARK    3  A    between atoms: C_9  and  C_10 
REMARK    4  A    between atoms: C_10  and  N_11 
ROOT
HETATM    1  N   UNL     1      25.483  42.410  49.918  1.00  0.00    -0.066 N 
HETATM    2  H   UNL     1      25.463  42.217  50.932  1.00  0.00     0.280 HD
HETATM    3  C   UNL     1      26.892  42.887  49.612  1.00  0.00     0.246 C 
HETATM    4  C   UNL     1      27.179  44.244  50.287  1.00  0.00     0.062 C 
HETATM    5  C   UNL     1      26.177  45.277  49.786  1.00  0.00     0.020 C 
HETATM    6  C   UNL     1      24.789  44.832  50.226  1.00  0.00     0.031 C 
HETATM    7  C   UNL     1      24.718  44.835  51.752  1.00  0.00     0.138 C 
HETATM    8  N   UNL     1      25.877  44.266  52.439  1.00  0.00    -0.317 N 
HETATM    9  C   UNL     1      27.112  44.116  51.800  1.00  0.00     0.020 A 
HETATM   10  C   UNL     1      28.211  43.844  52.525  1.00  0.00     0.026 A 
HETATM   11  C   UNL     1      25.738  44.143  53.833  1.00  0.00     0.247 A 
HETATM   12  O   UNL     1      24.670  44.272  54.423  1.00  0.00    -0.268 OA
HETATM   13  C   UNL     1      26.970  43.834  54.596  1.00  0.00     0.074 A 
HETATM   14  C   UNL     1      28.137  43.706  53.956  1.00  0.00     0.007 A 
HETATM   15  C   UNL     1      24.433  43.467  49.635  1.00  0.00     0.241 C 
ENDROOT
BRANCH   1  16
HETATM   16  C   UNL     1      25.096  41.117  49.225  1.00  0.00     0.273 C 
BRANCH  16  17
HETATM   17  C   UNL     1      26.223  40.246  48.741  1.00  0.00    -0.028 A 
HETATM   18  C   UNL     1      26.595  40.272  47.385  1.00  0.00     0.031 A 
HETATM   19  C   UNL     1      27.575  39.404  46.894  1.00  0.00     0.047 A 
HETATM   20  C   UNL     1      28.188  38.491  47.749  1.00  0.00     0.116 A 
HETATM   21 BR   UNL     1      27.987  39.473  45.046  1.00  0.00    -0.048 Br
HETATM   22  C   UNL     1      27.870  38.498  49.109  1.00  0.00     0.103 A 
HETATM   23  C   UNL     1      26.883  39.359  49.602  1.00  0.00     0.048 A 
BRANCH  20  24
HETATM   24  O   UNL     1      29.054  37.564  47.243  1.00  0.00    -0.357 OA
HETATM   25  H   UNL     1      28.966  37.583  46.272  1.00  0.00     0.218 HD
ENDBRANCH  20  24
BRANCH  22  26
HETATM   26  O   UNL     1      28.422  37.616  50.000  1.00  0.00    -0.353 OA
HETATM   27  C   UNL     1      29.626  38.112  50.594  1.00  0.00     0.210 C 
ENDBRANCH  22  26
ENDBRANCH  16  17
ENDBRANCH   1  16
TORSDOF 4
ENDMDL
MODEL 9
REMARK VINA RESULT:      -7.1     12.504     14.443
REMARK  4 active torsions:
REMARK  status: ('A' for Active; 'I' for Inactive)
REMARK    1  A    between atoms: O_2  and  C_3 
REMARK    2  A    between atoms: C_4  and  O_5 
REMARK    3  A    between atoms: C_9  and  C_10 
REMARK    4  A    between atoms: C_10  and  N_11 
ROOT
HETATM    1  N   UNL     1      29.171  47.842  40.569  1.00  0.00    -0.066 N 
HETATM    2  H   UNL     1      28.756  48.520  39.912  1.00  0.00     0.280 HD
HETATM    3  C   UNL     1      29.270  48.562  41.903  1.00  0.00     0.246 C 
HETATM    4  C   UNL     1      30.280  49.726  41.832  1.00  0.00     0.062 C 
HETATM    5  C   UNL     1      31.652  49.181  41.451  1.00  0.00     0.020 C 
HETATM    6  C   UNL     1      31.543  48.584  40.054  1.00  0.00     0.031 C 
HETATM    7  C   UNL     1      31.202  49.690  39.057  1.00  0.00     0.138 C 
HETATM    8  N   UNL     1      30.171  50.633  39.489  1.00  0.00    -0.317 N 
HETATM    9  C   UNL     1      29.821  50.777  40.835  1.00  0.00     0.020 A 
HETATM   10  C   UNL     1      29.072  51.825  41.223  1.00  0.00     0.026 A 
HETATM   11  C   UNL     1      29.765  51.556  38.509  1.00  0.00     0.247 A 
HETATM   12  O   UNL     1      30.058  51.459  37.322  1.00  0.00    -0.268 OA
HETATM   13  C   UNL     1      28.934  52.691  38.974  1.00  0.00     0.074 A 
HETATM   14  C   UNL     1      28.625  52.806  40.269  1.00  0.00     0.007 A 
HETATM   15  C   UNL     1      30.526  47.443  40.019  1.00  0.00     0.241 C 
ENDROOT
BRANCH   1  16
HETATM   16  C   UNL     1      28.254  46.633  40.579  1.00  0.00     0.273 C 
BRANCH  16  17
HETATM   17  C   UNL     1      26.778  46.905  40.682  1.00  0.00    -0.028 A 
HETATM   18  C   UNL     1      25.967  46.072  41.473  1.00  0.00     0.031 A 
HETATM   19  C   UNL     1      24.580  46.247  41.509  1.00  0.00     0.047 A 
HETATM   20  C   UNL     1      23.985  47.250  40.746  1.00  0.00     0.116 A 
HETATM   21 BR   UNL     1      23.554  45.056  42.566  1.00  0.00    -0.048 Br
HETATM   22  C   UNL     1      24.786  48.122  40.006  1.00  0.00     0.103 A 
HETATM   23  C   UNL     1      26.174  47.943  39.960  1.00  0.00     0.048 A 
BRANCH  20  24
HETATM   24  O   UNL     1      22.623  47.340  40.689  1.00  0.00    -0.357 OA
HETATM   25  H   UNL     1      22.264  46.774  41.396  1.00  0.00     0.218 HD
ENDBRANCH  20  24
BRANCH  22  26
HETATM   26  O   UNL     1      24.265  49.117  39.221  1.00  0.00    -0.353 OA
HETATM   27  C   UNL     1      25.247  49.724  38.376  1.00  0.00     0.210 C 
ENDBRANCH  22  26
ENDBRANCH  16  17
ENDBRANCH   1  16
TORSDOF 4
ENDMDL
MODEL 10
REMARK VINA RESULT:      -7.0     15.034     18.642
REMARK  4 active torsions:
REMARK  status: ('A' for Active; 'I' for Inactive)
REMARK    1  A    between atoms: O_2  and  C_3 
REMARK    2  A    between atoms: C_4  and  O_5 
REMARK    3  A    between atoms: C_9  and  C_10 
REMARK    4  A    between atoms: C_10  and  N_11 
ROOT
HETATM    1  N   UNL     1      40.118  40.185  63.906  1.00  0.00    -0.066 N 
HETATM    2  H   UNL     1      41.077  40.565  63.861  1.00  0.00     0.280 HD
HETATM    3  C   UNL     1      39.683  40.323  65.355  1.00  0.00     0.246 C 
HETATM    4  C   UNL     1      40.521  39.412  66.276  1.00  0.00     0.062 C 
HETATM    5  C   UNL     1      40.356  37.962  65.835  1.00  0.00     0.020 C 
HETATM    6  C   UNL     1      40.923  37.835  64.428  1.00  0.00     0.031 C 
HETATM    7  C   UNL     1      42.421  38.132  64.458  1.00  0.00     0.138 C 
HETATM    8  N   UNL     1      42.820  39.286  65.264  1.00  0.00    -0.317 N 
HETATM    9  C   UNL     1      41.984  39.821  66.250  1.00  0.00     0.020 A 
HETATM   10  C   UNL     1      42.479  40.698  67.141  1.00  0.00     0.026 A 
HETATM   11  C   UNL     1      44.179  39.634  65.168  1.00  0.00     0.247 A 
HETATM   12  O   UNL     1      44.938  39.179  64.318  1.00  0.00    -0.268 OA
HETATM   13  C   UNL     1      44.684  40.609  66.163  1.00  0.00     0.074 A 
HETATM   14  C   UNL     1      43.862  41.095  67.098  1.00  0.00     0.007 A 
HETATM   15  C   UNL     1      40.176  38.741  63.448  1.00  0.00     0.241 C 
ENDROOT
BRANCH   1  16
HETATM   16  C   UNL     1      39.288  40.993  62.926  1.00  0.00     0.273 C 
BRANCH  16  17
HETATM   17  C   UNL     1      39.224  42.478  63.156  1.00  0.00    -0.028 A 
HETATM   18  C   UNL     1      40.402  43.194  63.437  1.00  0.00     0.031 A 
HETATM   19  C   UNL     1      40.355  44.556  63.747  1.00  0.00     0.047 A 
HETATM   20  C   UNL     1      39.130  45.219  63.791  1.00  0.00     0.116 A 
HETATM   21 BR   UNL     1      41.982  45.438  64.155  1.00  0.00    -0.048 Br
HETATM   22  C   UNL     1      37.961  44.533  63.453  1.00  0.00     0.103 A 
HETATM   23  C   UNL     1      38.003  43.167  63.152  1.00  0.00     0.048 A 
BRANCH  20  24
HETATM   24  O   UNL     1      39.077  46.517  64.212  1.00  0.00    -0.357 OA
HETATM   25  H   UNL     1      39.336  46.530  65.151  1.00  0.00     0.218 HD
ENDBRANCH  20  24
BRANCH  22  26
HETATM   26  O   UNL     1      36.724  45.119  63.494  1.00  0.00    -0.353 OA
HETATM   27  C   UNL     1      36.053  44.905  64.740  1.00  0.00     0.210 C 
ENDBRANCH  22  26
ENDBRANCH  16  17
ENDBRANCH   1  16
TORSDOF 4
ENDMDL
