MODEL 1
REMARK VINA RESULT:      -7.6      0.000      0.000
REMARK  13 active torsions:
REMARK  status: ('A' for Active; 'I' for Inactive)
REMARK    1  A    between atoms: C_2  and  N_3 
REMARK    2  A    between atoms: N_3  and  C_5 
REMARK    3  A    between atoms: N_3  and  C_34 
REMARK    4  A    between atoms: C_5  and  C_6 
REMARK    5  A    between atoms: C_6  and  O_7 
REMARK    6  A    between atoms: O_7  and  C_8 
REMARK    7  A    between atoms: N_15  and  N_16 
REMARK    8  A    between atoms: C_20  and  O_21 
REMARK    9  A    between atoms: O_21  and  C_22 
REMARK   10  A    between atoms: C_22  and  C_23 
REMARK   11  A    between atoms: C_23  and  N_24 
REMARK   12  A    between atoms: N_24  and  C_26 
REMARK   13  A    between atoms: N_24  and  C_28 
ROOT
HETATM    1  C   UNL     1      27.363  43.312  52.659  1.00  0.00     0.091 A 
HETATM    2  C   UNL     1      26.921  42.512  51.579  1.00  0.00     0.068 A 
HETATM    3 CL   UNL     1      27.457  40.874  51.428  1.00  0.00    -0.081 Cl
HETATM    4  C   UNL     1      26.029  43.007  50.616  1.00  0.00     0.040 A 
HETATM    5  C   UNL     1      25.596  44.318  50.734  1.00  0.00    -0.011 A 
HETATM    6  C   UNL     1      26.069  45.125  51.790  1.00  0.00     0.009 A 
HETATM    7  C   UNL     1      25.445  46.466  51.628  1.00  0.00     0.093 A 
HETATM    8  N   UNL     1      25.545  47.571  52.297  1.00  0.00    -0.203 NA
HETATM    9  C   UNL     1      24.573  46.378  50.436  1.00  0.00     0.009 A 
HETATM   10  C   UNL     1      24.677  45.082  49.916  1.00  0.00    -0.011 A 
HETATM   11  C   UNL     1      23.769  47.366  49.885  1.00  0.00     0.053 A 
HETATM   12  C   UNL     1      23.033  47.037  48.747  1.00  0.00     0.091 A 
HETATM   13  C   UNL     1      23.110  45.722  48.221  1.00  0.00     0.068 A 
HETATM   14 CL   UNL     1      22.183  45.284  46.825  1.00  0.00    -0.081 Cl
HETATM   15  C   UNL     1      23.936  44.741  48.797  1.00  0.00     0.040 A 
HETATM   16  C   UNL     1      26.944  44.643  52.753  1.00  0.00     0.053 A 
ENDROOT
BRANCH   1  17
HETATM   17  O   UNL     1      28.228  42.730  53.554  1.00  0.00    -0.348 OA
BRANCH  17  18
HETATM   18  C   UNL     1      29.547  43.286  53.609  1.00  0.00     0.203 C 
BRANCH  18  19
HETATM   19  C   UNL     1      30.047  43.168  55.054  1.00  0.00     0.261 C 
BRANCH  19  20
HETATM   20  N   UNL     1      30.332  44.536  55.671  1.00  0.00    -0.070 N 
HETATM   21  H   UNL     1      31.055  44.948  55.058  1.00  0.00     0.279 HD
BRANCH  20  22
HETATM   22  C   UNL     1      30.942  44.444  57.059  1.00  0.00     0.230 C 
HETATM   23  C   UNL     1      31.879  43.254  57.163  1.00  0.00     0.034 C 
ENDBRANCH  20  22
BRANCH  20  24
HETATM   24  C   UNL     1      29.182  45.524  55.616  1.00  0.00     0.230 C 
HETATM   25  C   UNL     1      28.822  46.076  56.983  1.00  0.00     0.034 C 
ENDBRANCH  20  24
ENDBRANCH  19  20
ENDBRANCH  18  19
ENDBRANCH  17  18
ENDBRANCH   1  17
BRANCH   8  26
HETATM   26  N   UNL     1      26.380  47.581  53.354  1.00  0.00    -0.226 NA
HETATM   27  H   UNL     1      27.184  46.981  53.135  1.00  0.00     0.145 HD
HETATM   28  H   UNL     1      25.939  47.062  54.122  1.00  0.00     0.145 HD
ENDBRANCH   8  26
BRANCH  12  29
HETATM   29  O   UNL     1      22.192  47.917  48.106  1.00  0.00    -0.348 OA
BRANCH  29  30
HETATM   30  C   UNL     1      21.529  48.880  48.931  1.00  0.00     0.203 C 
BRANCH  30  31
HETATM   31  C   UNL     1      20.409  49.520  48.100  1.00  0.00     0.261 C 
BRANCH  31  32
HETATM   32  N   UNL     1      19.074  49.543  48.848  1.00  0.00    -0.070 N 
HETATM   33  H   UNL     1      18.369  49.476  48.095  1.00  0.00     0.279 HD
BRANCH  32  34
HETATM   34  C   UNL     1      18.817  48.344  49.738  1.00  0.00     0.230 C 
HETATM   35  C   UNL     1      18.611  48.721  51.193  1.00  0.00     0.034 C 
ENDBRANCH  32  34
BRANCH  32  36
HETATM   36  C   UNL     1      18.858  50.897  49.503  1.00  0.00     0.230 C 
HETATM   37  C   UNL     1      19.455  52.025  48.684  1.00  0.00     0.034 C 
ENDBRANCH  32  36
ENDBRANCH  31  32
ENDBRANCH  30  31
ENDBRANCH  29  30
ENDBRANCH  12  29
TORSDOF 13
ENDMDL
MODEL 2
REMARK VINA RESULT:      -7.6      1.333      2.127
REMARK  13 active torsions:
REMARK  status: ('A' for Active; 'I' for Inactive)
REMARK    1  A    between atoms: C_2  and  N_3 
REMARK    2  A    between atoms: N_3  and  C_5 
REMARK    3  A    between atoms: N_3  and  C_34 
REMARK    4  A    between atoms: C_5  and  C_6 
REMARK    5  A    between atoms: C_6  and  O_7 
REMARK    6  A    between atoms: O_7  and  C_8 
REMARK    7  A    between atoms: N_15  and  N_16 
REMARK    8  A    between atoms: C_20  and  O_21 
REMARK    9  A    between atoms: O_21  and  C_22 
REMARK   10  A    between atoms: C_22  and  C_23 
REMARK   11  A    between atoms: C_23  and  N_24 
REMARK   12  A    between atoms: N_24  and  C_26 
REMARK   13  A    between atoms: N_24  and  C_28 
ROOT
HETATM    1  C   UNL     1      26.424  43.037  51.815  1.00  0.00     0.091 A 
HETATM    2  C   UNL     1      25.845  42.251  50.792  1.00  0.00     0.068 A 
HETATM    3 CL   UNL     1      26.183  40.557  50.695  1.00  0.00    -0.081 Cl
HETATM    4  C   UNL     1      24.973  42.806  49.844  1.00  0.00     0.040 A 
HETATM    5  C   UNL     1      24.699  44.162  49.918  1.00  0.00    -0.011 A 
HETATM    6  C   UNL     1      25.308  44.952  50.916  1.00  0.00     0.009 A 
HETATM    7  C   UNL     1      24.836  46.349  50.717  1.00  0.00     0.093 A 
HETATM    8  N   UNL     1      25.091  47.461  51.330  1.00  0.00    -0.203 NA
HETATM    9  C   UNL     1      23.906  46.313  49.566  1.00  0.00     0.009 A 
HETATM   10  C   UNL     1      23.837  44.993  49.103  1.00  0.00    -0.011 A 
HETATM   11  C   UNL     1      23.197  47.364  49.003  1.00  0.00     0.053 A 
HETATM   12  C   UNL     1      22.377  47.077  47.911  1.00  0.00     0.091 A 
HETATM   13  C   UNL     1      22.279  45.741  47.444  1.00  0.00     0.068 A 
HETATM   14 CL   UNL     1      21.247  45.357  46.108  1.00  0.00    -0.081 Cl
HETATM   15  C   UNL     1      23.013  44.695  48.032  1.00  0.00     0.040 A 
HETATM   16  C   UNL     1      26.165  44.411  51.864  1.00  0.00     0.053 A 
ENDROOT
BRANCH   1  17
HETATM   17  O   UNL     1      27.256  42.396  52.701  1.00  0.00    -0.348 OA
BRANCH  17  18
HETATM   18  C   UNL     1      28.613  42.222  52.278  1.00  0.00     0.203 C 
BRANCH  18  19
HETATM   19  C   UNL     1      29.430  43.401  52.823  1.00  0.00     0.261 C 
BRANCH  19  20
HETATM   20  N   UNL     1      29.260  43.563  54.333  1.00  0.00    -0.070 N 
HETATM   21  H   UNL     1      28.458  42.955  54.566  1.00  0.00     0.279 HD
BRANCH  20  22
HETATM   22  C   UNL     1      28.869  44.973  54.737  1.00  0.00     0.230 C 
HETATM   23  C   UNL     1      27.400  45.043  55.117  1.00  0.00     0.034 C 
ENDBRANCH  20  22
BRANCH  20  24
HETATM   24  C   UNL     1      30.401  43.022  55.175  1.00  0.00     0.230 C 
HETATM   25  C   UNL     1      30.984  44.067  56.106  1.00  0.00     0.034 C 
ENDBRANCH  20  24
ENDBRANCH  19  20
ENDBRANCH  18  19
ENDBRANCH  17  18
ENDBRANCH   1  17
BRANCH   8  26
HETATM   26  N   UNL     1      25.969  47.417  52.351  1.00  0.00    -0.226 NA
HETATM   27  H   UNL     1      26.677  46.705  52.136  1.00  0.00     0.145 HD
HETATM   28  H   UNL     1      25.500  47.003  53.165  1.00  0.00     0.145 HD
ENDBRANCH   8  26
BRANCH  12  29
HETATM   29  O   UNL     1      21.615  48.022  47.264  1.00  0.00    -0.348 OA
BRANCH  29  30
HETATM   30  C   UNL     1      20.382  48.384  47.894  1.00  0.00     0.203 C 
BRANCH  30  31
HETATM   31  C   UNL     1      20.327  49.915  47.973  1.00  0.00     0.261 C 
BRANCH  31  32
HETATM   32  N   UNL     1      20.586  50.431  49.391  1.00  0.00    -0.070 N 
HETATM   33  H   UNL     1      20.290  49.646  49.996  1.00  0.00     0.279 HD
BRANCH  32  34
HETATM   34  C   UNL     1      22.044  50.664  49.732  1.00  0.00     0.230 C 
HETATM   35  C   UNL     1      22.864  51.118  48.540  1.00  0.00     0.034 C 
ENDBRANCH  32  34
BRANCH  32  36
HETATM   36  C   UNL     1      19.650  51.583  49.714  1.00  0.00     0.230 C 
HETATM   37  C   UNL     1      19.206  52.321  48.465  1.00  0.00     0.034 C 
ENDBRANCH  32  36
ENDBRANCH  31  32
ENDBRANCH  30  31
ENDBRANCH  29  30
ENDBRANCH  12  29
TORSDOF 13
ENDMDL
MODEL 3
REMARK VINA RESULT:      -7.5      1.184      2.072
REMARK  13 active torsions:
REMARK  status: ('A' for Active; 'I' for Inactive)
REMARK    1  A    between atoms: C_2  and  N_3 
REMARK    2  A    between atoms: N_3  and  C_5 
REMARK    3  A    between atoms: N_3  and  C_34 
REMARK    4  A    between atoms: C_5  and  C_6 
REMARK    5  A    between atoms: C_6  and  O_7 
REMARK    6  A    between atoms: O_7  and  C_8 
REMARK    7  A    between atoms: N_15  and  N_16 
REMARK    8  A    between atoms: C_20  and  O_21 
REMARK    9  A    between atoms: O_21  and  C_22 
REMARK   10  A    between atoms: C_22  and  C_23 
REMARK   11  A    between atoms: C_23  and  N_24 
REMARK   12  A    between atoms: N_24  and  C_26 
REMARK   13  A    between atoms: N_24  and  C_28 
ROOT
HETATM    1  C   UNL     1      26.765  43.103  52.040  1.00  0.00     0.091 A 
HETATM    2  C   UNL     1      26.238  42.324  50.984  1.00  0.00     0.068 A 
HETATM    3 CL   UNL     1      26.668  40.656  50.830  1.00  0.00    -0.081 Cl
HETATM    4  C   UNL     1      25.345  42.866  50.047  1.00  0.00     0.040 A 
HETATM    5  C   UNL     1      24.997  44.202  50.168  1.00  0.00    -0.011 A 
HETATM    6  C   UNL     1      25.554  44.986  51.199  1.00  0.00     0.009 A 
HETATM    7  C   UNL     1      25.008  46.362  51.046  1.00  0.00     0.093 A 
HETATM    8  N   UNL     1      25.198  47.463  51.701  1.00  0.00    -0.203 NA
HETATM    9  C   UNL     1      24.091  46.318  49.885  1.00  0.00     0.009 A 
HETATM   10  C   UNL     1      24.098  45.014  49.374  1.00  0.00    -0.011 A 
HETATM   11  C   UNL     1      23.331  47.349  49.353  1.00  0.00     0.053 A 
HETATM   12  C   UNL     1      22.537  47.058  48.243  1.00  0.00     0.091 A 
HETATM   13  C   UNL     1      22.516  45.737  47.728  1.00  0.00     0.068 A 
HETATM   14 CL   UNL     1      21.517  45.346  46.368  1.00  0.00    -0.081 Cl
HETATM   15  C   UNL     1      23.300  44.711  48.284  1.00  0.00     0.040 A 
HETATM   16  C   UNL     1      26.431  44.459  52.137  1.00  0.00     0.053 A 
ENDROOT
BRANCH   1  17
HETATM   17  O   UNL     1      27.623  42.476  52.912  1.00  0.00    -0.348 OA
BRANCH  17  18
HETATM   18  C   UNL     1      27.652  42.991  54.248  1.00  0.00     0.203 C 
BRANCH  18  19
HETATM   19  C   UNL     1      29.094  43.413  54.557  1.00  0.00     0.261 C 
BRANCH  19  20
HETATM   20  N   UNL     1      29.146  44.631  55.478  1.00  0.00    -0.070 N 
HETATM   21  H   UNL     1      28.468  44.414  56.227  1.00  0.00     0.279 HD
BRANCH  20  22
HETATM   22  C   UNL     1      28.659  45.903  54.806  1.00  0.00     0.230 C 
HETATM   23  C   UNL     1      28.014  46.838  55.813  1.00  0.00     0.034 C 
ENDBRANCH  20  22
BRANCH  20  24
HETATM   24  C   UNL     1      30.461  44.837  56.207  1.00  0.00     0.230 C 
HETATM   25  C   UNL     1      31.244  43.547  56.370  1.00  0.00     0.034 C 
ENDBRANCH  20  24
ENDBRANCH  19  20
ENDBRANCH  18  19
ENDBRANCH  17  18
ENDBRANCH   1  17
BRANCH   8  26
HETATM   26  N   UNL     1      26.068  47.429  52.729  1.00  0.00    -0.226 NA
HETATM   27  H   UNL     1      26.996  47.689  52.374  1.00  0.00     0.145 HD
HETATM   28  H   UNL     1      26.216  46.450  52.997  1.00  0.00     0.145 HD
ENDBRANCH   8  26
BRANCH  12  29
HETATM   29  O   UNL     1      21.730  47.983  47.623  1.00  0.00    -0.348 OA
BRANCH  29  30
HETATM   30  C   UNL     1      20.433  48.182  48.196  1.00  0.00     0.203 C 
BRANCH  30  31
HETATM   31  C   UNL     1      20.538  49.331  49.206  1.00  0.00     0.261 C 
BRANCH  31  32
HETATM   32  N   UNL     1      21.042  50.625  48.561  1.00  0.00    -0.070 N 
HETATM   33  H   UNL     1      21.178  50.368  47.569  1.00  0.00     0.279 HD
BRANCH  32  34
HETATM   34  C   UNL     1      20.041  51.762  48.540  1.00  0.00     0.230 C 
HETATM   35  C   UNL     1      19.072  51.719  49.707  1.00  0.00     0.034 C 
ENDBRANCH  32  34
BRANCH  32  36
HETATM   36  C   UNL     1      22.418  50.981  49.095  1.00  0.00     0.230 C 
HETATM   37  C   UNL     1      23.486  50.887  48.021  1.00  0.00     0.034 C 
ENDBRANCH  32  36
ENDBRANCH  31  32
ENDBRANCH  30  31
ENDBRANCH  29  30
ENDBRANCH  12  29
TORSDOF 13
ENDMDL
MODEL 4
REMARK VINA RESULT:      -7.4      2.367      3.000
REMARK  13 active torsions:
REMARK  status: ('A' for Active; 'I' for Inactive)
REMARK    1  A    between atoms: C_2  and  N_3 
REMARK    2  A    between atoms: N_3  and  C_5 
REMARK    3  A    between atoms: N_3  and  C_34 
REMARK    4  A    between atoms: C_5  and  C_6 
REMARK    5  A    between atoms: C_6  and  O_7 
REMARK    6  A    between atoms: O_7  and  C_8 
REMARK    7  A    between atoms: N_15  and  N_16 
REMARK    8  A    between atoms: C_20  and  O_21 
REMARK    9  A    between atoms: O_21  and  C_22 
REMARK   10  A    between atoms: C_22  and  C_23 
REMARK   11  A    between atoms: C_23  and  N_24 
REMARK   12  A    between atoms: N_24  and  C_26 
REMARK   13  A    between atoms: N_24  and  C_28 
ROOT
HETATM    1  C   UNL     1      26.656  45.314  53.495  1.00  0.00     0.091 A 
HETATM    2  C   UNL     1      26.834  46.706  53.317  1.00  0.00     0.068 A 
HETATM    3 CL   UNL     1      27.922  47.585  54.336  1.00  0.00    -0.081 Cl
HETATM    4  C   UNL     1      26.158  47.410  52.309  1.00  0.00     0.040 A 
HETATM    5  C   UNL     1      25.287  46.709  51.491  1.00  0.00    -0.011 A 
HETATM    6  C   UNL     1      25.082  45.329  51.695  1.00  0.00     0.009 A 
HETATM    7  C   UNL     1      24.087  44.880  50.684  1.00  0.00     0.093 A 
HETATM    8  N   UNL     1      23.535  43.734  50.438  1.00  0.00    -0.203 NA
HETATM    9  C   UNL     1      23.750  46.073  49.875  1.00  0.00     0.009 A 
HETATM   10  C   UNL     1      24.481  47.158  50.374  1.00  0.00    -0.011 A 
HETATM   11  C   UNL     1      22.877  46.162  48.800  1.00  0.00     0.053 A 
HETATM   12  C   UNL     1      22.724  47.410  48.196  1.00  0.00     0.091 A 
HETATM   13  C   UNL     1      23.475  48.514  48.675  1.00  0.00     0.068 A 
HETATM   14 CL   UNL     1      23.323  50.066  47.922  1.00  0.00    -0.081 Cl
HETATM   15  C   UNL     1      24.350  48.397  49.769  1.00  0.00     0.040 A 
HETATM   16  C   UNL     1      25.752  44.621  52.683  1.00  0.00     0.053 A 
ENDROOT
BRANCH   1  17
HETATM   17  O   UNL     1      27.372  44.716  54.504  1.00  0.00    -0.348 OA
BRANCH  17  18
HETATM   18  C   UNL     1      28.653  44.188  54.140  1.00  0.00     0.203 C 
BRANCH  18  19
HETATM   19  C   UNL     1      29.340  43.696  55.420  1.00  0.00     0.261 C 
BRANCH  19  20
HETATM   20  N   UNL     1      30.192  44.788  56.064  1.00  0.00    -0.070 N 
HETATM   21  H   UNL     1      30.365  45.462  55.300  1.00  0.00     0.279 HD
BRANCH  20  22
HETATM   22  C   UNL     1      31.552  44.287  56.518  1.00  0.00     0.230 C 
HETATM   23  C   UNL     1      31.446  42.898  57.120  1.00  0.00     0.034 C 
ENDBRANCH  20  22
BRANCH  20  24
HETATM   24  C   UNL     1      29.495  45.605  57.137  1.00  0.00     0.230 C 
HETATM   25  C   UNL     1      30.471  46.258  58.097  1.00  0.00     0.034 C 
ENDBRANCH  20  24
ENDBRANCH  19  20
ENDBRANCH  18  19
ENDBRANCH  17  18
ENDBRANCH   1  17
BRANCH   8  26
HETATM   26  N   UNL     1      23.872  42.702  51.236  1.00  0.00    -0.226 NA
HETATM   27  H   UNL     1      23.324  41.882  50.951  1.00  0.00     0.145 HD
HETATM   28  H   UNL     1      23.500  42.883  52.176  1.00  0.00     0.145 HD
ENDBRANCH   8  26
BRANCH  12  29
HETATM   29  O   UNL     1      21.899  47.637  47.118  1.00  0.00    -0.348 OA
BRANCH  29  30
HETATM   30  C   UNL     1      20.494  47.513  47.356  1.00  0.00     0.203 C 
BRANCH  30  31
HETATM   31  C   UNL     1      19.947  48.909  47.679  1.00  0.00     0.261 C 
BRANCH  31  32
HETATM   32  N   UNL     1      19.799  49.140  49.184  1.00  0.00    -0.070 N 
HETATM   33  H   UNL     1      20.479  48.482  49.601  1.00  0.00     0.279 HD
BRANCH  32  34
HETATM   34  C   UNL     1      20.228  50.511  49.668  1.00  0.00     0.230 C 
HETATM   35  C   UNL     1      20.108  51.579  48.598  1.00  0.00     0.034 C 
ENDBRANCH  32  34
BRANCH  32  36
HETATM   36  C   UNL     1      18.430  48.682  49.658  1.00  0.00     0.230 C 
HETATM   37  C   UNL     1      17.342  49.013  48.654  1.00  0.00     0.034 C 
ENDBRANCH  32  36
ENDBRANCH  31  32
ENDBRANCH  30  31
ENDBRANCH  29  30
ENDBRANCH  12  29
TORSDOF 13
ENDMDL
MODEL 5
REMARK VINA RESULT:      -7.1      1.533      9.786
REMARK  13 active torsions:
REMARK  status: ('A' for Active; 'I' for Inactive)
REMARK    1  A    between atoms: C_2  and  N_3 
REMARK    2  A    between atoms: N_3  and  C_5 
REMARK    3  A    between atoms: N_3  and  C_34 
REMARK    4  A    between atoms: C_5  and  C_6 
REMARK    5  A    between atoms: C_6  and  O_7 
REMARK    6  A    between atoms: O_7  and  C_8 
REMARK    7  A    between atoms: N_15  and  N_16 
REMARK    8  A    between atoms: C_20  and  O_21 
REMARK    9  A    between atoms: O_21  and  C_22 
REMARK   10  A    between atoms: C_22  and  C_23 
REMARK   11  A    between atoms: C_23  and  N_24 
REMARK   12  A    between atoms: N_24  and  C_26 
REMARK   13  A    between atoms: N_24  and  C_28 
ROOT
HETATM    1  C   UNL     1      21.316  46.411  47.343  1.00  0.00     0.091 A 
HETATM    2  C   UNL     1      21.381  45.000  47.264  1.00  0.00     0.068 A 
HETATM    3 CL   UNL     1      20.287  44.131  46.245  1.00  0.00    -0.081 Cl
HETATM    4  C   UNL     1      22.336  44.267  47.985  1.00  0.00     0.040 A 
HETATM    5  C   UNL     1      23.215  44.960  48.802  1.00  0.00    -0.011 A 
HETATM    6  C   UNL     1      23.124  46.364  48.908  1.00  0.00     0.009 A 
HETATM    7  C   UNL     1      24.176  46.800  49.866  1.00  0.00     0.093 A 
HETATM    8  N   UNL     1      24.516  47.959  50.334  1.00  0.00    -0.203 NA
HETATM    9  C   UNL     1      24.890  45.573  50.284  1.00  0.00     0.009 A 
HETATM   10  C   UNL     1      24.300  44.482  49.634  1.00  0.00    -0.011 A 
HETATM   11  C   UNL     1      25.962  45.460  51.158  1.00  0.00     0.053 A 
HETATM   12  C   UNL     1      26.467  44.182  51.397  1.00  0.00     0.091 A 
HETATM   13  C   UNL     1      25.894  43.069  50.729  1.00  0.00     0.068 A 
HETATM   14 CL   UNL     1      26.523  41.477  50.989  1.00  0.00    -0.081 Cl
HETATM   15  C   UNL     1      24.806  43.212  49.851  1.00  0.00     0.040 A 
HETATM   16  C   UNL     1      22.189  47.099  48.193  1.00  0.00     0.053 A 
ENDROOT
BRANCH   1  17
HETATM   17  O   UNL     1      20.352  47.036  46.589  1.00  0.00    -0.348 OA
BRANCH  17  18
HETATM   18  C   UNL     1      19.324  47.715  47.318  1.00  0.00     0.203 C 
BRANCH  18  19
HETATM   19  C   UNL     1      19.515  49.222  47.106  1.00  0.00     0.261 C 
BRANCH  19  20
HETATM   20  N   UNL     1      19.667  49.969  48.430  1.00  0.00    -0.070 N 
HETATM   21  H   UNL     1      20.459  49.499  48.899  1.00  0.00     0.279 HD
BRANCH  20  22
HETATM   22  C   UNL     1      18.463  49.808  49.342  1.00  0.00     0.230 C 
HETATM   23  C   UNL     1      18.872  49.231  50.686  1.00  0.00     0.034 C 
ENDBRANCH  20  22
BRANCH  20  24
HETATM   24  C   UNL     1      20.105  51.417  48.310  1.00  0.00     0.230 C 
HETATM   25  C   UNL     1      18.984  52.392  48.620  1.00  0.00     0.034 C 
ENDBRANCH  20  24
ENDBRANCH  19  20
ENDBRANCH  18  19
ENDBRANCH  17  18
ENDBRANCH   1  17
BRANCH   8  26
HETATM   26  N   UNL     1      23.801  49.024  49.926  1.00  0.00    -0.226 NA
HETATM   27  H   UNL     1      23.062  48.694  49.294  1.00  0.00     0.145 HD
HETATM   28  H   UNL     1      24.382  49.583  49.291  1.00  0.00     0.145 HD
ENDBRANCH   8  26
BRANCH  12  29
HETATM   29  O   UNL     1      27.530  43.928  52.233  1.00  0.00    -0.348 OA
BRANCH  29  30
HETATM   30  C   UNL     1      27.245  43.903  53.635  1.00  0.00     0.203 C 
BRANCH  30  31
HETATM   31  C   UNL     1      28.573  43.717  54.381  1.00  0.00     0.261 C 
BRANCH  31  32
HETATM   32  N   UNL     1      29.076  45.022  55.001  1.00  0.00    -0.070 N 
HETATM   33  H   UNL     1      29.468  45.541  54.197  1.00  0.00     0.279 HD
BRANCH  32  34
HETATM   34  C   UNL     1      27.995  45.923  55.563  1.00  0.00     0.230 C 
HETATM   35  C   UNL     1      27.980  47.298  54.922  1.00  0.00     0.034 C 
ENDBRANCH  32  34
BRANCH  32  36
HETATM   36  C   UNL     1      30.244  44.749  55.932  1.00  0.00     0.230 C 
HETATM   37  C   UNL     1      30.815  43.358  55.735  1.00  0.00     0.034 C 
ENDBRANCH  32  36
ENDBRANCH  31  32
ENDBRANCH  30  31
ENDBRANCH  29  30
ENDBRANCH  12  29
TORSDOF 13
ENDMDL
MODEL 6
REMARK VINA RESULT:      -6.9      3.702      5.161
REMARK  13 active torsions:
REMARK  status: ('A' for Active; 'I' for Inactive)
REMARK    1  A    between atoms: C_2  and  N_3 
REMARK    2  A    between atoms: N_3  and  C_5 
REMARK    3  A    between atoms: N_3  and  C_34 
REMARK    4  A    between atoms: C_5  and  C_6 
REMARK    5  A    between atoms: C_6  and  O_7 
REMARK    6  A    between atoms: O_7  and  C_8 
REMARK    7  A    between atoms: N_15  and  N_16 
REMARK    8  A    between atoms: C_20  and  O_21 
REMARK    9  A    between atoms: O_21  and  C_22 
REMARK   10  A    between atoms: C_22  and  C_23 
REMARK   11  A    between atoms: C_23  and  N_24 
REMARK   12  A    between atoms: N_24  and  C_26 
REMARK   13  A    between atoms: N_24  and  C_28 
ROOT
HETATM    1  C   UNL     1      26.213  42.592  51.048  1.00  0.00     0.091 A 
HETATM    2  C   UNL     1      26.877  43.800  51.363  1.00  0.00     0.068 A 
HETATM    3 CL   UNL     1      28.351  43.777  52.267  1.00  0.00    -0.081 Cl
HETATM    4  C   UNL     1      26.379  45.043  50.943  1.00  0.00     0.040 A 
HETATM    5  C   UNL     1      25.198  45.065  50.218  1.00  0.00    -0.011 A 
HETATM    6  C   UNL     1      24.518  43.862  49.938  1.00  0.00     0.009 A 
HETATM    7  C   UNL     1      23.292  44.220  49.175  1.00  0.00     0.093 A 
HETATM    8  N   UNL     1      22.318  43.516  48.690  1.00  0.00    -0.203 NA
HETATM    9  C   UNL     1      23.318  45.692  49.014  1.00  0.00     0.009 A 
HETATM   10  C   UNL     1      24.469  46.178  49.645  1.00  0.00    -0.011 A 
HETATM   11  C   UNL     1      22.397  46.499  48.362  1.00  0.00     0.053 A 
HETATM   12  C   UNL     1      22.642  47.873  48.347  1.00  0.00     0.091 A 
HETATM   13  C   UNL     1      23.816  48.379  48.962  1.00  0.00     0.068 A 
HETATM   14 CL   UNL     1      24.154  50.077  48.931  1.00  0.00    -0.081 Cl
HETATM   15  C   UNL     1      24.730  47.537  49.620  1.00  0.00     0.040 A 
HETATM   16  C   UNL     1      25.006  42.627  50.340  1.00  0.00     0.053 A 
ENDROOT
BRANCH   1  17
HETATM   17  O   UNL     1      26.788  41.427  51.496  1.00  0.00    -0.348 OA
BRANCH  17  18
HETATM   18  C   UNL     1      26.950  40.389  50.523  1.00  0.00     0.203 C 
BRANCH  18  19
HETATM   19  C   UNL     1      28.427  39.976  50.517  1.00  0.00     0.261 C 
BRANCH  19  20
HETATM   20  N   UNL     1      28.727  38.946  49.429  1.00  0.00    -0.070 N 
HETATM   21  H   UNL     1      28.988  39.512  48.606  1.00  0.00     0.279 HD
BRANCH  20  22
HETATM   22  C   UNL     1      27.507  38.134  49.030  1.00  0.00     0.230 C 
HETATM   23  C   UNL     1      27.725  37.446  47.694  1.00  0.00     0.034 C 
ENDBRANCH  20  22
BRANCH  20  24
HETATM   24  C   UNL     1      29.939  38.069  49.684  1.00  0.00     0.230 C 
HETATM   25  C   UNL     1      29.910  37.418  51.054  1.00  0.00     0.034 C 
ENDBRANCH  20  24
ENDBRANCH  19  20
ENDBRANCH  18  19
ENDBRANCH  17  18
ENDBRANCH   1  17
BRANCH   8  26
HETATM   26  N   UNL     1      22.352  42.187  48.902  1.00  0.00    -0.226 NA
HETATM   27  H   UNL     1      21.766  41.975  49.718  1.00  0.00     0.145 HD
HETATM   28  H   UNL     1      23.286  41.936  49.247  1.00  0.00     0.145 HD
ENDBRANCH   8  26
BRANCH  12  29
HETATM   29  O   UNL     1      21.817  48.785  47.730  1.00  0.00    -0.348 OA
BRANCH  29  30
HETATM   30  C   UNL     1      20.499  48.334  47.406  1.00  0.00     0.203 C 
BRANCH  30  31
HETATM   31  C   UNL     1      19.523  49.477  47.712  1.00  0.00     0.261 C 
BRANCH  31  32
HETATM   32  N   UNL     1      19.576  49.906  49.181  1.00  0.00    -0.070 N 
HETATM   33  H   UNL     1      20.352  49.346  49.572  1.00  0.00     0.279 HD
BRANCH  32  34
HETATM   34  C   UNL     1      19.976  51.349  49.412  1.00  0.00     0.230 C 
HETATM   35  C   UNL     1      19.249  52.317  48.497  1.00  0.00     0.034 C 
ENDBRANCH  32  34
BRANCH  32  36
HETATM   36  C   UNL     1      18.323  49.454  49.910  1.00  0.00     0.230 C 
HETATM   37  C   UNL     1      18.649  48.724  51.199  1.00  0.00     0.034 C 
ENDBRANCH  32  36
ENDBRANCH  31  32
ENDBRANCH  30  31
ENDBRANCH  29  30
ENDBRANCH  12  29
TORSDOF 13
ENDMDL
MODEL 7
REMARK VINA RESULT:      -6.9      2.049     10.154
REMARK  13 active torsions:
REMARK  status: ('A' for Active; 'I' for Inactive)
REMARK    1  A    between atoms: C_2  and  N_3 
REMARK    2  A    between atoms: N_3  and  C_5 
REMARK    3  A    between atoms: N_3  and  C_34 
REMARK    4  A    between atoms: C_5  and  C_6 
REMARK    5  A    between atoms: C_6  and  O_7 
REMARK    6  A    between atoms: O_7  and  C_8 
REMARK    7  A    between atoms: N_15  and  N_16 
REMARK    8  A    between atoms: C_20  and  O_21 
REMARK    9  A    between atoms: O_21  and  C_22 
REMARK   10  A    between atoms: C_22  and  C_23 
REMARK   11  A    between atoms: C_23  and  N_24 
REMARK   12  A    between atoms: N_24  and  C_26 
REMARK   13  A    between atoms: N_24  and  C_28 
ROOT
HETATM    1  C   UNL     1      20.276  48.089  47.077  1.00  0.00     0.091 A 
HETATM    2  C   UNL     1      20.174  46.678  47.082  1.00  0.00     0.068 A 
HETATM    3 CL   UNL     1      18.900  45.891  46.216  1.00  0.00    -0.081 Cl
HETATM    4  C   UNL     1      21.102  45.877  47.764  1.00  0.00     0.040 A 
HETATM    5  C   UNL     1      22.125  46.504  48.458  1.00  0.00    -0.011 A 
HETATM    6  C   UNL     1      22.202  47.912  48.484  1.00  0.00     0.009 A 
HETATM    7  C   UNL     1      23.380  48.271  49.319  1.00  0.00     0.093 A 
HETATM    8  N   UNL     1      23.890  49.405  49.683  1.00  0.00    -0.203 NA
HETATM    9  C   UNL     1      23.986  46.992  49.753  1.00  0.00     0.009 A 
HETATM   10  C   UNL     1      23.220  45.946  49.225  1.00  0.00    -0.011 A 
HETATM   11  C   UNL     1      25.114  46.800  50.538  1.00  0.00     0.053 A 
HETATM   12  C   UNL     1      25.491  45.486  50.814  1.00  0.00     0.091 A 
HETATM   13  C   UNL     1      24.738  44.415  50.268  1.00  0.00     0.068 A 
HETATM   14 CL   UNL     1      25.204  42.775  50.574  1.00  0.00    -0.081 Cl
HETATM   15  C   UNL     1      23.597  44.638  49.478  1.00  0.00     0.040 A 
HETATM   16  C   UNL     1      21.295  48.714  47.805  1.00  0.00     0.053 A 
ENDROOT
BRANCH   1  17
HETATM   17  O   UNL     1      19.324  48.782  46.369  1.00  0.00    -0.348 OA
BRANCH  17  18
HETATM   18  C   UNL     1      18.874  50.010  46.953  1.00  0.00     0.203 C 
BRANCH  18  19
HETATM   19  C   UNL     1      17.699  49.685  47.883  1.00  0.00     0.261 C 
BRANCH  19  20
HETATM   20  N   UNL     1      17.777  50.464  49.195  1.00  0.00    -0.070 N 
HETATM   21  H   UNL     1      16.846  50.337  49.623  1.00  0.00     0.279 HD
BRANCH  20  22
HETATM   22  C   UNL     1      17.961  51.957  48.987  1.00  0.00     0.230 C 
HETATM   23  C   UNL     1      16.972  52.748  49.825  1.00  0.00     0.034 C 
ENDBRANCH  20  22
BRANCH  20  24
HETATM   24  C   UNL     1      18.745  49.906  50.222  1.00  0.00     0.230 C 
HETATM   25  C   UNL     1      18.624  48.402  50.380  1.00  0.00     0.034 C 
ENDBRANCH  20  24
ENDBRANCH  19  20
ENDBRANCH  18  19
ENDBRANCH  17  18
ENDBRANCH   1  17
BRANCH   8  26
HETATM   26  N   UNL     1      23.265  50.525  49.271  1.00  0.00    -0.226 NA
HETATM   27  H   UNL     1      23.675  50.812  48.375  1.00  0.00     0.145 HD
HETATM   28  H   UNL     1      23.546  51.299  49.884  1.00  0.00     0.145 HD
ENDBRANCH   8  26
BRANCH  12  29
HETATM   29  O   UNL     1      26.590  45.153  51.571  1.00  0.00    -0.348 OA
BRANCH  29  30
HETATM   30  C   UNL     1      26.504  45.427  52.973  1.00  0.00     0.203 C 
BRANCH  30  31
HETATM   31  C   UNL     1      26.773  44.117  53.725  1.00  0.00     0.261 C 
BRANCH  31  32
HETATM   32  N   UNL     1      27.974  44.227  54.667  1.00  0.00    -0.070 N 
HETATM   33  H   UNL     1      27.837  43.446  55.331  1.00  0.00     0.279 HD
BRANCH  32  34
HETATM   34  C   UNL     1      29.320  43.966  54.023  1.00  0.00     0.230 C 
HETATM   35  C   UNL     1      30.059  42.799  54.650  1.00  0.00     0.034 C 
ENDBRANCH  32  34
BRANCH  32  36
HETATM   36  C   UNL     1      27.884  45.498  55.493  1.00  0.00     0.230 C 
HETATM   37  C   UNL     1      29.200  46.252  55.520  1.00  0.00     0.034 C 
ENDBRANCH  32  36
ENDBRANCH  31  32
ENDBRANCH  30  31
ENDBRANCH  29  30
ENDBRANCH  12  29
TORSDOF 13
ENDMDL
MODEL 8
REMARK VINA RESULT:      -6.9      2.396      3.671
REMARK  13 active torsions:
REMARK  status: ('A' for Active; 'I' for Inactive)
REMARK    1  A    between atoms: C_2  and  N_3 
REMARK    2  A    between atoms: N_3  and  C_5 
REMARK    3  A    between atoms: N_3  and  C_34 
REMARK    4  A    between atoms: C_5  and  C_6 
REMARK    5  A    between atoms: C_6  and  O_7 
REMARK    6  A    between atoms: O_7  and  C_8 
REMARK    7  A    between atoms: N_15  and  N_16 
REMARK    8  A    between atoms: C_20  and  O_21 
REMARK    9  A    between atoms: O_21  and  C_22 
REMARK   10  A    between atoms: C_22  and  C_23 
REMARK   11  A    between atoms: C_23  and  N_24 
REMARK   12  A    between atoms: N_24  and  C_26 
REMARK   13  A    between atoms: N_24  and  C_28 
ROOT
HETATM    1  C   UNL     1      25.545  44.220  49.502  1.00  0.00     0.091 A 
HETATM    2  C   UNL     1      24.547  43.275  49.166  1.00  0.00     0.068 A 
HETATM    3 CL   UNL     1      24.922  41.586  49.124  1.00  0.00    -0.081 Cl
HETATM    4  C   UNL     1      23.231  43.666  48.879  1.00  0.00     0.040 A 
HETATM    5  C   UNL     1      22.926  45.018  48.913  1.00  0.00    -0.011 A 
HETATM    6  C   UNL     1      23.932  45.961  49.210  1.00  0.00     0.009 A 
HETATM    7  C   UNL     1      23.301  47.307  49.146  1.00  0.00     0.093 A 
HETATM    8  N   UNL     1      23.763  48.506  49.312  1.00  0.00    -0.203 NA
HETATM    9  C   UNL     1      21.875  47.083  48.819  1.00  0.00     0.009 A 
HETATM   10  C   UNL     1      21.671  45.704  48.685  1.00  0.00    -0.011 A 
HETATM   11  C   UNL     1      20.871  48.028  48.663  1.00  0.00     0.053 A 
HETATM   12  C   UNL     1      19.593  47.565  48.350  1.00  0.00     0.091 A 
HETATM   13  C   UNL     1      19.365  46.169  48.234  1.00  0.00     0.068 A 
HETATM   14 CL   UNL     1      17.781  45.571  47.874  1.00  0.00    -0.081 Cl
HETATM   15  C   UNL     1      20.402  45.234  48.393  1.00  0.00     0.040 A 
HETATM   16  C   UNL     1      25.234  45.584  49.505  1.00  0.00     0.053 A 
ENDROOT
BRANCH   1  17
HETATM   17  O   UNL     1      26.800  43.733  49.777  1.00  0.00    -0.348 OA
BRANCH  17  18
HETATM   18  C   UNL     1      27.455  44.291  50.922  1.00  0.00     0.203 C 
BRANCH  18  19
HETATM   19  C   UNL     1      27.976  43.130  51.777  1.00  0.00     0.261 C 
BRANCH  19  20
HETATM   20  N   UNL     1      27.828  43.411  53.271  1.00  0.00    -0.070 N 
HETATM   21  H   UNL     1      27.112  42.737  53.588  1.00  0.00     0.279 HD
BRANCH  20  22
HETATM   22  C   UNL     1      27.279  44.797  53.562  1.00  0.00     0.230 C 
HETATM   23  C   UNL     1      28.065  45.472  54.671  1.00  0.00     0.034 C 
ENDBRANCH  20  22
BRANCH  20  24
HETATM   24  C   UNL     1      29.048  43.091  54.115  1.00  0.00     0.230 C 
HETATM   25  C   UNL     1      30.264  42.751  53.275  1.00  0.00     0.034 C 
ENDBRANCH  20  24
ENDBRANCH  19  20
ENDBRANCH  18  19
ENDBRANCH  17  18
ENDBRANCH   1  17
BRANCH   8  26
HETATM   26  N   UNL     1      25.077  48.630  49.580  1.00  0.00    -0.226 NA
HETATM   27  H   UNL     1      25.288  49.628  49.704  1.00  0.00     0.145 HD
HETATM   28  H   UNL     1      25.605  48.412  48.727  1.00  0.00     0.145 HD
ENDBRANCH   8  26
BRANCH  12  29
HETATM   29  O   UNL     1      18.507  48.391  48.177  1.00  0.00    -0.348 OA
BRANCH  29  30
HETATM   30  C   UNL     1      18.439  49.101  46.936  1.00  0.00     0.203 C 
BRANCH  30  31
HETATM   31  C   UNL     1      18.350  50.598  47.256  1.00  0.00     0.261 C 
BRANCH  31  32
HETATM   32  N   UNL     1      18.114  50.859  48.746  1.00  0.00    -0.070 N 
HETATM   33  H   UNL     1      18.090  49.912  49.160  1.00  0.00     0.279 HD
BRANCH  32  34
HETATM   34  C   UNL     1      19.245  51.572  49.459  1.00  0.00     0.230 C 
HETATM   35  C   UNL     1      20.495  51.694  48.608  1.00  0.00     0.034 C 
ENDBRANCH  32  34
BRANCH  32  36
HETATM   36  C   UNL     1      16.732  51.448  48.968  1.00  0.00     0.230 C 
HETATM   37  C   UNL     1      16.768  52.651  49.891  1.00  0.00     0.034 C 
ENDBRANCH  32  36
ENDBRANCH  31  32
ENDBRANCH  30  31
ENDBRANCH  29  30
ENDBRANCH  12  29
TORSDOF 13
ENDMDL
MODEL 9
REMARK VINA RESULT:      -6.9      1.489      2.408
REMARK  13 active torsions:
REMARK  status: ('A' for Active; 'I' for Inactive)
REMARK    1  A    between atoms: C_2  and  N_3 
REMARK    2  A    between atoms: N_3  and  C_5 
REMARK    3  A    between atoms: N_3  and  C_34 
REMARK    4  A    between atoms: C_5  and  C_6 
REMARK    5  A    between atoms: C_6  and  O_7 
REMARK    6  A    between atoms: O_7  and  C_8 
REMARK    7  A    between atoms: N_15  and  N_16 
REMARK    8  A    between atoms: C_20  and  O_21 
REMARK    9  A    between atoms: O_21  and  C_22 
REMARK   10  A    between atoms: C_22  and  C_23 
REMARK   11  A    between atoms: C_23  and  N_24 
REMARK   12  A    between atoms: N_24  and  C_26 
REMARK   13  A    between atoms: N_24  and  C_28 
ROOT
HETATM    1  C   UNL     1      26.482  43.249  50.608  1.00  0.00     0.091 A 
HETATM    2  C   UNL     1      25.820  42.581  49.551  1.00  0.00     0.068 A 
HETATM    3 CL   UNL     1      26.229  40.947  49.158  1.00  0.00    -0.081 Cl
HETATM    4  C   UNL     1      24.808  43.206  48.808  1.00  0.00     0.040 A 
HETATM    5  C   UNL     1      24.477  44.515  49.120  1.00  0.00    -0.011 A 
HETATM    6  C   UNL     1      25.165  45.191  50.149  1.00  0.00     0.009 A 
HETATM    7  C   UNL     1      24.601  46.566  50.223  1.00  0.00     0.093 A 
HETATM    8  N   UNL     1      24.874  47.592  50.965  1.00  0.00    -0.203 NA
HETATM    9  C   UNL     1      23.537  46.634  49.196  1.00  0.00     0.009 A 
HETATM   10  C   UNL     1      23.478  45.394  48.548  1.00  0.00    -0.011 A 
HETATM   11  C   UNL     1      22.710  47.704  48.887  1.00  0.00     0.053 A 
HETATM   12  C   UNL     1      21.775  47.523  47.867  1.00  0.00     0.091 A 
HETATM   13  C   UNL     1      21.688  46.265  47.217  1.00  0.00     0.068 A 
HETATM   14 CL   UNL     1      20.516  46.009  45.967  1.00  0.00    -0.081 Cl
HETATM   15  C   UNL     1      22.541  45.198  47.548  1.00  0.00     0.040 A 
HETATM   16  C   UNL     1      26.161  44.579  50.897  1.00  0.00     0.053 A 
ENDROOT
BRANCH   1  17
HETATM   17  O   UNL     1      27.451  42.545  51.283  1.00  0.00    -0.348 OA
BRANCH  17  18
HETATM   18  C   UNL     1      28.246  43.295  52.208  1.00  0.00     0.203 C 
BRANCH  18  19
HETATM   19  C   UNL     1      28.017  42.710  53.607  1.00  0.00     0.261 C 
BRANCH  19  20
HETATM   20  N   UNL     1      27.960  43.798  54.678  1.00  0.00    -0.070 N 
HETATM   21  H   UNL     1      27.704  43.293  55.542  1.00  0.00     0.279 HD
BRANCH  20  22
HETATM   22  C   UNL     1      26.861  44.817  54.428  1.00  0.00     0.230 C 
HETATM   23  C   UNL     1      25.491  44.166  54.494  1.00  0.00     0.034 C 
ENDBRANCH  20  22
BRANCH  20  24
HETATM   24  C   UNL     1      29.288  44.457  55.003  1.00  0.00     0.230 C 
HETATM   25  C   UNL     1      30.406  43.449  55.194  1.00  0.00     0.034 C 
ENDBRANCH  20  24
ENDBRANCH  19  20
ENDBRANCH  18  19
ENDBRANCH  17  18
ENDBRANCH   1  17
BRANCH   8  26
HETATM   26  N   UNL     1      25.875  47.461  51.857  1.00  0.00    -0.226 NA
HETATM   27  H   UNL     1      26.677  48.009  51.525  1.00  0.00     0.145 HD
HETATM   28  H   UNL     1      26.239  46.503  51.798  1.00  0.00     0.145 HD
ENDBRANCH   8  26
BRANCH  12  29
HETATM   29  O   UNL     1      20.890  48.496  47.466  1.00  0.00    -0.348 OA
BRANCH  29  30
HETATM   30  C   UNL     1      20.639  49.552  48.399  1.00  0.00     0.203 C 
BRANCH  30  31
HETATM   31  C   UNL     1      19.323  50.230  47.998  1.00  0.00     0.261 C 
BRANCH  31  32
HETATM   32  N   UNL     1      18.162  49.826  48.911  1.00  0.00    -0.070 N 
HETATM   33  H   UNL     1      17.338  49.858  48.288  1.00  0.00     0.279 HD
BRANCH  32  34
HETATM   34  C   UNL     1      18.216  48.401  49.424  1.00  0.00     0.230 C 
HETATM   35  C   UNL     1      17.075  47.545  48.908  1.00  0.00     0.034 C 
ENDBRANCH  32  34
BRANCH  32  36
HETATM   36  C   UNL     1      17.928  50.889  49.970  1.00  0.00     0.230 C 
HETATM   37  C   UNL     1      18.358  52.265  49.499  1.00  0.00     0.034 C 
ENDBRANCH  32  36
ENDBRANCH  31  32
ENDBRANCH  30  31
ENDBRANCH  29  30
ENDBRANCH  12  29
TORSDOF 13
ENDMDL
MODEL 10
REMARK VINA RESULT:      -6.8      3.152      5.094
REMARK  13 active torsions:
REMARK  status: ('A' for Active; 'I' for Inactive)
REMARK    1  A    between atoms: C_2  and  N_3 
REMARK    2  A    between atoms: N_3  and  C_5 
REMARK    3  A    between atoms: N_3  and  C_34 
REMARK    4  A    between atoms: C_5  and  C_6 
REMARK    5  A    between atoms: C_6  and  O_7 
REMARK    6  A    between atoms: O_7  and  C_8 
REMARK    7  A    between atoms: N_15  and  N_16 
REMARK    8  A    between atoms: C_20  and  O_21 
REMARK    9  A    between atoms: O_21  and  C_22 
REMARK   10  A    between atoms: C_22  and  C_23 
REMARK   11  A    between atoms: C_23  and  N_24 
REMARK   12  A    between atoms: N_24  and  C_26 
REMARK   13  A    between atoms: N_24  and  C_28 
ROOT
HETATM    1  C   UNL     1      25.445  45.901  49.597  1.00  0.00     0.091 A 
HETATM    2  C   UNL     1      25.490  47.310  49.717  1.00  0.00     0.068 A 
HETATM    3 CL   UNL     1      26.950  48.099  50.204  1.00  0.00    -0.081 Cl
HETATM    4  C   UNL     1      24.372  48.107  49.429  1.00  0.00     0.040 A 
HETATM    5  C   UNL     1      23.201  47.478  49.037  1.00  0.00    -0.011 A 
HETATM    6  C   UNL     1      23.148  46.071  48.956  1.00  0.00     0.009 A 
HETATM    7  C   UNL     1      21.767  45.709  48.537  1.00  0.00     0.093 A 
HETATM    8  N   UNL     1      21.177  44.573  48.331  1.00  0.00    -0.203 NA
HETATM    9  C   UNL     1      21.038  46.985  48.360  1.00  0.00     0.009 A 
HETATM   10  C   UNL     1      21.916  48.033  48.663  1.00  0.00    -0.011 A 
HETATM   11  C   UNL     1      19.722  47.174  47.963  1.00  0.00     0.053 A 
HETATM   12  C   UNL     1      19.259  48.486  47.870  1.00  0.00     0.091 A 
HETATM   13  C   UNL     1      20.143  49.560  48.152  1.00  0.00     0.068 A 
HETATM   14 CL   UNL     1      19.597  51.198  48.017  1.00  0.00    -0.081 Cl
HETATM   15  C   UNL     1      21.471  49.339  48.557  1.00  0.00     0.040 A 
HETATM   16  C   UNL     1      24.250  45.273  49.229  1.00  0.00     0.053 A 
ENDROOT
BRANCH   1  17
HETATM   17  O   UNL     1      26.597  45.212  49.892  1.00  0.00    -0.348 OA
BRANCH  17  18
HETATM   18  C   UNL     1      26.447  44.062  50.732  1.00  0.00     0.203 C 
BRANCH  18  19
HETATM   19  C   UNL     1      27.310  44.277  51.981  1.00  0.00     0.261 C 
BRANCH  19  20
HETATM   20  N   UNL     1      26.478  44.245  53.262  1.00  0.00    -0.070 N 
HETATM   21  H   UNL     1      26.038  43.310  53.258  1.00  0.00     0.279 HD
BRANCH  20  22
HETATM   22  C   UNL     1      25.346  45.257  53.258  1.00  0.00     0.230 C 
HETATM   23  C   UNL     1      25.881  46.673  53.383  1.00  0.00     0.034 C 
ENDBRANCH  20  22
BRANCH  20  24
HETATM   24  C   UNL     1      27.274  44.283  54.553  1.00  0.00     0.230 C 
HETATM   25  C   UNL     1      28.754  44.034  54.332  1.00  0.00     0.034 C 
ENDBRANCH  20  24
ENDBRANCH  19  20
ENDBRANCH  18  19
ENDBRANCH  17  18
ENDBRANCH   1  17
BRANCH   8  26
HETATM   26  N   UNL     1      21.899  43.455  48.539  1.00  0.00    -0.226 NA
HETATM   27  H   UNL     1      21.714  42.804  47.768  1.00  0.00     0.145 HD
HETATM   28  H   UNL     1      21.494  42.951  49.337  1.00  0.00     0.145 HD
ENDBRANCH   8  26
BRANCH  12  29
HETATM   29  O   UNL     1      17.981  48.816  47.482  1.00  0.00    -0.348 OA
BRANCH  29  30
HETATM   30  C   UNL     1      16.944  48.581  48.440  1.00  0.00     0.203 C 
BRANCH  30  31
HETATM   31  C   UNL     1      15.730  49.426  48.033  1.00  0.00     0.261 C 
BRANCH  31  32
HETATM   32  N   UNL     1      16.097  50.894  47.801  1.00  0.00    -0.070 N 
HETATM   33  H   UNL     1      17.128  50.904  47.879  1.00  0.00     0.279 HD
BRANCH  32  34
HETATM   34  C   UNL     1      15.802  51.415  46.409  1.00  0.00     0.230 C 
HETATM   35  C   UNL     1      16.909  52.296  45.861  1.00  0.00     0.034 C 
ENDBRANCH  32  34
BRANCH  32  36
HETATM   36  C   UNL     1      15.582  51.755  48.941  1.00  0.00     0.230 C 
HETATM   37  C   UNL     1      16.698  52.196  49.869  1.00  0.00     0.034 C 
ENDBRANCH  32  36
ENDBRANCH  31  32
ENDBRANCH  30  31
ENDBRANCH  29  30
ENDBRANCH  12  29
TORSDOF 13
ENDMDL
