MODEL 1
REMARK VINA RESULT:      -8.4      0.000      0.000
REMARK  5 active torsions:
REMARK  status: ('A' for Active; 'I' for Inactive)
REMARK    1  A    between atoms: C_2  and  O_3 
REMARK    2  A    between atoms: O_3  and  C_4 
REMARK    3  A    between atoms: C_9  and  C_10 
REMARK    4  A    between atoms: C_10  and  N_11 
REMARK       I    between atoms: N_11  and  C_12 
REMARK       I    between atoms: C_12  and  N_13 
REMARK    5  A    between atoms: N_13  and  C_14 
ROOT
HETATM    1  N   UNL     1      26.556  46.548  54.229  1.00  0.00    -0.338 N 
HETATM    2  C   UNL     1      26.821  47.482  55.177  1.00  0.00     0.320 C 
HETATM    3  N   UNL     1      27.686  47.151  56.172  1.00  0.00    -0.309 N 
HETATM    4  O   UNL     1      26.284  48.587  55.197  1.00  0.00    -0.247 OA
HETATM    5  H   UNL     1      26.613  45.585  54.526  1.00  0.00     0.164 HD
HETATM    6  H   UNL     1      27.657  47.845  56.911  1.00  0.00     0.170 HD
ENDROOT
BRANCH   1   7
HETATM    7  C   UNL     1      25.721  46.830  53.077  1.00  0.00     0.167 C 
BRANCH   7   8
HETATM    8  C   UNL     1      26.034  45.984  51.871  1.00  0.00     0.013 A 
HETATM    9  C   UNL     1      26.269  46.574  50.627  1.00  0.00     0.172 A 
HETATM   10  N   UNL     1      26.518  45.880  49.492  1.00  0.00    -0.237 NA
HETATM   11  C   UNL     1      26.506  44.534  49.584  1.00  0.00     0.119 A 
HETATM   12  C   UNL     1      26.254  43.847  50.756  1.00  0.00     0.020 A 
HETATM   13  C   UNL     1      26.007  44.584  51.911  1.00  0.00     0.014 A 
BRANCH   9  14
HETATM   14  O   UNL     1      26.237  47.954  50.568  1.00  0.00    -0.334 OA
BRANCH  14  15
HETATM   15  C   UNL     1      27.030  48.504  49.514  1.00  0.00     0.173 C 
HETATM   16  C   UNL     1      26.144  49.436  48.707  1.00  0.00     0.034 C 
ENDBRANCH  14  15
ENDBRANCH   9  14
ENDBRANCH   7   8
ENDBRANCH   1   7
BRANCH   3  17
HETATM   17  C   UNL     1      28.670  46.151  56.300  1.00  0.00     0.037 A 
HETATM   18  C   UNL     1      28.994  45.221  55.312  1.00  0.00     0.049 A 
HETATM   19  C   UNL     1      30.011  44.279  55.524  1.00  0.00     0.019 A 
HETATM   20 BR   UNL     1      30.344  43.029  54.129  1.00  0.00    -0.051 Br
HETATM   21  C   UNL     1      30.750  44.270  56.716  1.00  0.00    -0.044 A 
HETATM   22  C   UNL     1      31.846  43.279  56.987  1.00  0.00     0.049 C 
HETATM   23  C   UNL     1      30.428  45.215  57.699  1.00  0.00     0.010 A 
HETATM   24  C   UNL     1      29.407  46.146  57.489  1.00  0.00     0.030 A 
ENDBRANCH   3  17
TORSDOF 5
ENDMDL
MODEL 2
REMARK VINA RESULT:      -8.4      2.890      4.193
REMARK  5 active torsions:
REMARK  status: ('A' for Active; 'I' for Inactive)
REMARK    1  A    between atoms: C_2  and  O_3 
REMARK    2  A    between atoms: O_3  and  C_4 
REMARK    3  A    between atoms: C_9  and  C_10 
REMARK    4  A    between atoms: C_10  and  N_11 
REMARK       I    between atoms: N_11  and  C_12 
REMARK       I    between atoms: C_12  and  N_13 
REMARK    5  A    between atoms: N_13  and  C_14 
ROOT
HETATM    1  N   UNL     1      25.399  45.699  51.275  1.00  0.00    -0.338 N 
HETATM    2  C   UNL     1      24.830  44.518  51.623  1.00  0.00     0.320 C 
HETATM    3  N   UNL     1      25.603  43.607  52.273  1.00  0.00    -0.309 N 
HETATM    4  O   UNL     1      23.671  44.223  51.340  1.00  0.00    -0.247 OA
HETATM    5  H   UNL     1      26.391  45.677  51.087  1.00  0.00     0.164 HD
HETATM    6  H   UNL     1      25.134  42.709  52.310  1.00  0.00     0.170 HD
ENDROOT
BRANCH   1   7
HETATM    7  C   UNL     1      24.641  46.773  50.662  1.00  0.00     0.167 C 
BRANCH   7   8
HETATM    8  C   UNL     1      25.486  47.785  49.935  1.00  0.00     0.013 A 
HETATM    9  C   UNL     1      24.893  48.802  49.184  1.00  0.00     0.172 A 
HETATM   10  N   UNL     1      25.585  49.724  48.474  1.00  0.00    -0.237 NA
HETATM   11  C   UNL     1      26.930  49.618  48.484  1.00  0.00     0.119 A 
HETATM   12  C   UNL     1      27.618  48.634  49.166  1.00  0.00     0.020 A 
HETATM   13  C   UNL     1      26.884  47.701  49.895  1.00  0.00     0.014 A 
BRANCH   9  14
HETATM   14  O   UNL     1      23.513  48.854  49.171  1.00  0.00    -0.334 OA
BRANCH  14  15
HETATM   15  C   UNL     1      22.976  49.631  48.100  1.00  0.00     0.173 C 
HETATM   16  C   UNL     1      22.172  50.766  48.710  1.00  0.00     0.034 C 
ENDBRANCH  14  15
ENDBRANCH   9  14
ENDBRANCH   7   8
ENDBRANCH   1   7
BRANCH   3  17
HETATM   17  C   UNL     1      26.808  43.707  52.995  1.00  0.00     0.037 A 
HETATM   18  C   UNL     1      27.117  44.729  53.892  1.00  0.00     0.049 A 
HETATM   19  C   UNL     1      28.337  44.726  54.585  1.00  0.00     0.019 A 
HETATM   20 BR   UNL     1      28.678  46.187  55.753  1.00  0.00    -0.051 Br
HETATM   21  C   UNL     1      29.258  43.680  54.422  1.00  0.00    -0.044 A 
HETATM   22  C   UNL     1      30.576  43.636  55.141  1.00  0.00     0.049 C 
HETATM   23  C   UNL     1      28.935  42.650  53.529  1.00  0.00     0.010 A 
HETATM   24  C   UNL     1      27.724  42.662  52.831  1.00  0.00     0.030 A 
ENDBRANCH   3  17
TORSDOF 5
ENDMDL
MODEL 3
REMARK VINA RESULT:      -8.1      2.924      7.005
REMARK  5 active torsions:
REMARK  status: ('A' for Active; 'I' for Inactive)
REMARK    1  A    between atoms: C_2  and  O_3 
REMARK    2  A    between atoms: O_3  and  C_4 
REMARK    3  A    between atoms: C_9  and  C_10 
REMARK    4  A    between atoms: C_10  and  N_11 
REMARK       I    between atoms: N_11  and  C_12 
REMARK       I    between atoms: C_12  and  N_13 
REMARK    5  A    between atoms: N_13  and  C_14 
ROOT
HETATM    1  N   UNL     1      27.153  43.138  52.669  1.00  0.00    -0.338 N 
HETATM    2  C   UNL     1      27.633  42.775  51.453  1.00  0.00     0.320 C 
HETATM    3  N   UNL     1      27.140  43.412  50.358  1.00  0.00    -0.309 N 
HETATM    4  O   UNL     1      28.454  41.873  51.300  1.00  0.00    -0.247 OA
HETATM    5  H   UNL     1      26.202  43.478  52.687  1.00  0.00     0.164 HD
HETATM    6  H   UNL     1      27.426  42.932  49.512  1.00  0.00     0.170 HD
ENDROOT
BRANCH   1   7
HETATM    7  C   UNL     1      27.676  42.588  53.904  1.00  0.00     0.167 C 
BRANCH   7   8
HETATM    8  C   UNL     1      28.617  43.508  54.636  1.00  0.00     0.013 A 
HETATM    9  C   UNL     1      28.238  44.815  54.947  1.00  0.00     0.172 A 
HETATM   10  N   UNL     1      29.041  45.712  55.569  1.00  0.00    -0.237 NA
HETATM   11  C   UNL     1      30.290  45.304  55.873  1.00  0.00     0.119 A 
HETATM   12  C   UNL     1      30.779  44.045  55.583  1.00  0.00     0.020 A 
HETATM   13  C   UNL     1      29.932  43.139  54.949  1.00  0.00     0.014 A 
BRANCH   9  14
HETATM   14  O   UNL     1      26.963  45.205  54.587  1.00  0.00    -0.334 OA
BRANCH  14  15
HETATM   15  C   UNL     1      26.777  46.621  54.567  1.00  0.00     0.173 C 
HETATM   16  C   UNL     1      25.887  46.955  53.383  1.00  0.00     0.034 C 
ENDBRANCH  14  15
ENDBRANCH   9  14
ENDBRANCH   7   8
ENDBRANCH   1   7
BRANCH   3  17
HETATM   17  C   UNL     1      26.460  44.632  50.178  1.00  0.00     0.037 A 
HETATM   18  C   UNL     1      27.070  45.842  49.849  1.00  0.00     0.049 A 
HETATM   19  C   UNL     1      26.302  47.002  49.664  1.00  0.00     0.019 A 
HETATM   20 BR   UNL     1      27.235  48.608  49.260  1.00  0.00    -0.051 Br
HETATM   21  C   UNL     1      24.903  46.965  49.769  1.00  0.00    -0.044 A 
HETATM   22  C   UNL     1      24.041  48.182  49.581  1.00  0.00     0.049 C 
HETATM   23  C   UNL     1      24.297  45.744  50.086  1.00  0.00     0.010 A 
HETATM   24  C   UNL     1      25.065  44.592  50.281  1.00  0.00     0.030 A 
ENDBRANCH   3  17
TORSDOF 5
ENDMDL
MODEL 4
REMARK VINA RESULT:      -8.0      2.023      3.006
REMARK  5 active torsions:
REMARK  status: ('A' for Active; 'I' for Inactive)
REMARK    1  A    between atoms: C_2  and  O_3 
REMARK    2  A    between atoms: O_3  and  C_4 
REMARK    3  A    between atoms: C_9  and  C_10 
REMARK    4  A    between atoms: C_10  and  N_11 
REMARK       I    between atoms: N_11  and  C_12 
REMARK       I    between atoms: C_12  and  N_13 
REMARK    5  A    between atoms: N_13  and  C_14 
ROOT
HETATM    1  N   UNL     1      25.847  45.920  52.069  1.00  0.00    -0.338 N 
HETATM    2  C   UNL     1      25.772  46.806  53.092  1.00  0.00     0.320 C 
HETATM    3  N   UNL     1      26.444  46.515  54.238  1.00  0.00    -0.309 N 
HETATM    4  O   UNL     1      25.093  47.830  53.043  1.00  0.00    -0.247 OA
HETATM    5  H   UNL     1      25.975  44.952  52.328  1.00  0.00     0.164 HD
HETATM    6  H   UNL     1      26.162  47.143  54.983  1.00  0.00     0.170 HD
ENDROOT
BRANCH   1   7
HETATM    7  C   UNL     1      25.245  46.178  50.775  1.00  0.00     0.167 C 
BRANCH   7   8
HETATM    8  C   UNL     1      25.827  47.364  50.052  1.00  0.00     0.013 A 
HETATM    9  C   UNL     1      25.008  48.414  49.631  1.00  0.00     0.172 A 
HETATM   10  N   UNL     1      25.451  49.494  48.945  1.00  0.00    -0.237 NA
HETATM   11  C   UNL     1      26.763  49.524  48.634  1.00  0.00     0.119 A 
HETATM   12  C   UNL     1      27.655  48.525  48.972  1.00  0.00     0.020 A 
HETATM   13  C   UNL     1      27.177  47.428  49.685  1.00  0.00     0.014 A 
BRANCH   9  14
HETATM   14  O   UNL     1      23.664  48.328  49.938  1.00  0.00    -0.334 OA
BRANCH  14  15
HETATM   15  C   UNL     1      22.802  48.673  48.853  1.00  0.00     0.173 C 
HETATM   16  C   UNL     1      22.427  47.390  48.133  1.00  0.00     0.034 C 
ENDBRANCH  14  15
ENDBRANCH   9  14
ENDBRANCH   7   8
ENDBRANCH   1   7
BRANCH   3  17
HETATM   17  C   UNL     1      27.508  45.641  54.534  1.00  0.00     0.037 A 
HETATM   18  C   UNL     1      27.665  44.365  53.993  1.00  0.00     0.049 A 
HETATM   19  C   UNL     1      28.777  43.579  54.330  1.00  0.00     0.019 A 
HETATM   20 BR   UNL     1      28.875  41.839  53.570  1.00  0.00    -0.051 Br
HETATM   21  C   UNL     1      29.774  44.068  55.187  1.00  0.00    -0.044 A 
HETATM   22  C   UNL     1      30.980  43.261  55.577  1.00  0.00     0.049 C 
HETATM   23  C   UNL     1      29.616  45.355  55.717  1.00  0.00     0.010 A 
HETATM   24  C   UNL     1      28.501  46.132  55.389  1.00  0.00     0.030 A 
ENDBRANCH   3  17
TORSDOF 5
ENDMDL
MODEL 5
REMARK VINA RESULT:      -8.0      2.865      4.304
REMARK  5 active torsions:
REMARK  status: ('A' for Active; 'I' for Inactive)
REMARK    1  A    between atoms: C_2  and  O_3 
REMARK    2  A    between atoms: O_3  and  C_4 
REMARK    3  A    between atoms: C_9  and  C_10 
REMARK    4  A    between atoms: C_10  and  N_11 
REMARK       I    between atoms: N_11  and  C_12 
REMARK       I    between atoms: C_12  and  N_13 
REMARK    5  A    between atoms: N_13  and  C_14 
ROOT
HETATM    1  N   UNL     1      28.367  43.677  51.936  1.00  0.00    -0.338 N 
HETATM    2  C   UNL     1      28.913  42.509  52.359  1.00  0.00     0.320 C 
HETATM    3  N   UNL     1      29.699  42.539  53.468  1.00  0.00    -0.309 N 
HETATM    4  O   UNL     1      28.763  41.445  51.762  1.00  0.00    -0.247 OA
HETATM    5  H   UNL     1      28.896  44.513  52.138  1.00  0.00     0.164 HD
HETATM    6  H   UNL     1      30.195  41.660  53.573  1.00  0.00     0.170 HD
ENDROOT
BRANCH   1   7
HETATM    7  C   UNL     1      27.442  43.740  50.821  1.00  0.00     0.167 C 
BRANCH   7   8
HETATM    8  C   UNL     1      26.678  45.035  50.730  1.00  0.00     0.013 A 
HETATM    9  C   UNL     1      25.659  45.327  51.639  1.00  0.00     0.172 A 
HETATM   10  N   UNL     1      24.904  46.450  51.598  1.00  0.00    -0.237 NA
HETATM   11  C   UNL     1      25.149  47.314  50.592  1.00  0.00     0.119 A 
HETATM   12  C   UNL     1      26.110  47.110  49.620  1.00  0.00     0.020 A 
HETATM   13  C   UNL     1      26.878  45.950  49.688  1.00  0.00     0.014 A 
BRANCH   9  14
HETATM   14  O   UNL     1      25.416  44.399  52.633  1.00  0.00    -0.334 OA
BRANCH  14  15
HETATM   15  C   UNL     1      25.428  44.951  53.951  1.00  0.00     0.173 C 
HETATM   16  C   UNL     1      25.409  43.796  54.936  1.00  0.00     0.034 C 
ENDBRANCH  14  15
ENDBRANCH   9  14
ENDBRANCH   7   8
ENDBRANCH   1   7
BRANCH   3  17
HETATM   17  C   UNL     1      29.839  43.459  54.524  1.00  0.00     0.037 A 
HETATM   18  C   UNL     1      28.998  44.549  54.748  1.00  0.00     0.049 A 
HETATM   19  C   UNL     1      29.203  45.396  55.848  1.00  0.00     0.019 A 
HETATM   20 BR   UNL     1      28.026  46.876  56.037  1.00  0.00    -0.051 Br
HETATM   21  C   UNL     1      30.234  45.148  56.767  1.00  0.00    -0.044 A 
HETATM   22  C   UNL     1      30.492  46.029  57.956  1.00  0.00     0.049 C 
HETATM   23  C   UNL     1      31.067  44.045  56.543  1.00  0.00     0.010 A 
HETATM   24  C   UNL     1      30.867  43.209  55.441  1.00  0.00     0.030 A 
ENDBRANCH   3  17
TORSDOF 5
ENDMDL
MODEL 6
REMARK VINA RESULT:      -7.9      2.318      3.593
REMARK  5 active torsions:
REMARK  status: ('A' for Active; 'I' for Inactive)
REMARK    1  A    between atoms: C_2  and  O_3 
REMARK    2  A    between atoms: O_3  and  C_4 
REMARK    3  A    between atoms: C_9  and  C_10 
REMARK    4  A    between atoms: C_10  and  N_11 
REMARK       I    between atoms: N_11  and  C_12 
REMARK       I    between atoms: C_12  and  N_13 
REMARK    5  A    between atoms: N_13  and  C_14 
ROOT
HETATM    1  N   UNL     1      26.701  44.172  52.947  1.00  0.00    -0.338 N 
HETATM    2  C   UNL     1      27.643  43.286  52.538  1.00  0.00     0.320 C 
HETATM    3  N   UNL     1      28.867  43.341  53.127  1.00  0.00    -0.309 N 
HETATM    4  O   UNL     1      27.452  42.473  51.635  1.00  0.00    -0.247 OA
HETATM    5  H   UNL     1      27.043  45.061  53.281  1.00  0.00     0.164 HD
HETATM    6  H   UNL     1      29.532  42.771  52.616  1.00  0.00     0.170 HD
ENDROOT
BRANCH   1   7
HETATM    7  C   UNL     1      25.339  44.138  52.450  1.00  0.00     0.167 C 
BRANCH   7   8
HETATM    8  C   UNL     1      25.002  45.262  51.505  1.00  0.00     0.013 A 
HETATM    9  C   UNL     1      25.388  46.573  51.791  1.00  0.00     0.172 A 
HETATM   10  N   UNL     1      25.090  47.639  51.010  1.00  0.00    -0.237 NA
HETATM   11  C   UNL     1      24.350  47.401  49.908  1.00  0.00     0.119 A 
HETATM   12  C   UNL     1      23.889  46.150  49.548  1.00  0.00     0.020 A 
HETATM   13  C   UNL     1      24.214  45.068  50.363  1.00  0.00     0.014 A 
BRANCH   9  14
HETATM   14  O   UNL     1      26.114  46.780  52.947  1.00  0.00    -0.334 OA
BRANCH  14  15
HETATM   15  C   UNL     1      25.525  47.731  53.835  1.00  0.00     0.173 C 
HETATM   16  C   UNL     1      26.494  47.956  54.982  1.00  0.00     0.034 C 
ENDBRANCH  14  15
ENDBRANCH   9  14
ENDBRANCH   7   8
ENDBRANCH   1   7
BRANCH   3  17
HETATM   17  C   UNL     1      29.330  43.898  54.335  1.00  0.00     0.037 A 
HETATM   18  C   UNL     1      30.371  43.380  55.104  1.00  0.00     0.049 A 
HETATM   19  C   UNL     1      30.779  44.024  56.282  1.00  0.00     0.019 A 
HETATM   20 BR   UNL     1      32.179  43.211  57.278  1.00  0.00    -0.051 Br
HETATM   21  C   UNL     1      30.176  45.221  56.695  1.00  0.00    -0.044 A 
HETATM   22  C   UNL     1      30.578  45.944  57.949  1.00  0.00     0.049 C 
HETATM   23  C   UNL     1      29.140  45.743  55.911  1.00  0.00     0.010 A 
HETATM   24  C   UNL     1      28.728  45.093  54.744  1.00  0.00     0.030 A 
ENDBRANCH   3  17
TORSDOF 5
ENDMDL
MODEL 7
REMARK VINA RESULT:      -7.8      2.755      4.209
REMARK  5 active torsions:
REMARK  status: ('A' for Active; 'I' for Inactive)
REMARK    1  A    between atoms: C_2  and  O_3 
REMARK    2  A    between atoms: O_3  and  C_4 
REMARK    3  A    between atoms: C_9  and  C_10 
REMARK    4  A    between atoms: C_10  and  N_11 
REMARK       I    between atoms: N_11  and  C_12 
REMARK       I    between atoms: C_12  and  N_13 
REMARK    5  A    between atoms: N_13  and  C_14 
ROOT
HETATM    1  N   UNL     1      25.647  44.529  50.657  1.00  0.00    -0.338 N 
HETATM    2  C   UNL     1      24.936  43.758  51.517  1.00  0.00     0.320 C 
HETATM    3  N   UNL     1      25.445  43.557  52.762  1.00  0.00    -0.309 N 
HETATM    4  O   UNL     1      23.884  43.203  51.207  1.00  0.00    -0.247 OA
HETATM    5  H   UNL     1      26.649  44.524  50.780  1.00  0.00     0.164 HD
HETATM    6  H   UNL     1      24.933  42.824  53.239  1.00  0.00     0.170 HD
ENDROOT
BRANCH   1   7
HETATM    7  C   UNL     1      25.150  44.881  49.341  1.00  0.00     0.167 C 
BRANCH   7   8
HETATM    8  C   UNL     1      24.417  46.195  49.292  1.00  0.00     0.013 A 
HETATM    9  C   UNL     1      25.019  47.365  49.761  1.00  0.00     0.172 A 
HETATM   10  N   UNL     1      24.411  48.575  49.784  1.00  0.00    -0.237 NA
HETATM   11  C   UNL     1      23.135  48.625  49.349  1.00  0.00     0.119 A 
HETATM   12  C   UNL     1      22.434  47.525  48.894  1.00  0.00     0.020 A 
HETATM   13  C   UNL     1      23.084  46.293  48.873  1.00  0.00     0.014 A 
BRANCH   9  14
HETATM   14  O   UNL     1      26.314  47.264  50.231  1.00  0.00    -0.334 OA
BRANCH  14  15
HETATM   15  C   UNL     1      27.309  47.495  49.232  1.00  0.00     0.173 C 
HETATM   16  C   UNL     1      27.655  48.973  49.257  1.00  0.00     0.034 C 
ENDBRANCH  14  15
ENDBRANCH   9  14
ENDBRANCH   7   8
ENDBRANCH   1   7
BRANCH   3  17
HETATM   17  C   UNL     1      26.410  44.238  53.529  1.00  0.00     0.037 A 
HETATM   18  C   UNL     1      26.265  45.535  54.022  1.00  0.00     0.049 A 
HETATM   19  C   UNL     1      27.274  46.120  54.802  1.00  0.00     0.019 A 
HETATM   20 BR   UNL     1      26.995  47.907  55.388  1.00  0.00    -0.051 Br
HETATM   21  C   UNL     1      28.434  45.405  55.135  1.00  0.00    -0.044 A 
HETATM   22  C   UNL     1      29.541  45.991  55.965  1.00  0.00     0.049 C 
HETATM   23  C   UNL     1      28.567  44.099  54.648  1.00  0.00     0.010 A 
HETATM   24  C   UNL     1      27.565  43.523  53.861  1.00  0.00     0.030 A 
ENDBRANCH   3  17
TORSDOF 5
ENDMDL
MODEL 8
REMARK VINA RESULT:      -7.8      2.921      4.234
REMARK  5 active torsions:
REMARK  status: ('A' for Active; 'I' for Inactive)
REMARK    1  A    between atoms: C_2  and  O_3 
REMARK    2  A    between atoms: O_3  and  C_4 
REMARK    3  A    between atoms: C_9  and  C_10 
REMARK    4  A    between atoms: C_10  and  N_11 
REMARK       I    between atoms: N_11  and  C_12 
REMARK       I    between atoms: C_12  and  N_13 
REMARK    5  A    between atoms: N_13  and  C_14 
ROOT
HETATM    1  N   UNL     1      26.546  43.885  50.850  1.00  0.00    -0.338 N 
HETATM    2  C   UNL     1      25.713  43.307  51.750  1.00  0.00     0.320 C 
HETATM    3  N   UNL     1      26.231  42.939  52.953  1.00  0.00    -0.309 N 
HETATM    4  O   UNL     1      24.532  43.064  51.511  1.00  0.00    -0.247 OA
HETATM    5  H   UNL     1      27.516  43.608  50.900  1.00  0.00     0.164 HD
HETATM    6  H   UNL     1      25.573  42.356  53.457  1.00  0.00     0.170 HD
ENDROOT
BRANCH   1   7
HETATM    7  C   UNL     1      26.076  44.397  49.577  1.00  0.00     0.167 C 
BRANCH   7   8
HETATM    8  C   UNL     1      25.687  45.851  49.605  1.00  0.00     0.013 A 
HETATM    9  C   UNL     1      24.348  46.233  49.497  1.00  0.00     0.172 A 
HETATM   10  N   UNL     1      23.924  47.519  49.477  1.00  0.00    -0.237 NA
HETATM   11  C   UNL     1      24.873  48.475  49.538  1.00  0.00     0.119 A 
HETATM   12  C   UNL     1      26.227  48.210  49.614  1.00  0.00     0.020 A 
HETATM   13  C   UNL     1      26.637  46.880  49.640  1.00  0.00     0.014 A 
BRANCH   9  14
HETATM   14  O   UNL     1      23.410  45.223  49.402  1.00  0.00    -0.334 OA
BRANCH  14  15
HETATM   15  C   UNL     1      22.465  45.413  48.347  1.00  0.00     0.173 C 
HETATM   16  C   UNL     1      22.871  44.512  47.195  1.00  0.00     0.034 C 
ENDBRANCH  14  15
ENDBRANCH   9  14
ENDBRANCH   7   8
ENDBRANCH   1   7
BRANCH   3  17
HETATM   17  C   UNL     1      27.392  43.314  53.656  1.00  0.00     0.037 A 
HETATM   18  C   UNL     1      27.504  44.445  54.464  1.00  0.00     0.049 A 
HETATM   19  C   UNL     1      28.699  44.719  55.147  1.00  0.00     0.019 A 
HETATM   20 BR   UNL     1      28.760  46.308  56.189  1.00  0.00    -0.051 Br
HETATM   21  C   UNL     1      29.794  43.846  55.064  1.00  0.00    -0.044 A 
HETATM   22  C   UNL     1      31.093  44.100  55.776  1.00  0.00     0.049 C 
HETATM   23  C   UNL     1      29.670  42.706  54.261  1.00  0.00     0.010 A 
HETATM   24  C   UNL     1      28.483  42.441  53.572  1.00  0.00     0.030 A 
ENDBRANCH   3  17
TORSDOF 5
ENDMDL
MODEL 9
REMARK VINA RESULT:      -7.6      3.120      4.442
REMARK  5 active torsions:
REMARK  status: ('A' for Active; 'I' for Inactive)
REMARK    1  A    between atoms: C_2  and  O_3 
REMARK    2  A    between atoms: O_3  and  C_4 
REMARK    3  A    between atoms: C_9  and  C_10 
REMARK    4  A    between atoms: C_10  and  N_11 
REMARK       I    between atoms: N_11  and  C_12 
REMARK       I    between atoms: C_12  and  N_13 
REMARK    5  A    between atoms: N_13  and  C_14 
ROOT
HETATM    1  N   UNL     1      27.536  42.730  50.863  1.00  0.00    -0.338 N 
HETATM    2  C   UNL     1      27.398  41.660  51.685  1.00  0.00     0.320 C 
HETATM    3  N   UNL     1      28.006  41.708  52.900  1.00  0.00    -0.309 N 
HETATM    4  O   UNL     1      26.788  40.642  51.364  1.00  0.00    -0.247 OA
HETATM    5  H   UNL     1      28.392  43.257  50.960  1.00  0.00     0.164 HD
HETATM    6  H   UNL     1      27.993  40.794  53.339  1.00  0.00     0.170 HD
ENDROOT
BRANCH   1   7
HETATM    7  C   UNL     1      26.854  42.818  49.586  1.00  0.00     0.167 C 
BRANCH   7   8
HETATM    8  C   UNL     1      25.367  43.026  49.697  1.00  0.00     0.013 A 
HETATM    9  C   UNL     1      24.847  44.042  50.502  1.00  0.00     0.172 A 
HETATM   10  N   UNL     1      23.524  44.267  50.682  1.00  0.00    -0.237 NA
HETATM   11  C   UNL     1      22.672  43.427  50.059  1.00  0.00     0.119 A 
HETATM   12  C   UNL     1      23.077  42.370  49.266  1.00  0.00     0.020 A 
HETATM   13  C   UNL     1      24.444  42.165  49.091  1.00  0.00     0.014 A 
BRANCH   9  14
HETATM   14  O   UNL     1      25.753  44.859  51.151  1.00  0.00    -0.334 OA
BRANCH  14  15
HETATM   15  C   UNL     1      25.158  45.994  51.780  1.00  0.00     0.173 C 
HETATM   16  C   UNL     1      25.952  47.221  51.369  1.00  0.00     0.034 C 
ENDBRANCH  14  15
ENDBRANCH   9  14
ENDBRANCH   7   8
ENDBRANCH   1   7
BRANCH   3  17
HETATM   17  C   UNL     1      28.500  42.766  53.688  1.00  0.00     0.037 A 
HETATM   18  C   UNL     1      27.833  43.969  53.916  1.00  0.00     0.049 A 
HETATM   19  C   UNL     1      28.397  44.954  54.741  1.00  0.00     0.019 A 
HETATM   20 BR   UNL     1      27.424  46.574  54.951  1.00  0.00    -0.051 Br
HETATM   21  C   UNL     1      29.625  44.740  55.384  1.00  0.00    -0.044 A 
HETATM   22  C   UNL     1      30.268  45.766  56.274  1.00  0.00     0.049 C 
HETATM   23  C   UNL     1      30.284  43.524  55.161  1.00  0.00     0.010 A 
HETATM   24  C   UNL     1      29.725  42.549  54.330  1.00  0.00     0.030 A 
ENDBRANCH   3  17
TORSDOF 5
ENDMDL
MODEL 10
REMARK VINA RESULT:      -7.6      6.609     10.145
REMARK  5 active torsions:
REMARK  status: ('A' for Active; 'I' for Inactive)
REMARK    1  A    between atoms: C_2  and  O_3 
REMARK    2  A    between atoms: O_3  and  C_4 
REMARK    3  A    between atoms: C_9  and  C_10 
REMARK    4  A    between atoms: C_10  and  N_11 
REMARK       I    between atoms: N_11  and  C_12 
REMARK       I    between atoms: C_12  and  N_13 
REMARK    5  A    between atoms: N_13  and  C_14 
ROOT
HETATM    1  N   UNL     1      21.397  46.356  48.997  1.00  0.00    -0.338 N 
HETATM    2  C   UNL     1      20.191  45.804  48.714  1.00  0.00     0.320 C 
HETATM    3  N   UNL     1      19.081  46.569  48.900  1.00  0.00    -0.309 N 
HETATM    4  O   UNL     1      20.057  44.640  48.343  1.00  0.00    -0.247 OA
HETATM    5  H   UNL     1      21.404  47.061  49.721  1.00  0.00     0.164 HD
HETATM    6  H   UNL     1      18.245  45.999  48.841  1.00  0.00     0.170 HD
ENDROOT
BRANCH   1   7
HETATM    7  C   UNL     1      22.645  45.660  48.748  1.00  0.00     0.167 C 
BRANCH   7   8
HETATM    8  C   UNL     1      23.824  46.229  49.491  1.00  0.00     0.013 A 
HETATM    9  C   UNL     1      24.138  47.587  49.400  1.00  0.00     0.172 A 
HETATM   10  N   UNL     1      25.202  48.163  50.007  1.00  0.00    -0.237 NA
HETATM   11  C   UNL     1      26.013  47.352  50.717  1.00  0.00     0.119 A 
HETATM   12  C   UNL     1      25.815  45.991  50.847  1.00  0.00     0.020 A 
HETATM   13  C   UNL     1      24.709  45.423  50.219  1.00  0.00     0.014 A 
BRANCH   9  14
HETATM   14  O   UNL     1      23.302  48.377  48.634  1.00  0.00    -0.334 OA
BRANCH  14  15
HETATM   15  C   UNL     1      22.875  49.570  49.293  1.00  0.00     0.173 C 
HETATM   16  C   UNL     1      22.093  50.399  48.289  1.00  0.00     0.034 C 
ENDBRANCH  14  15
ENDBRANCH   9  14
ENDBRANCH   7   8
ENDBRANCH   1   7
BRANCH   3  17
HETATM   17  C   UNL     1      18.877  47.958  49.011  1.00  0.00     0.037 A 
HETATM   18  C   UNL     1      18.609  48.812  47.942  1.00  0.00     0.049 A 
HETATM   19  C   UNL     1      18.392  50.181  48.158  1.00  0.00     0.019 A 
HETATM   20 BR   UNL     1      18.076  51.264  46.628  1.00  0.00    -0.051 Br
HETATM   21  C   UNL     1      18.404  50.718  49.454  1.00  0.00    -0.044 A 
HETATM   22  C   UNL     1      18.180  52.177  49.733  1.00  0.00     0.049 C 
HETATM   23  C   UNL     1      18.662  49.853  50.525  1.00  0.00     0.010 A 
HETATM   24  C   UNL     1      18.888  48.491  50.306  1.00  0.00     0.030 A 
ENDBRANCH   3  17
TORSDOF 5
ENDMDL
