MODEL 1
REMARK VINA RESULT:      -8.5      0.000      0.000
REMARK  8 active torsions:
REMARK  status: ('A' for Active; 'I' for Inactive)
REMARK    1  A    between atoms: C_2  and  N_3 
REMARK    2  A    between atoms: C_11  and  C_12 
REMARK    3  A    between atoms: C_14  and  O_15 
REMARK    4  A    between atoms: O_15  and  C_16 
REMARK    5  A    between atoms: C_18  and  O_19 
REMARK    6  A    between atoms: O_19  and  C_20 
REMARK    7  A    between atoms: C_20  and  C_21 
REMARK    8  A    between atoms: C_31  and  O_32 
ROOT
HETATM    1  N   UNL     1      20.985  44.031  44.451  1.00  0.00    -0.067 N 
HETATM    2  H   UNL     1      20.478  43.802  43.587  1.00  0.00     0.280 HD
HETATM    3  C   UNL     1      21.974  42.882  44.666  1.00  0.00     0.281 C 
HETATM    4  C   UNL     1      22.484  42.884  46.066  1.00  0.00     0.018 A 
HETATM    5  C   UNL     1      21.866  43.510  47.135  1.00  0.00    -0.024 A 
HETATM    6  C   UNL     1      22.624  43.337  48.337  1.00  0.00     0.057 A 
HETATM    7  C   UNL     1      23.765  42.604  48.118  1.00  0.00     0.087 A 
HETATM    8  N   UNL     1      24.658  42.357  49.089  1.00  0.00    -0.357 N 
HETATM    9  C   UNL     1      24.279  42.648  50.464  1.00  0.00     0.243 C 
HETATM   10  N   UNL     1      23.128  43.539  50.689  1.00  0.00    -0.235 NA
HETATM   11  C   UNL     1      22.402  43.816  49.676  1.00  0.00     0.173 C 
HETATM   12  S   UNL     1      23.925  42.094  46.506  1.00  0.00    -0.074 SA
HETATM   13  C   UNL     1      20.597  44.293  46.959  1.00  0.00     0.068 C 
HETATM   14  C   UNL     1      19.955  44.047  45.582  1.00  0.00     0.240 C 
HETATM   15  H   UNL     1      25.416  41.691  48.973  1.00  0.00     0.162 HD
ENDROOT
BRANCH   9  16
HETATM   16  C   UNL     1      25.483  43.212  51.205  1.00  0.00    -0.012 A 
HETATM   17  C   UNL     1      25.319  44.006  52.361  1.00  0.00     0.050 A 
HETATM   18  C   UNL     1      26.422  44.453  53.093  1.00  0.00     0.103 A 
HETATM   19  C   UNL     1      27.701  44.078  52.664  1.00  0.00     0.112 A 
HETATM   20  C   UNL     1      27.888  43.283  51.532  1.00  0.00     0.041 A 
HETATM   21  C   UNL     1      26.781  42.858  50.801  1.00  0.00     0.014 A 
BRANCH  18  22
HETATM   22  O   UNL     1      26.359  45.210  54.231  1.00  0.00    -0.349 OA
BRANCH  22  23
HETATM   23  C   UNL     1      25.885  46.549  54.094  1.00  0.00     0.171 C 
HETATM   24  C   UNL     1      26.773  47.452  54.931  1.00  0.00     0.034 C 
ENDBRANCH  22  23
ENDBRANCH  18  22
BRANCH  19  25
HETATM   25  O   UNL     1      28.801  44.403  53.474  1.00  0.00    -0.272 OA
BRANCH  25  26
HETATM   26  C   UNL     1      29.310  43.384  54.254  1.00  0.00     0.298 C 
HETATM   27  O   UNL     1      29.236  42.183  54.041  1.00  0.00    -0.259 OA
BRANCH  26  28
HETATM   28  C   UNL     1      29.928  43.967  55.478  1.00  0.00     0.039 A 
HETATM   29  C   UNL     1      30.933  43.235  56.124  1.00  0.00     0.017 A 
HETATM   30  C   UNL     1      31.517  43.722  57.296  1.00  0.00     0.001 A 
HETATM   31  C   UNL     1      31.104  44.944  57.824  1.00  0.00     0.000 A 
HETATM   32  C   UNL     1      30.113  45.685  57.182  1.00  0.00     0.001 A 
HETATM   33  C   UNL     1      29.525  45.201  56.010  1.00  0.00     0.017 A 
ENDBRANCH  26  28
ENDBRANCH  25  26
ENDBRANCH  19  25
ENDBRANCH   9  16
BRANCH  11  34
HETATM   34  O   UNL     1      21.343  44.623  49.857  1.00  0.00    -0.344 OA
HETATM   35  H   UNL     1      21.230  45.117  49.025  1.00  0.00     0.219 HD
ENDBRANCH  11  34
BRANCH   1  36
HETATM   36  C   UNL     1      21.700  45.342  44.200  1.00  0.00     0.231 C 
HETATM   37  C   UNL     1      22.691  45.214  43.059  1.00  0.00     0.034 C 
ENDBRANCH   1  36
TORSDOF 8
ENDMDL
MODEL 2
REMARK VINA RESULT:      -8.3      3.522      4.230
REMARK  8 active torsions:
REMARK  status: ('A' for Active; 'I' for Inactive)
REMARK    1  A    between atoms: C_2  and  N_3 
REMARK    2  A    between atoms: C_11  and  C_12 
REMARK    3  A    between atoms: C_14  and  O_15 
REMARK    4  A    between atoms: O_15  and  C_16 
REMARK    5  A    between atoms: C_18  and  O_19 
REMARK    6  A    between atoms: O_19  and  C_20 
REMARK    7  A    between atoms: C_20  and  C_21 
REMARK    8  A    between atoms: C_31  and  O_32 
ROOT
HETATM    1  N   UNL     1      27.128  40.017  43.027  1.00  0.00    -0.067 N 
HETATM    2  H   UNL     1      27.132  39.536  42.119  1.00  0.00     0.280 HD
HETATM    3  C   UNL     1      27.539  38.960  44.056  1.00  0.00     0.281 C 
HETATM    4  C   UNL     1      27.195  39.407  45.434  1.00  0.00     0.018 A 
HETATM    5  C   UNL     1      26.266  40.387  45.742  1.00  0.00    -0.024 A 
HETATM    6  C   UNL     1      26.188  40.591  47.156  1.00  0.00     0.057 A 
HETATM    7  C   UNL     1      27.055  39.771  47.838  1.00  0.00     0.087 A 
HETATM    8  N   UNL     1      27.192  39.821  49.172  1.00  0.00    -0.357 N 
HETATM    9  C   UNL     1      26.211  40.576  49.938  1.00  0.00     0.243 C 
HETATM   10  N   UNL     1      25.371  41.547  49.217  1.00  0.00    -0.235 NA
HETATM   11  C   UNL     1      25.398  41.503  47.941  1.00  0.00     0.173 C 
HETATM   12  S   UNL     1      27.934  38.741  46.814  1.00  0.00    -0.074 SA
HETATM   13  C   UNL     1      25.522  41.128  44.669  1.00  0.00     0.068 C 
HETATM   14  C   UNL     1      25.689  40.465  43.289  1.00  0.00     0.240 C 
HETATM   15  H   UNL     1      27.709  39.118  49.691  1.00  0.00     0.162 HD
ENDROOT
BRANCH   9  16
HETATM   16  C   UNL     1      26.916  41.296  51.079  1.00  0.00    -0.012 A 
HETATM   17  C   UNL     1      26.615  42.641  51.388  1.00  0.00     0.050 A 
HETATM   18  C   UNL     1      27.196  43.277  52.488  1.00  0.00     0.103 A 
HETATM   19  C   UNL     1      28.073  42.543  53.294  1.00  0.00     0.112 A 
HETATM   20  C   UNL     1      28.377  41.209  53.017  1.00  0.00     0.041 A 
HETATM   21  C   UNL     1      27.805  40.591  51.908  1.00  0.00     0.014 A 
BRANCH  18  22
HETATM   22  O   UNL     1      26.951  44.568  52.871  1.00  0.00    -0.349 OA
BRANCH  22  23
HETATM   23  C   UNL     1      25.589  44.931  53.092  1.00  0.00     0.171 C 
HETATM   24  C   UNL     1      25.151  44.335  54.417  1.00  0.00     0.034 C 
ENDBRANCH  22  23
ENDBRANCH  18  22
BRANCH  19  25
HETATM   25  O   UNL     1      28.547  43.132  54.478  1.00  0.00    -0.272 OA
BRANCH  25  26
HETATM   26  C   UNL     1      29.905  43.367  54.545  1.00  0.00     0.298 C 
HETATM   27  O   UNL     1      30.754  43.036  53.730  1.00  0.00    -0.259 OA
BRANCH  26  28
HETATM   28  C   UNL     1      30.221  44.043  55.835  1.00  0.00     0.039 A 
HETATM   29  C   UNL     1      29.538  45.226  56.145  1.00  0.00     0.017 A 
HETATM   30  C   UNL     1      29.824  45.917  57.324  1.00  0.00     0.001 A 
HETATM   31  C   UNL     1      30.791  45.427  58.201  1.00  0.00     0.000 A 
HETATM   32  C   UNL     1      31.468  44.245  57.907  1.00  0.00     0.001 A 
HETATM   33  C   UNL     1      31.185  43.551  56.727  1.00  0.00     0.017 A 
ENDBRANCH  26  28
ENDBRANCH  25  26
ENDBRANCH  19  25
ENDBRANCH   9  16
BRANCH  11  34
HETATM   34  O   UNL     1      24.636  42.377  47.261  1.00  0.00    -0.344 OA
HETATM   35  H   UNL     1      24.044  42.790  47.915  1.00  0.00     0.219 HD
ENDBRANCH  11  34
BRANCH   1  36
HETATM   36  C   UNL     1      28.152  41.130  42.933  1.00  0.00     0.231 C 
HETATM   37  C   UNL     1      29.563  40.573  42.909  1.00  0.00     0.034 C 
ENDBRANCH   1  36
TORSDOF 8
ENDMDL
MODEL 3
REMARK VINA RESULT:      -8.1     14.328     17.971
REMARK  8 active torsions:
REMARK  status: ('A' for Active; 'I' for Inactive)
REMARK    1  A    between atoms: C_2  and  N_3 
REMARK    2  A    between atoms: C_11  and  C_12 
REMARK    3  A    between atoms: C_14  and  O_15 
REMARK    4  A    between atoms: O_15  and  C_16 
REMARK    5  A    between atoms: C_18  and  O_19 
REMARK    6  A    between atoms: O_19  and  C_20 
REMARK    7  A    between atoms: C_20  and  C_21 
REMARK    8  A    between atoms: C_31  and  O_32 
ROOT
HETATM    1  N   UNL     1      39.881  54.077  46.272  1.00  0.00    -0.067 N 
HETATM    2  H   UNL     1      40.694  54.076  46.899  1.00  0.00     0.280 HD
HETATM    3  C   UNL     1      39.769  52.646  45.739  1.00  0.00     0.281 C 
HETATM    4  C   UNL     1      38.892  52.601  44.536  1.00  0.00     0.018 A 
HETATM    5  C   UNL     1      38.580  53.691  43.740  1.00  0.00    -0.024 A 
HETATM    6  C   UNL     1      37.699  53.313  42.677  1.00  0.00     0.057 A 
HETATM    7  C   UNL     1      37.390  51.975  42.724  1.00  0.00     0.087 A 
HETATM    8  N   UNL     1      36.540  51.403  41.857  1.00  0.00    -0.357 N 
HETATM    9  C   UNL     1      36.143  52.161  40.680  1.00  0.00     0.243 C 
HETATM   10  N   UNL     1      36.364  53.617  40.689  1.00  0.00    -0.235 NA
HETATM   11  C   UNL     1      37.091  54.087  41.628  1.00  0.00     0.173 C 
HETATM   12  S   UNL     1      38.160  51.162  44.000  1.00  0.00    -0.074 SA
HETATM   13  C   UNL     1      39.095  55.065  44.055  1.00  0.00     0.068 C 
HETATM   14  C   UNL     1      40.203  55.035  45.123  1.00  0.00     0.240 C 
HETATM   15  H   UNL     1      36.430  50.396  41.790  1.00  0.00     0.162 HD
ENDROOT
BRANCH   9  16
HETATM   16  C   UNL     1      34.673  51.895  40.387  1.00  0.00    -0.012 A 
HETATM   17  C   UNL     1      33.771  51.569  41.424  1.00  0.00     0.050 A 
HETATM   18  C   UNL     1      32.407  51.410  41.170  1.00  0.00     0.103 A 
HETATM   19  C   UNL     1      31.946  51.600  39.863  1.00  0.00     0.112 A 
HETATM   20  C   UNL     1      32.815  51.936  38.823  1.00  0.00     0.041 A 
HETATM   21  C   UNL     1      34.176  52.075  39.085  1.00  0.00     0.014 A 
BRANCH  18  22
HETATM   22  O   UNL     1      31.460  51.112  42.113  1.00  0.00    -0.349 OA
BRANCH  22  23
HETATM   23  C   UNL     1      31.832  50.189  43.136  1.00  0.00     0.171 C 
HETATM   24  C   UNL     1      31.495  48.790  42.655  1.00  0.00     0.034 C 
ENDBRANCH  22  23
ENDBRANCH  18  22
BRANCH  19  25
HETATM   25  O   UNL     1      30.561  51.583  39.632  1.00  0.00    -0.272 OA
BRANCH  25  26
HETATM   26  C   UNL     1      30.124  50.798  38.583  1.00  0.00     0.298 C 
HETATM   27  O   UNL     1      29.914  51.152  37.433  1.00  0.00    -0.259 OA
BRANCH  26  28
HETATM   28  C   UNL     1      29.864  49.418  39.081  1.00  0.00     0.039 A 
HETATM   29  C   UNL     1      28.677  49.183  39.787  1.00  0.00     0.017 A 
HETATM   30  C   UNL     1      28.405  47.914  40.306  1.00  0.00     0.001 A 
HETATM   31  C   UNL     1      29.315  46.875  40.117  1.00  0.00     0.000 A 
HETATM   32  C   UNL     1      30.493  47.097  39.406  1.00  0.00     0.001 A 
HETATM   33  C   UNL     1      30.770  48.364  38.887  1.00  0.00     0.017 A 
ENDBRANCH  26  28
ENDBRANCH  25  26
ENDBRANCH  19  25
ENDBRANCH   9  16
BRANCH  11  34
HETATM   34  O   UNL     1      37.311  55.413  41.655  1.00  0.00    -0.344 OA
HETATM   35  H   UNL     1      36.636  55.813  41.077  1.00  0.00     0.219 HD
ENDBRANCH  11  34
BRANCH   1  36
HETATM   36  C   UNL     1      38.681  54.452  47.118  1.00  0.00     0.231 C 
HETATM   37  C   UNL     1      38.783  53.850  48.507  1.00  0.00     0.034 C 
ENDBRANCH   1  36
TORSDOF 8
ENDMDL
MODEL 4
REMARK VINA RESULT:      -8.0      5.441      8.600
REMARK  8 active torsions:
REMARK  status: ('A' for Active; 'I' for Inactive)
REMARK    1  A    between atoms: C_2  and  N_3 
REMARK    2  A    between atoms: C_11  and  C_12 
REMARK    3  A    between atoms: C_14  and  O_15 
REMARK    4  A    between atoms: O_15  and  C_16 
REMARK    5  A    between atoms: C_18  and  O_19 
REMARK    6  A    between atoms: O_19  and  C_20 
REMARK    7  A    between atoms: C_20  and  C_21 
REMARK    8  A    between atoms: C_31  and  O_32 
ROOT
HETATM    1  N   UNL     1      26.365  38.682  46.285  1.00  0.00    -0.067 N 
HETATM    2  H   UNL     1      26.889  37.802  46.207  1.00  0.00     0.280 HD
HETATM    3  C   UNL     1      26.958  39.409  47.496  1.00  0.00     0.281 C 
HETATM    4  C   UNL     1      26.045  40.493  47.955  1.00  0.00     0.018 A 
HETATM    5  C   UNL     1      24.695  40.572  47.659  1.00  0.00    -0.024 A 
HETATM    6  C   UNL     1      24.113  41.745  48.237  1.00  0.00     0.057 A 
HETATM    7  C   UNL     1      25.041  42.488  48.926  1.00  0.00     0.087 A 
HETATM    8  N   UNL     1      24.736  43.657  49.510  1.00  0.00    -0.357 N 
HETATM    9  C   UNL     1      23.332  44.016  49.641  1.00  0.00     0.243 C 
HETATM   10  N   UNL     1      22.355  43.300  48.803  1.00  0.00    -0.235 NA
HETATM   11  C   UNL     1      22.771  42.262  48.186  1.00  0.00     0.173 C 
HETATM   12  S   UNL     1      26.587  41.786  48.919  1.00  0.00    -0.074 SA
HETATM   13  C   UNL     1      24.020  39.549  46.793  1.00  0.00     0.068 C 
HETATM   14  C   UNL     1      24.908  38.312  46.564  1.00  0.00     0.240 C 
HETATM   15  H   UNL     1      25.372  44.127  50.148  1.00  0.00     0.162 HD
ENDROOT
BRANCH   9  16
HETATM   16  C   UNL     1      23.174  45.511  49.400  1.00  0.00    -0.012 A 
HETATM   17  C   UNL     1      24.214  46.413  49.716  1.00  0.00     0.050 A 
HETATM   18  C   UNL     1      24.107  47.773  49.415  1.00  0.00     0.103 A 
HETATM   19  C   UNL     1      22.948  48.223  48.774  1.00  0.00     0.112 A 
HETATM   20  C   UNL     1      21.911  47.349  48.439  1.00  0.00     0.041 A 
HETATM   21  C   UNL     1      22.023  45.999  48.760  1.00  0.00     0.014 A 
BRANCH  18  22
HETATM   22  O   UNL     1      25.068  48.714  49.669  1.00  0.00    -0.349 OA
BRANCH  22  23
HETATM   23  C   UNL     1      26.428  48.293  49.574  1.00  0.00     0.171 C 
HETATM   24  C   UNL     1      27.204  49.366  48.833  1.00  0.00     0.034 C 
ENDBRANCH  22  23
ENDBRANCH  18  22
BRANCH  19  25
HETATM   25  O   UNL     1      22.896  49.559  48.343  1.00  0.00    -0.272 OA
BRANCH  25  26
HETATM   26  C   UNL     1      22.275  50.453  49.190  1.00  0.00     0.298 C 
HETATM   27  O   UNL     1      22.684  50.854  50.270  1.00  0.00    -0.259 OA
BRANCH  26  28
HETATM   28  C   UNL     1      20.950  50.827  48.621  1.00  0.00     0.039 A 
HETATM   29  C   UNL     1      20.062  51.548  49.431  1.00  0.00     0.017 A 
HETATM   30  C   UNL     1      18.794  51.890  48.955  1.00  0.00     0.001 A 
HETATM   31  C   UNL     1      18.408  51.517  47.669  1.00  0.00     0.000 A 
HETATM   32  C   UNL     1      19.288  50.808  46.852  1.00  0.00     0.001 A 
HETATM   33  C   UNL     1      20.558  50.464  47.324  1.00  0.00     0.017 A 
ENDBRANCH  26  28
ENDBRANCH  25  26
ENDBRANCH  19  25
ENDBRANCH   9  16
BRANCH  11  34
HETATM   34  O   UNL     1      21.896  41.589  47.419  1.00  0.00    -0.344 OA
HETATM   35  H   UNL     1      21.698  40.761  47.893  1.00  0.00     0.219 HD
ENDBRANCH  11  34
BRANCH   1  36
HETATM   36  C   UNL     1      26.610  39.448  45.001  1.00  0.00     0.231 C 
HETATM   37  C   UNL     1      28.036  39.264  44.518  1.00  0.00     0.034 C 
ENDBRANCH   1  36
TORSDOF 8
ENDMDL
MODEL 5
REMARK VINA RESULT:      -7.9      2.094      2.874
REMARK  8 active torsions:
REMARK  status: ('A' for Active; 'I' for Inactive)
REMARK    1  A    between atoms: C_2  and  N_3 
REMARK    2  A    between atoms: C_11  and  C_12 
REMARK    3  A    between atoms: C_14  and  O_15 
REMARK    4  A    between atoms: O_15  and  C_16 
REMARK    5  A    between atoms: C_18  and  O_19 
REMARK    6  A    between atoms: O_19  and  C_20 
REMARK    7  A    between atoms: C_20  and  C_21 
REMARK    8  A    between atoms: C_31  and  O_32 
ROOT
HETATM    1  N   UNL     1      20.370  44.702  42.686  1.00  0.00    -0.067 N 
HETATM    2  H   UNL     1      20.011  44.467  41.753  1.00  0.00     0.280 HD
HETATM    3  C   UNL     1      21.578  43.787  42.907  1.00  0.00     0.281 C 
HETATM    4  C   UNL     1      21.946  43.741  44.349  1.00  0.00     0.018 A 
HETATM    5  C   UNL     1      21.105  44.085  45.394  1.00  0.00    -0.024 A 
HETATM    6  C   UNL     1      21.771  43.948  46.653  1.00  0.00     0.057 A 
HETATM    7  C   UNL     1      23.068  43.519  46.499  1.00  0.00     0.087 A 
HETATM    8  N   UNL     1      23.902  43.368  47.539  1.00  0.00    -0.357 N 
HETATM    9  C   UNL     1      23.344  43.405  48.883  1.00  0.00     0.243 C 
HETATM   10  N   UNL     1      22.001  43.984  49.056  1.00  0.00    -0.235 NA
HETATM   11  C   UNL     1      21.324  44.207  47.996  1.00  0.00     0.173 C 
HETATM   12  S   UNL     1      23.486  43.248  44.876  1.00  0.00    -0.074 SA
HETATM   13  C   UNL     1      19.709  44.579  45.147  1.00  0.00     0.068 C 
HETATM   14  C   UNL     1      19.268  44.357  43.689  1.00  0.00     0.240 C 
HETATM   15  H   UNL     1      24.802  42.906  47.449  1.00  0.00     0.162 HD
ENDROOT
BRANCH   9  16
HETATM   16  C   UNL     1      24.311  44.135  49.805  1.00  0.00    -0.012 A 
HETATM   17  C   UNL     1      24.395  45.544  49.803  1.00  0.00     0.050 A 
HETATM   18  C   UNL     1      25.217  46.220  50.709  1.00  0.00     0.103 A 
HETATM   19  C   UNL     1      25.945  45.467  51.636  1.00  0.00     0.112 A 
HETATM   20  C   UNL     1      25.869  44.073  51.666  1.00  0.00     0.041 A 
HETATM   21  C   UNL     1      25.059  43.410  50.747  1.00  0.00     0.014 A 
BRANCH  18  22
HETATM   22  O   UNL     1      25.348  47.580  50.790  1.00  0.00    -0.349 OA
BRANCH  22  23
HETATM   23  C   UNL     1      25.593  48.282  49.573  1.00  0.00     0.171 C 
HETATM   24  C   UNL     1      27.090  48.495  49.444  1.00  0.00     0.034 C 
ENDBRANCH  22  23
ENDBRANCH  18  22
BRANCH  19  25
HETATM   25  O   UNL     1      26.659  46.145  52.637  1.00  0.00    -0.272 OA
BRANCH  25  26
HETATM   26  C   UNL     1      26.432  45.736  53.936  1.00  0.00     0.298 C 
HETATM   27  O   UNL     1      25.370  45.751  54.540  1.00  0.00    -0.259 OA
BRANCH  26  28
HETATM   28  C   UNL     1      27.724  45.322  54.551  1.00  0.00     0.039 A 
HETATM   29  C   UNL     1      28.356  46.216  55.426  1.00  0.00     0.017 A 
HETATM   30  C   UNL     1      29.587  45.890  55.999  1.00  0.00     0.001 A 
HETATM   31  C   UNL     1      30.191  44.668  55.705  1.00  0.00     0.000 A 
HETATM   32  C   UNL     1      29.565  43.768  54.845  1.00  0.00     0.001 A 
HETATM   33  C   UNL     1      28.333  44.091  54.268  1.00  0.00     0.017 A 
ENDBRANCH  26  28
ENDBRANCH  25  26
ENDBRANCH  19  25
ENDBRANCH   9  16
BRANCH  11  34
HETATM   34  O   UNL     1      20.094  44.731  48.130  1.00  0.00    -0.344 OA
HETATM   35  H   UNL     1      19.468  44.017  47.910  1.00  0.00     0.219 HD
ENDBRANCH  11  34
BRANCH   1  36
HETATM   36  C   UNL     1      20.778  46.160  42.640  1.00  0.00     0.231 C 
HETATM   37  C   UNL     1      21.932  46.374  41.679  1.00  0.00     0.034 C 
ENDBRANCH   1  36
TORSDOF 8
ENDMDL
MODEL 6
REMARK VINA RESULT:      -7.9     15.134     16.110
REMARK  8 active torsions:
REMARK  status: ('A' for Active; 'I' for Inactive)
REMARK    1  A    between atoms: C_2  and  N_3 
REMARK    2  A    between atoms: C_11  and  C_12 
REMARK    3  A    between atoms: C_14  and  O_15 
REMARK    4  A    between atoms: O_15  and  C_16 
REMARK    5  A    between atoms: C_18  and  O_19 
REMARK    6  A    between atoms: O_19  and  C_20 
REMARK    7  A    between atoms: C_20  and  C_21 
REMARK    8  A    between atoms: C_31  and  O_32 
ROOT
HETATM    1  N   UNL     1      29.736  51.121  39.504  1.00  0.00    -0.067 N 
HETATM    2  H   UNL     1      29.097  50.671  38.838  1.00  0.00     0.280 HD
HETATM    3  C   UNL     1      31.141  50.914  38.931  1.00  0.00     0.281 C 
HETATM    4  C   UNL     1      32.175  51.163  39.973  1.00  0.00     0.018 A 
HETATM    5  C   UNL     1      31.946  51.144  41.339  1.00  0.00    -0.024 A 
HETATM    6  C   UNL     1      33.144  51.441  42.063  1.00  0.00     0.057 A 
HETATM    7  C   UNL     1      34.204  51.673  41.220  1.00  0.00     0.087 A 
HETATM    8  N   UNL     1      35.419  52.021  41.672  1.00  0.00    -0.357 N 
HETATM    9  C   UNL     1      35.687  51.892  43.097  1.00  0.00     0.243 C 
HETATM   10  N   UNL     1      34.537  51.770  44.008  1.00  0.00    -0.235 NA
HETATM   11  C   UNL     1      33.395  51.559  43.475  1.00  0.00     0.173 C 
HETATM   12  S   UNL     1      33.794  51.509  39.581  1.00  0.00    -0.074 SA
HETATM   13  C   UNL     1      30.578  50.890  41.901  1.00  0.00     0.068 C 
HETATM   14  C   UNL     1      29.601  50.370  40.830  1.00  0.00     0.240 C 
HETATM   15  H   UNL     1      36.237  52.040  41.070  1.00  0.00     0.162 HD
ENDROOT
BRANCH   9  16
HETATM   16  C   UNL     1      36.545  53.064  43.552  1.00  0.00    -0.012 A 
HETATM   17  C   UNL     1      36.819  53.278  44.920  1.00  0.00     0.050 A 
HETATM   18  C   UNL     1      37.676  54.301  45.334  1.00  0.00     0.103 A 
HETATM   19  C   UNL     1      38.276  55.102  44.357  1.00  0.00     0.112 A 
HETATM   20  C   UNL     1      38.032  54.902  42.997  1.00  0.00     0.041 A 
HETATM   21  C   UNL     1      37.162  53.890  42.597  1.00  0.00     0.014 A 
BRANCH  18  22
HETATM   22  O   UNL     1      38.011  54.571  46.634  1.00  0.00    -0.349 OA
BRANCH  22  23
HETATM   23  C   UNL     1      38.341  53.457  47.462  1.00  0.00     0.171 C 
HETATM   24  C   UNL     1      38.928  53.990  48.757  1.00  0.00     0.034 C 
ENDBRANCH  22  23
ENDBRANCH  18  22
BRANCH  19  25
HETATM   25  O   UNL     1      39.246  56.035  44.758  1.00  0.00    -0.272 OA
BRANCH  25  26
HETATM   26  C   UNL     1      40.555  55.737  44.434  1.00  0.00     0.298 C 
HETATM   27  O   UNL     1      41.105  55.904  43.356  1.00  0.00    -0.259 OA
BRANCH  26  28
HETATM   28  C   UNL     1      41.213  55.092  45.604  1.00  0.00     0.039 A 
HETATM   29  C   UNL     1      41.546  55.897  46.702  1.00  0.00     0.017 A 
HETATM   30  C   UNL     1      42.198  55.347  47.808  1.00  0.00     0.001 A 
HETATM   31  C   UNL     1      42.516  53.989  47.825  1.00  0.00     0.000 A 
HETATM   32  C   UNL     1      42.179  53.178  46.742  1.00  0.00     0.001 A 
HETATM   33  C   UNL     1      41.527  53.726  45.634  1.00  0.00     0.017 A 
ENDBRANCH  26  28
ENDBRANCH  25  26
ENDBRANCH  19  25
ENDBRANCH   9  16
BRANCH  11  34
HETATM   34  O   UNL     1      32.331  51.439  44.287  1.00  0.00    -0.344 OA
HETATM   35  H   UNL     1      32.242  52.293  44.748  1.00  0.00     0.219 HD
ENDBRANCH  11  34
BRANCH   1  36
HETATM   36  C   UNL     1      29.361  52.588  39.542  1.00  0.00     0.231 C 
HETATM   37  C   UNL     1      28.718  53.021  38.239  1.00  0.00     0.034 C 
ENDBRANCH   1  36
TORSDOF 8
ENDMDL
MODEL 7
REMARK VINA RESULT:      -7.8      5.628      9.063
REMARK  8 active torsions:
REMARK  status: ('A' for Active; 'I' for Inactive)
REMARK    1  A    between atoms: C_2  and  N_3 
REMARK    2  A    between atoms: C_11  and  C_12 
REMARK    3  A    between atoms: C_14  and  O_15 
REMARK    4  A    between atoms: O_15  and  C_16 
REMARK    5  A    between atoms: C_18  and  O_19 
REMARK    6  A    between atoms: O_19  and  C_20 
REMARK    7  A    between atoms: C_20  and  C_21 
REMARK    8  A    between atoms: C_31  and  O_32 
ROOT
HETATM    1  N   UNL     1      27.138  39.138  47.272  1.00  0.00    -0.067 N 
HETATM    2  H   UNL     1      27.712  38.292  47.363  1.00  0.00     0.280 HD
HETATM    3  C   UNL     1      27.527  40.029  48.456  1.00  0.00     0.281 C 
HETATM    4  C   UNL     1      26.507  41.093  48.668  1.00  0.00     0.018 A 
HETATM    5  C   UNL     1      25.205  41.051  48.197  1.00  0.00    -0.024 A 
HETATM    6  C   UNL     1      24.492  42.239  48.557  1.00  0.00     0.057 A 
HETATM    7  C   UNL     1      25.281  43.110  49.268  1.00  0.00     0.087 A 
HETATM    8  N   UNL     1      24.841  44.313  49.670  1.00  0.00    -0.357 N 
HETATM    9  C   UNL     1      23.415  44.591  49.580  1.00  0.00     0.243 C 
HETATM   10  N   UNL     1      22.597  43.726  48.714  1.00  0.00    -0.235 NA
HETATM   11  C   UNL     1      23.144  42.657  48.278  1.00  0.00     0.173 C 
HETATM   12  S   UNL     1      26.848  42.516  49.538  1.00  0.00    -0.074 SA
HETATM   13  C   UNL     1      24.705  39.898  47.377  1.00  0.00     0.068 C 
HETATM   14  C   UNL     1      25.678  38.705  47.406  1.00  0.00     0.240 C 
HETATM   15  H   UNL     1      25.362  44.890  50.324  1.00  0.00     0.162 HD
ENDROOT
BRANCH   9  16
HETATM   16  C   UNL     1      23.215  46.038  49.150  1.00  0.00    -0.012 A 
HETATM   17  C   UNL     1      22.118  46.413  48.345  1.00  0.00     0.050 A 
HETATM   18  C   UNL     1      21.883  47.752  48.022  1.00  0.00     0.103 A 
HETATM   19  C   UNL     1      22.753  48.721  48.532  1.00  0.00     0.112 A 
HETATM   20  C   UNL     1      23.837  48.377  49.341  1.00  0.00     0.041 A 
HETATM   21  C   UNL     1      24.071  47.038  49.642  1.00  0.00     0.014 A 
BRANCH  18  22
HETATM   22  O   UNL     1      20.838  48.208  47.263  1.00  0.00    -0.349 OA
BRANCH  22  23
HETATM   23  C   UNL     1      19.678  47.380  47.194  1.00  0.00     0.171 C 
HETATM   24  C   UNL     1      18.456  48.279  47.209  1.00  0.00     0.034 C 
ENDBRANCH  22  23
ENDBRANCH  18  22
BRANCH  19  25
HETATM   25  O   UNL     1      22.440  50.075  48.329  1.00  0.00    -0.272 OA
BRANCH  25  26
HETATM   26  C   UNL     1      22.049  50.788  49.445  1.00  0.00     0.298 C 
HETATM   27  O   UNL     1      22.750  51.128  50.387  1.00  0.00    -0.259 OA
BRANCH  26  28
HETATM   28  C   UNL     1      20.582  51.036  49.378  1.00  0.00     0.039 A 
HETATM   29  C   UNL     1      20.113  51.985  48.460  1.00  0.00     0.017 A 
HETATM   30  C   UNL     1      18.750  52.279  48.384  1.00  0.00     0.001 A 
HETATM   31  C   UNL     1      17.848  51.624  49.222  1.00  0.00     0.000 A 
HETATM   32  C   UNL     1      18.304  50.671  50.131  1.00  0.00     0.001 A 
HETATM   33  C   UNL     1      19.667  50.374  50.210  1.00  0.00     0.017 A 
ENDBRANCH  26  28
ENDBRANCH  25  26
ENDBRANCH  19  25
ENDBRANCH   9  16
BRANCH  11  34
HETATM   34  O   UNL     1      22.415  41.849  47.490  1.00  0.00    -0.344 OA
HETATM   35  H   UNL     1      21.861  42.432  46.940  1.00  0.00     0.219 HD
ENDBRANCH  11  34
BRANCH   1  36
HETATM   36  C   UNL     1      27.511  39.776  45.950  1.00  0.00     0.231 C 
HETATM   37  C   UNL     1      28.265  38.800  45.066  1.00  0.00     0.034 C 
ENDBRANCH   1  36
TORSDOF 8
ENDMDL
MODEL 8
REMARK VINA RESULT:      -7.8     14.129     15.689
REMARK  8 active torsions:
REMARK  status: ('A' for Active; 'I' for Inactive)
REMARK    1  A    between atoms: C_2  and  N_3 
REMARK    2  A    between atoms: C_11  and  C_12 
REMARK    3  A    between atoms: C_14  and  O_15 
REMARK    4  A    between atoms: O_15  and  C_16 
REMARK    5  A    between atoms: C_18  and  O_19 
REMARK    6  A    between atoms: O_19  and  C_20 
REMARK    7  A    between atoms: C_20  and  C_21 
REMARK    8  A    between atoms: C_31  and  O_32 
ROOT
HETATM    1  N   UNL     1      26.852  50.567  39.990  1.00  0.00    -0.067 N 
HETATM    2  H   UNL     1      25.838  50.697  40.081  1.00  0.00     0.280 HD
HETATM    3  C   UNL     1      27.484  51.535  40.994  1.00  0.00     0.281 C 
HETATM    4  C   UNL     1      28.929  51.736  40.692  1.00  0.00     0.018 A 
HETATM    5  C   UNL     1      29.528  51.473  39.472  1.00  0.00    -0.024 A 
HETATM    6  C   UNL     1      30.931  51.754  39.520  1.00  0.00     0.057 A 
HETATM    7  C   UNL     1      31.317  52.205  40.760  1.00  0.00     0.087 A 
HETATM    8  N   UNL     1      32.596  52.484  41.056  1.00  0.00    -0.357 N 
HETATM    9  C   UNL     1      33.555  52.565  39.964  1.00  0.00     0.243 C 
HETATM   10  N   UNL     1      33.181  51.966  38.671  1.00  0.00    -0.235 NA
HETATM   11  C   UNL     1      31.961  51.618  38.525  1.00  0.00     0.173 C 
HETATM   12  S   UNL     1      30.024  52.325  41.853  1.00  0.00    -0.074 SA
HETATM   13  C   UNL     1      28.748  50.915  38.318  1.00  0.00     0.068 C 
HETATM   14  C   UNL     1      27.229  50.977  38.565  1.00  0.00     0.240 C 
HETATM   15  H   UNL     1      32.863  52.962  41.912  1.00  0.00     0.162 HD
ENDROOT
BRANCH   9  16
HETATM   16  C   UNL     1      34.877  51.960  40.415  1.00  0.00    -0.012 A 
HETATM   17  C   UNL     1      36.109  52.495  39.978  1.00  0.00     0.050 A 
HETATM   18  C   UNL     1      37.323  51.997  40.459  1.00  0.00     0.103 A 
HETATM   19  C   UNL     1      37.293  50.964  41.402  1.00  0.00     0.112 A 
HETATM   20  C   UNL     1      36.087  50.428  41.859  1.00  0.00     0.041 A 
HETATM   21  C   UNL     1      34.884  50.920  41.360  1.00  0.00     0.014 A 
BRANCH  18  22
HETATM   22  O   UNL     1      38.561  52.464  40.105  1.00  0.00    -0.349 OA
BRANCH  22  23
HETATM   23  C   UNL     1      38.640  53.816  39.659  1.00  0.00     0.171 C 
HETATM   24  C   UNL     1      38.870  54.701  40.871  1.00  0.00     0.034 C 
ENDBRANCH  22  23
ENDBRANCH  18  22
BRANCH  19  25
HETATM   25  O   UNL     1      38.501  50.560  41.993  1.00  0.00    -0.272 OA
BRANCH  25  26
HETATM   26  C   UNL     1      38.524  50.516  43.372  1.00  0.00     0.298 C 
HETATM   27  O   UNL     1      38.471  49.521  44.080  1.00  0.00    -0.259 OA
BRANCH  26  28
HETATM   28  C   UNL     1      38.551  51.906  43.906  1.00  0.00     0.039 A 
HETATM   29  C   UNL     1      39.749  52.627  43.811  1.00  0.00     0.017 A 
HETATM   30  C   UNL     1      39.836  53.921  44.330  1.00  0.00     0.001 A 
HETATM   31  C   UNL     1      38.726  54.503  44.941  1.00  0.00     0.000 A 
HETATM   32  C   UNL     1      37.527  53.798  45.030  1.00  0.00     0.001 A 
HETATM   33  C   UNL     1      37.436  52.502  44.513  1.00  0.00     0.017 A 
ENDBRANCH  26  28
ENDBRANCH  25  26
ENDBRANCH  19  25
ENDBRANCH   9  16
BRANCH  11  34
HETATM   34  O   UNL     1      31.595  51.073  37.352  1.00  0.00    -0.344 OA
HETATM   35  H   UNL     1      30.660  50.818  37.449  1.00  0.00     0.219 HD
ENDBRANCH  11  34
BRANCH   1  36
HETATM   36  C   UNL     1      27.140  49.124  40.352  1.00  0.00     0.231 C 
HETATM   37  C   UNL     1      25.893  48.270  40.223  1.00  0.00     0.034 C 
ENDBRANCH   1  36
TORSDOF 8
ENDMDL
MODEL 9
REMARK VINA RESULT:      -7.7      1.238      2.499
REMARK  8 active torsions:
REMARK  status: ('A' for Active; 'I' for Inactive)
REMARK    1  A    between atoms: C_2  and  N_3 
REMARK    2  A    between atoms: C_11  and  C_12 
REMARK    3  A    between atoms: C_14  and  O_15 
REMARK    4  A    between atoms: O_15  and  C_16 
REMARK    5  A    between atoms: C_18  and  O_19 
REMARK    6  A    between atoms: O_19  and  C_20 
REMARK    7  A    between atoms: C_20  and  C_21 
REMARK    8  A    between atoms: C_31  and  O_32 
ROOT
HETATM    1  N   UNL     1      22.524  44.045  43.585  1.00  0.00    -0.067 N 
HETATM    2  H   UNL     1      22.112  43.755  42.690  1.00  0.00     0.280 HD
HETATM    3  C   UNL     1      22.881  42.747  44.315  1.00  0.00     0.281 C 
HETATM    4  C   UNL     1      23.115  43.007  45.762  1.00  0.00     0.018 A 
HETATM    5  C   UNL     1      22.662  44.118  46.453  1.00  0.00    -0.024 A 
HETATM    6  C   UNL     1      23.073  44.072  47.824  1.00  0.00     0.057 A 
HETATM    7  C   UNL     1      23.812  42.945  48.095  1.00  0.00     0.087 A 
HETATM    8  N   UNL     1      24.348  42.712  49.303  1.00  0.00    -0.357 N 
HETATM    9  C   UNL     1      23.916  43.539  50.420  1.00  0.00     0.243 C 
HETATM   10  N   UNL     1      23.235  44.809  50.117  1.00  0.00    -0.235 NA
HETATM   11  C   UNL     1      22.867  44.995  48.908  1.00  0.00     0.173 C 
HETATM   12  S   UNL     1      23.992  41.930  46.746  1.00  0.00    -0.074 SA
HETATM   13  C   UNL     1      21.893  45.209  45.766  1.00  0.00     0.068 C 
HETATM   14  C   UNL     1      21.434  44.791  44.357  1.00  0.00     0.240 C 
HETATM   15  H   UNL     1      24.758  41.816  49.551  1.00  0.00     0.162 HD
ENDROOT
BRANCH   9  16
HETATM   16  C   UNL     1      25.112  43.831  51.317  1.00  0.00    -0.012 A 
HETATM   17  C   UNL     1      26.278  43.037  51.257  1.00  0.00     0.050 A 
HETATM   18  C   UNL     1      27.408  43.355  52.015  1.00  0.00     0.103 A 
HETATM   19  C   UNL     1      27.366  44.495  52.825  1.00  0.00     0.112 A 
HETATM   20  C   UNL     1      26.230  45.304  52.890  1.00  0.00     0.041 A 
HETATM   21  C   UNL     1      25.104  44.967  52.144  1.00  0.00     0.014 A 
BRANCH  18  22
HETATM   22  O   UNL     1      28.584  42.655  52.008  1.00  0.00    -0.349 OA
BRANCH  22  23
HETATM   23  C   UNL     1      28.492  41.233  52.080  1.00  0.00     0.171 C 
HETATM   24  C   UNL     1      28.570  40.828  53.540  1.00  0.00     0.034 C 
ENDBRANCH  22  23
ENDBRANCH  18  22
BRANCH  19  25
HETATM   25  O   UNL     1      28.544  44.898  53.475  1.00  0.00    -0.272 OA
BRANCH  25  26
HETATM   26  C   UNL     1      28.393  45.438  54.737  1.00  0.00     0.298 C 
HETATM   27  O   UNL     1      27.590  46.290  55.085  1.00  0.00    -0.259 OA
BRANCH  26  28
HETATM   28  C   UNL     1      29.434  44.868  55.639  1.00  0.00     0.039 A 
HETATM   29  C   UNL     1      29.694  45.529  56.847  1.00  0.00     0.017 A 
HETATM   30  C   UNL     1      30.686  45.055  57.710  1.00  0.00     0.001 A 
HETATM   31  C   UNL     1      31.418  43.918  57.372  1.00  0.00     0.000 A 
HETATM   32  C   UNL     1      31.158  43.248  56.177  1.00  0.00     0.001 A 
HETATM   33  C   UNL     1      30.168  43.719  55.311  1.00  0.00     0.017 A 
ENDBRANCH  26  28
ENDBRANCH  25  26
ENDBRANCH  19  25
ENDBRANCH   9  16
BRANCH  11  34
HETATM   34  O   UNL     1      22.239  46.145  48.607  1.00  0.00    -0.344 OA
HETATM   35  H   UNL     1      22.818  46.862  48.921  1.00  0.00     0.219 HD
ENDBRANCH  11  34
BRANCH   1  36
HETATM   36  C   UNL     1      23.759  44.856  43.252  1.00  0.00     0.231 C 
HETATM   37  C   UNL     1      23.544  45.692  42.005  1.00  0.00     0.034 C 
ENDBRANCH   1  36
TORSDOF 8
ENDMDL
MODEL 10
REMARK VINA RESULT:      -7.7     16.142     17.238
REMARK  8 active torsions:
REMARK  status: ('A' for Active; 'I' for Inactive)
REMARK    1  A    between atoms: C_2  and  N_3 
REMARK    2  A    between atoms: C_11  and  C_12 
REMARK    3  A    between atoms: C_14  and  O_15 
REMARK    4  A    between atoms: O_15  and  C_16 
REMARK    5  A    between atoms: C_18  and  O_19 
REMARK    6  A    between atoms: O_19  and  C_20 
REMARK    7  A    between atoms: C_20  and  C_21 
REMARK    8  A    between atoms: C_31  and  O_32 
ROOT
HETATM    1  N   UNL     1      30.329  50.689  39.627  1.00  0.00    -0.067 N 
HETATM    2  H   UNL     1      29.748  50.139  38.984  1.00  0.00     0.280 HD
HETATM    3  C   UNL     1      31.761  50.567  39.097  1.00  0.00     0.281 C 
HETATM    4  C   UNL     1      32.743  50.978  40.139  1.00  0.00     0.018 A 
HETATM    5  C   UNL     1      32.482  51.035  41.497  1.00  0.00    -0.024 A 
HETATM    6  C   UNL     1      33.632  51.486  42.221  1.00  0.00     0.057 A 
HETATM    7  C   UNL     1      34.689  51.750  41.383  1.00  0.00     0.087 A 
HETATM    8  N   UNL     1      35.857  52.234  41.832  1.00  0.00    -0.357 N 
HETATM    9  C   UNL     1      36.100  52.229  43.267  1.00  0.00     0.243 C 
HETATM   10  N   UNL     1      34.942  52.072  44.162  1.00  0.00    -0.235 NA
HETATM   11  C   UNL     1      33.836  51.724  43.625  1.00  0.00     0.173 C 
HETATM   12  S   UNL     1      34.336  51.436  39.752  1.00  0.00    -0.074 SA
HETATM   13  C   UNL     1      31.127  50.702  42.051  1.00  0.00     0.068 C 
HETATM   14  C   UNL     1      30.226  50.025  41.001  1.00  0.00     0.240 C 
HETATM   15  H   UNL     1      36.685  52.282  41.245  1.00  0.00     0.162 HD
ENDROOT
BRANCH   9  16
HETATM   16  C   UNL     1      36.842  53.502  43.652  1.00  0.00    -0.012 A 
HETATM   17  C   UNL     1      37.088  53.820  45.005  1.00  0.00     0.050 A 
HETATM   18  C   UNL     1      37.843  54.941  45.358  1.00  0.00     0.103 A 
HETATM   19  C   UNL     1      38.371  55.736  44.335  1.00  0.00     0.112 A 
HETATM   20  C   UNL     1      38.154  55.435  42.989  1.00  0.00     0.041 A 
HETATM   21  C   UNL     1      37.384  54.324  42.650  1.00  0.00     0.014 A 
BRANCH  18  22
HETATM   22  O   UNL     1      38.145  55.316  46.640  1.00  0.00    -0.349 OA
BRANCH  22  23
HETATM   23  C   UNL     1      39.182  54.592  47.300  1.00  0.00     0.171 C 
HETATM   24  C   UNL     1      38.564  53.833  48.459  1.00  0.00     0.034 C 
ENDBRANCH  22  23
ENDBRANCH  18  22
BRANCH  19  25
HETATM   25  O   UNL     1      39.248  56.778  44.681  1.00  0.00    -0.272 OA
BRANCH  25  26
HETATM   26  C   UNL     1      38.705  58.046  44.723  1.00  0.00     0.298 C 
HETATM   27  O   UNL     1      37.547  58.347  44.969  1.00  0.00    -0.259 OA
BRANCH  26  28
HETATM   28  C   UNL     1      39.751  59.037  44.342  1.00  0.00     0.039 A 
HETATM   29  C   UNL     1      41.048  58.568  44.098  1.00  0.00     0.017 A 
HETATM   30  C   UNL     1      42.072  59.463  43.774  1.00  0.00     0.001 A 
HETATM   31  C   UNL     1      41.802  60.828  43.687  1.00  0.00     0.000 A 
HETATM   32  C   UNL     1      40.512  61.302  43.917  1.00  0.00     0.001 A 
HETATM   33  C   UNL     1      39.486  60.411  44.243  1.00  0.00     0.017 A 
ENDBRANCH  26  28
ENDBRANCH  25  26
ENDBRANCH  19  25
ENDBRANCH   9  16
BRANCH  11  34
HETATM   34  O   UNL     1      32.766  51.569  44.423  1.00  0.00    -0.344 OA
HETATM   35  H   UNL     1      32.504  50.634  44.350  1.00  0.00     0.219 HD
ENDBRANCH  11  34
BRANCH   1  36
HETATM   36  C   UNL     1      29.828  52.117  39.553  1.00  0.00     0.231 C 
HETATM   37  C   UNL     1      28.376  52.208  39.981  1.00  0.00     0.034 C 
ENDBRANCH   1  36
TORSDOF 8
ENDMDL
