MODEL 1
REMARK VINA RESULT:      -7.5      0.000      0.000
REMARK  5 active torsions:
REMARK  status: ('A' for Active; 'I' for Inactive)
REMARK    1  A    between atoms: C_2  and  C_3 
REMARK    2  A    between atoms: C_2  and  C_21 
REMARK       I    between atoms: C_3  and  N_4 
REMARK    3  A    between atoms: N_4  and  C_5 
REMARK    4  A    between atoms: C_8  and  O_9 
REMARK    5  A    between atoms: O_9  and  C_10 
ROOT
HETATM    1  C   UNL     1      25.648  46.124  51.686  1.00  0.00     0.052 A 
HETATM    2  C   UNL     1      25.913  47.403  51.201  1.00  0.00     0.149 A 
HETATM    3  N   UNL     1      25.277  47.962  50.139  1.00  0.00    -0.235 NA
HETATM    4  C   UNL     1      24.329  47.217  49.534  1.00  0.00     0.169 A 
HETATM    5  C   UNL     1      23.959  45.954  49.964  1.00  0.00     0.060 A 
HETATM    6  C   UNL     1      24.637  45.399  51.049  1.00  0.00     0.035 A 
ENDROOT
BRANCH   1   7
HETATM    7  N   UNL     1      26.335  45.491  52.745  1.00  0.00    -0.325 N 
HETATM    8  C   UNL     1      27.322  44.527  52.635  1.00  0.00     0.231 C 
HETATM    9  O   UNL     1      27.801  44.148  51.571  1.00  0.00    -0.272 OA
HETATM   10  H   UNL     1      26.054  45.772  53.675  1.00  0.00     0.169 HD
BRANCH   8  11
HETATM   11  C   UNL     1      27.779  43.916  53.981  1.00  0.00     0.046 C 
HETATM   12  C   UNL     1      28.692  44.910  54.722  1.00  0.00     0.026 C 
HETATM   13  C   UNL     1      26.534  43.601  54.830  1.00  0.00     0.026 C 
BRANCH  11  14
HETATM   14  C   UNL     1      28.552  42.615  53.648  1.00  0.00     0.133 C 
HETATM   15 CL   UNL     1      30.313  42.843  53.448  1.00  0.00    -0.129 Cl
ENDBRANCH  11  14
ENDBRANCH   8  11
ENDBRANCH   1   7
BRANCH   4  16
HETATM   16  O   UNL     1      23.650  47.723  48.437  1.00  0.00    -0.289 OA
BRANCH  16  17
HETATM   17  C   UNL     1      22.863  48.834  48.635  1.00  0.00     0.116 A 
HETATM   18  C   UNL     1      21.513  48.621  48.924  1.00  0.00     0.153 A 
HETATM   19  F   UNL     1      21.040  47.371  49.048  1.00  0.00    -0.203 F 
HETATM   20  C   UNL     1      20.636  49.688  49.077  1.00  0.00     0.087 A 
HETATM   21  C   UNL     1      21.118  50.980  48.924  1.00  0.00     0.119 A 
HETATM   22  F   UNL     1      20.282  52.017  49.065  1.00  0.00    -0.206 F 
HETATM   23  C   UNL     1      22.455  51.218  48.616  1.00  0.00     0.045 A 
HETATM   24  C   UNL     1      23.330  50.142  48.459  1.00  0.00     0.043 A 
ENDBRANCH  16  17
ENDBRANCH   4  16
TORSDOF 5
ENDMDL
MODEL 2
REMARK VINA RESULT:      -7.5      1.078      1.680
REMARK  5 active torsions:
REMARK  status: ('A' for Active; 'I' for Inactive)
REMARK    1  A    between atoms: C_2  and  C_3 
REMARK    2  A    between atoms: C_2  and  C_21 
REMARK       I    between atoms: C_3  and  N_4 
REMARK    3  A    between atoms: N_4  and  C_5 
REMARK    4  A    between atoms: C_8  and  O_9 
REMARK    5  A    between atoms: O_9  and  C_10 
ROOT
HETATM    1  C   UNL     1      25.154  45.884  51.548  1.00  0.00     0.052 A 
HETATM    2  C   UNL     1      25.222  47.250  51.278  1.00  0.00     0.149 A 
HETATM    3  N   UNL     1      24.630  47.846  50.211  1.00  0.00    -0.235 NA
HETATM    4  C   UNL     1      23.934  47.048  49.374  1.00  0.00     0.169 A 
HETATM    5  C   UNL     1      23.769  45.688  49.575  1.00  0.00     0.060 A 
HETATM    6  C   UNL     1      24.398  45.100  50.673  1.00  0.00     0.035 A 
ENDROOT
BRANCH   1   7
HETATM    7  N   UNL     1      25.811  45.227  52.610  1.00  0.00    -0.325 N 
HETATM    8  C   UNL     1      26.968  44.471  52.531  1.00  0.00     0.231 C 
HETATM    9  O   UNL     1      27.640  44.342  51.512  1.00  0.00    -0.272 OA
HETATM   10  H   UNL     1      25.368  45.313  53.516  1.00  0.00     0.169 HD
BRANCH   8  11
HETATM   11  C   UNL     1      27.360  43.753  53.843  1.00  0.00     0.046 C 
HETATM   12  C   UNL     1      26.181  43.790  54.833  1.00  0.00     0.026 C 
HETATM   13  C   UNL     1      27.734  42.295  53.517  1.00  0.00     0.026 C 
BRANCH  11  14
HETATM   14  C   UNL     1      28.581  44.509  54.425  1.00  0.00     0.133 C 
HETATM   15 CL   UNL     1      29.974  43.459  54.812  1.00  0.00    -0.129 Cl
ENDBRANCH  11  14
ENDBRANCH   8  11
ENDBRANCH   1   7
BRANCH   4  16
HETATM   16  O   UNL     1      23.316  47.590  48.259  1.00  0.00    -0.289 OA
BRANCH  16  17
HETATM   17  C   UNL     1      22.468  48.655  48.458  1.00  0.00     0.116 A 
HETATM   18  C   UNL     1      22.933  49.922  48.099  1.00  0.00     0.153 A 
HETATM   19  F   UNL     1      24.143  50.060  47.535  1.00  0.00    -0.203 F 
HETATM   20  C   UNL     1      22.164  51.058  48.324  1.00  0.00     0.087 A 
HETATM   21  C   UNL     1      20.923  50.919  48.929  1.00  0.00     0.119 A 
HETATM   22  F   UNL     1      20.174  52.006  49.156  1.00  0.00    -0.206 F 
HETATM   23  C   UNL     1      20.446  49.670  49.316  1.00  0.00     0.045 A 
HETATM   24  C   UNL     1      21.224  48.533  49.090  1.00  0.00     0.043 A 
ENDBRANCH  16  17
ENDBRANCH   4  16
TORSDOF 5
ENDMDL
MODEL 3
REMARK VINA RESULT:      -7.4      4.428      8.574
REMARK  5 active torsions:
REMARK  status: ('A' for Active; 'I' for Inactive)
REMARK    1  A    between atoms: C_2  and  C_3 
REMARK    2  A    between atoms: C_2  and  C_21 
REMARK       I    between atoms: C_3  and  N_4 
REMARK    3  A    between atoms: N_4  and  C_5 
REMARK    4  A    between atoms: C_8  and  O_9 
REMARK    5  A    between atoms: O_9  and  C_10 
ROOT
HETATM    1  C   UNL     1      23.875  47.034  49.594  1.00  0.00     0.052 A 
HETATM    2  C   UNL     1      23.882  45.695  49.211  1.00  0.00     0.149 A 
HETATM    3  N   UNL     1      24.988  44.908  49.209  1.00  0.00    -0.235 NA
HETATM    4  C   UNL     1      26.143  45.478  49.611  1.00  0.00     0.169 A 
HETATM    5  C   UNL     1      26.236  46.787  50.053  1.00  0.00     0.060 A 
HETATM    6  C   UNL     1      25.086  47.576  50.032  1.00  0.00     0.035 A 
ENDROOT
BRANCH   1   7
HETATM    7  N   UNL     1      22.756  47.894  49.545  1.00  0.00    -0.325 N 
HETATM    8  C   UNL     1      22.490  48.857  48.587  1.00  0.00     0.231 C 
HETATM    9  O   UNL     1      23.168  49.034  47.580  1.00  0.00    -0.272 OA
HETATM   10  H   UNL     1      22.097  47.794  50.307  1.00  0.00     0.169 HD
BRANCH   8  11
HETATM   11  C   UNL     1      21.258  49.743  48.888  1.00  0.00     0.046 C 
HETATM   12  C   UNL     1      21.637  50.836  49.905  1.00  0.00     0.026 C 
HETATM   13  C   UNL     1      20.777  50.384  47.574  1.00  0.00     0.026 C 
BRANCH  11  14
HETATM   14  C   UNL     1      20.165  48.815  49.472  1.00  0.00     0.133 C 
HETATM   15 CL   UNL     1      19.099  49.605  50.670  1.00  0.00    -0.129 Cl
ENDBRANCH  11  14
ENDBRANCH   8  11
ENDBRANCH   1   7
BRANCH   4  16
HETATM   16  O   UNL     1      27.313  44.735  49.622  1.00  0.00    -0.289 OA
BRANCH  16  17
HETATM   17  C   UNL     1      27.468  43.810  50.629  1.00  0.00     0.116 A 
HETATM   18  C   UNL     1      27.333  42.463  50.289  1.00  0.00     0.153 A 
HETATM   19  F   UNL     1      27.112  42.109  49.014  1.00  0.00    -0.203 F 
HETATM   20  C   UNL     1      27.414  41.468  51.257  1.00  0.00     0.087 A 
HETATM   21  C   UNL     1      27.617  41.834  52.580  1.00  0.00     0.119 A 
HETATM   22  F   UNL     1      27.692  40.886  53.523  1.00  0.00    -0.206 F 
HETATM   23  C   UNL     1      27.734  43.172  52.947  1.00  0.00     0.045 A 
HETATM   24  C   UNL     1      27.649  44.167  51.971  1.00  0.00     0.043 A 
ENDBRANCH  16  17
ENDBRANCH   4  16
TORSDOF 5
ENDMDL
MODEL 4
REMARK VINA RESULT:      -7.2      4.779      8.647
REMARK  5 active torsions:
REMARK  status: ('A' for Active; 'I' for Inactive)
REMARK    1  A    between atoms: C_2  and  C_3 
REMARK    2  A    between atoms: C_2  and  C_21 
REMARK       I    between atoms: C_3  and  N_4 
REMARK    3  A    between atoms: N_4  and  C_5 
REMARK    4  A    between atoms: C_8  and  O_9 
REMARK    5  A    between atoms: O_9  and  C_10 
ROOT
HETATM    1  C   UNL     1      24.870  45.487  49.889  1.00  0.00     0.052 A 
HETATM    2  C   UNL     1      26.229  45.258  49.683  1.00  0.00     0.149 A 
HETATM    3  N   UNL     1      26.978  44.400  50.424  1.00  0.00    -0.235 NA
HETATM    4  C   UNL     1      26.346  43.735  51.413  1.00  0.00     0.169 A 
HETATM    5  C   UNL     1      24.991  43.856  51.671  1.00  0.00     0.060 A 
HETATM    6  C   UNL     1      24.248  44.754  50.903  1.00  0.00     0.035 A 
ENDROOT
BRANCH   1   7
HETATM    7  N   UNL     1      24.080  46.417  49.180  1.00  0.00    -0.325 N 
HETATM    8  C   UNL     1      23.881  47.750  49.497  1.00  0.00     0.231 C 
HETATM    9  O   UNL     1      24.451  48.333  50.414  1.00  0.00    -0.272 OA
HETATM   10  H   UNL     1      23.603  46.052  48.366  1.00  0.00     0.169 HD
BRANCH   8  11
HETATM   11  C   UNL     1      22.841  48.475  48.611  1.00  0.00     0.046 C 
HETATM   12  C   UNL     1      23.524  49.611  47.827  1.00  0.00     0.026 C 
HETATM   13  C   UNL     1      22.222  47.455  47.638  1.00  0.00     0.026 C 
BRANCH  11  14
HETATM   14  C   UNL     1      21.758  49.047  49.560  1.00  0.00     0.133 C 
HETATM   15 CL   UNL     1      21.694  50.832  49.605  1.00  0.00    -0.129 Cl
ENDBRANCH  11  14
ENDBRANCH   8  11
ENDBRANCH   1   7
BRANCH   4  16
HETATM   16  O   UNL     1      27.054  42.854  52.214  1.00  0.00    -0.289 OA
BRANCH  16  17
HETATM   17  C   UNL     1      27.923  43.392  53.135  1.00  0.00     0.116 A 
HETATM   18  C   UNL     1      29.090  42.677  53.411  1.00  0.00     0.153 A 
HETATM   19  F   UNL     1      29.353  41.538  52.752  1.00  0.00    -0.203 F 
HETATM   20  C   UNL     1      29.991  43.118  54.373  1.00  0.00     0.087 A 
HETATM   21  C   UNL     1      29.708  44.282  55.073  1.00  0.00     0.119 A 
HETATM   22  F   UNL     1      30.565  44.716  56.006  1.00  0.00    -0.206 F 
HETATM   23  C   UNL     1      28.541  45.002  54.831  1.00  0.00     0.045 A 
HETATM   24  C   UNL     1      27.638  44.552  53.867  1.00  0.00     0.043 A 
ENDBRANCH  16  17
ENDBRANCH   4  16
TORSDOF 5
ENDMDL
MODEL 5
REMARK VINA RESULT:      -7.1      7.038      9.224
REMARK  5 active torsions:
REMARK  status: ('A' for Active; 'I' for Inactive)
REMARK    1  A    between atoms: C_2  and  C_3 
REMARK    2  A    between atoms: C_2  and  C_21 
REMARK       I    between atoms: C_3  and  N_4 
REMARK    3  A    between atoms: N_4  and  C_5 
REMARK    4  A    between atoms: C_8  and  O_9 
REMARK    5  A    between atoms: O_9  and  C_10 
ROOT
HETATM    1  C   UNL     1      28.533  41.507  51.656  1.00  0.00     0.052 A 
HETATM    2  C   UNL     1      28.460  42.835  51.238  1.00  0.00     0.149 A 
HETATM    3  N   UNL     1      28.385  43.896  52.082  1.00  0.00    -0.235 NA
HETATM    4  C   UNL     1      28.388  43.626  53.404  1.00  0.00     0.169 A 
HETATM    5  C   UNL     1      28.502  42.348  53.923  1.00  0.00     0.060 A 
HETATM    6  C   UNL     1      28.564  41.275  53.033  1.00  0.00     0.035 A 
ENDROOT
BRANCH   1   7
HETATM    7  N   UNL     1      28.547  40.381  50.805  1.00  0.00    -0.325 N 
HETATM    8  C   UNL     1      27.450  39.752  50.242  1.00  0.00     0.231 C 
HETATM    9  O   UNL     1      26.296  40.156  50.344  1.00  0.00    -0.272 OA
HETATM   10  H   UNL     1      29.462  39.995  50.608  1.00  0.00     0.169 HD
BRANCH   8  11
HETATM   11  C   UNL     1      27.777  38.450  49.474  1.00  0.00     0.046 C 
HETATM   12  C   UNL     1      26.608  37.457  49.607  1.00  0.00     0.026 C 
HETATM   13  C   UNL     1      28.014  38.797  47.993  1.00  0.00     0.026 C 
BRANCH  11  14
HETATM   14  C   UNL     1      29.062  37.861  50.107  1.00  0.00     0.133 C 
HETATM   15 CL   UNL     1      30.546  38.155  49.154  1.00  0.00    -0.129 Cl
ENDBRANCH  11  14
ENDBRANCH   8  11
ENDBRANCH   1   7
BRANCH   4  16
HETATM   16  O   UNL     1      28.301  44.663  54.320  1.00  0.00    -0.289 OA
BRANCH  16  17
HETATM   17  C   UNL     1      29.182  44.651  55.377  1.00  0.00     0.116 A 
HETATM   18  C   UNL     1      28.995  45.605  56.379  1.00  0.00     0.153 A 
HETATM   19  F   UNL     1      27.958  46.454  56.315  1.00  0.00    -0.203 F 
HETATM   20  C   UNL     1      29.876  45.701  57.450  1.00  0.00     0.087 A 
HETATM   21  C   UNL     1      30.963  44.840  57.505  1.00  0.00     0.119 A 
HETATM   22  F   UNL     1      31.821  44.926  58.529  1.00  0.00    -0.206 F 
HETATM   23  C   UNL     1      31.183  43.895  56.507  1.00  0.00     0.045 A 
HETATM   24  C   UNL     1      30.297  43.805  55.432  1.00  0.00     0.043 A 
ENDBRANCH  16  17
ENDBRANCH   4  16
TORSDOF 5
ENDMDL
MODEL 6
REMARK VINA RESULT:      -7.1     12.736     13.752
REMARK  5 active torsions:
REMARK  status: ('A' for Active; 'I' for Inactive)
REMARK    1  A    between atoms: C_2  and  C_3 
REMARK    2  A    between atoms: C_2  and  C_21 
REMARK       I    between atoms: C_3  and  N_4 
REMARK    3  A    between atoms: N_4  and  C_5 
REMARK    4  A    between atoms: C_8  and  O_9 
REMARK    5  A    between atoms: O_9  and  C_10 
ROOT
HETATM    1  C   UNL     1      34.455  51.693  43.397  1.00  0.00     0.052 A 
HETATM    2  C   UNL     1      34.165  51.163  42.142  1.00  0.00     0.149 A 
HETATM    3  N   UNL     1      32.913  50.858  41.714  1.00  0.00    -0.235 NA
HETATM    4  C   UNL     1      31.900  51.094  42.574  1.00  0.00     0.169 A 
HETATM    5  C   UNL     1      32.075  51.659  43.826  1.00  0.00     0.060 A 
HETATM    6  C   UNL     1      33.374  51.951  44.244  1.00  0.00     0.035 A 
ENDROOT
BRANCH   1   7
HETATM    7  N   UNL     1      35.749  51.961  43.894  1.00  0.00    -0.325 N 
HETATM    8  C   UNL     1      36.691  52.812  43.342  1.00  0.00     0.231 C 
HETATM    9  O   UNL     1      36.486  53.530  42.368  1.00  0.00    -0.272 OA
HETATM   10  H   UNL     1      36.006  51.458  44.733  1.00  0.00     0.169 HD
BRANCH   8  11
HETATM   11  C   UNL     1      38.074  52.780  44.035  1.00  0.00     0.046 C 
HETATM   12  C   UNL     1      38.697  51.380  43.894  1.00  0.00     0.026 C 
HETATM   13  C   UNL     1      38.981  53.836  43.376  1.00  0.00     0.026 C 
BRANCH  11  14
HETATM   14  C   UNL     1      37.840  53.122  45.527  1.00  0.00     0.133 C 
HETATM   15 CL   UNL     1      37.555  54.857  45.844  1.00  0.00    -0.129 Cl
ENDBRANCH  11  14
ENDBRANCH   8  11
ENDBRANCH   1   7
BRANCH   4  16
HETATM   16  O   UNL     1      30.598  50.793  42.205  1.00  0.00    -0.289 OA
BRANCH  16  17
HETATM   17  C   UNL     1      30.045  51.521  41.177  1.00  0.00     0.116 A 
HETATM   18  C   UNL     1      29.687  50.828  40.020  1.00  0.00     0.153 A 
HETATM   19  F   UNL     1      29.838  49.496  39.958  1.00  0.00    -0.203 F 
HETATM   20  C   UNL     1      29.179  51.497  38.912  1.00  0.00     0.087 A 
HETATM   21  C   UNL     1      29.045  52.877  38.964  1.00  0.00     0.119 A 
HETATM   22  F   UNL     1      28.562  53.534  37.902  1.00  0.00    -0.206 F 
HETATM   23  C   UNL     1      29.415  53.594  40.099  1.00  0.00     0.045 A 
HETATM   24  C   UNL     1      29.928  52.917  41.207  1.00  0.00     0.043 A 
ENDBRANCH  16  17
ENDBRANCH   4  16
TORSDOF 5
ENDMDL
MODEL 7
REMARK VINA RESULT:      -7.0      6.069      7.875
REMARK  5 active torsions:
REMARK  status: ('A' for Active; 'I' for Inactive)
REMARK    1  A    between atoms: C_2  and  C_3 
REMARK    2  A    between atoms: C_2  and  C_21 
REMARK       I    between atoms: C_3  and  N_4 
REMARK    3  A    between atoms: N_4  and  C_5 
REMARK    4  A    between atoms: C_8  and  O_9 
REMARK    5  A    between atoms: O_9  and  C_10 
ROOT
HETATM    1  C   UNL     1      28.089  41.208  51.320  1.00  0.00     0.052 A 
HETATM    2  C   UNL     1      27.182  42.266  51.308  1.00  0.00     0.149 A 
HETATM    3  N   UNL     1      26.805  42.959  52.414  1.00  0.00    -0.235 NA
HETATM    4  C   UNL     1      27.359  42.585  53.586  1.00  0.00     0.169 A 
HETATM    5  C   UNL     1      28.302  41.578  53.700  1.00  0.00     0.060 A 
HETATM    6  C   UNL     1      28.661  40.875  52.550  1.00  0.00     0.035 A 
ENDROOT
BRANCH   1   7
HETATM    7  N   UNL     1      28.452  40.428  50.200  1.00  0.00    -0.325 N 
HETATM    8  C   UNL     1      27.729  39.387  49.645  1.00  0.00     0.231 C 
HETATM    9  O   UNL     1      26.607  39.053  50.011  1.00  0.00    -0.272 OA
HETATM   10  H   UNL     1      29.344  40.657  49.781  1.00  0.00     0.169 HD
BRANCH   8  11
HETATM   11  C   UNL     1      28.459  38.627  48.512  1.00  0.00     0.046 C 
HETATM   12  C   UNL     1      28.493  39.493  47.240  1.00  0.00     0.026 C 
HETATM   13  C   UNL     1      29.892  38.307  48.976  1.00  0.00     0.026 C 
BRANCH  11  14
HETATM   14  C   UNL     1      27.666  37.321  48.259  1.00  0.00     0.133 C 
HETATM   15 CL   UNL     1      27.924  36.612  46.639  1.00  0.00    -0.129 Cl
ENDBRANCH  11  14
ENDBRANCH   8  11
ENDBRANCH   1   7
BRANCH   4  16
HETATM   16  O   UNL     1      27.008  43.243  54.755  1.00  0.00    -0.289 OA
BRANCH  16  17
HETATM   17  C   UNL     1      27.291  44.587  54.837  1.00  0.00     0.116 A 
HETATM   18  C   UNL     1      26.263  45.479  54.528  1.00  0.00     0.153 A 
HETATM   19  F   UNL     1      25.042  45.018  54.216  1.00  0.00    -0.203 F 
HETATM   20  C   UNL     1      26.482  46.852  54.525  1.00  0.00     0.087 A 
HETATM   21  C   UNL     1      27.751  47.329  54.823  1.00  0.00     0.119 A 
HETATM   22  F   UNL     1      27.976  48.650  54.820  1.00  0.00    -0.206 F 
HETATM   23  C   UNL     1      28.798  46.459  55.114  1.00  0.00     0.045 A 
HETATM   24  C   UNL     1      28.573  45.081  55.111  1.00  0.00     0.043 A 
ENDBRANCH  16  17
ENDBRANCH   4  16
TORSDOF 5
ENDMDL
MODEL 8
REMARK VINA RESULT:      -7.0      4.216      8.372
REMARK  5 active torsions:
REMARK  status: ('A' for Active; 'I' for Inactive)
REMARK    1  A    between atoms: C_2  and  C_3 
REMARK    2  A    between atoms: C_2  and  C_21 
REMARK       I    between atoms: C_3  and  N_4 
REMARK    3  A    between atoms: N_4  and  C_5 
REMARK    4  A    between atoms: C_8  and  O_9 
REMARK    5  A    between atoms: O_9  and  C_10 
ROOT
HETATM    1  C   UNL     1      22.819  48.994  48.771  1.00  0.00     0.052 A 
HETATM    2  C   UNL     1      24.055  49.634  48.838  1.00  0.00     0.149 A 
HETATM    3  N   UNL     1      25.201  49.037  49.254  1.00  0.00    -0.235 NA
HETATM    4  C   UNL     1      25.116  47.740  49.618  1.00  0.00     0.169 A 
HETATM    5  C   UNL     1      23.948  47.001  49.547  1.00  0.00     0.060 A 
HETATM    6  C   UNL     1      22.783  47.643  49.127  1.00  0.00     0.035 A 
ENDROOT
BRANCH   1   7
HETATM    7  N   UNL     1      21.600  49.604  48.405  1.00  0.00    -0.325 N 
HETATM    8  C   UNL     1      20.831  50.455  49.179  1.00  0.00     0.231 C 
HETATM    9  O   UNL     1      21.163  50.870  50.286  1.00  0.00    -0.272 OA
HETATM   10  H   UNL     1      21.257  49.371  47.481  1.00  0.00     0.169 HD
BRANCH   8  11
HETATM   11  C   UNL     1      19.470  50.843  48.556  1.00  0.00     0.046 C 
HETATM   12  C   UNL     1      19.339  52.376  48.498  1.00  0.00     0.026 C 
HETATM   13  C   UNL     1      19.389  50.249  47.137  1.00  0.00     0.026 C 
BRANCH  11  14
HETATM   14  C   UNL     1      18.368  50.239  49.461  1.00  0.00     0.133 C 
HETATM   15 CL   UNL     1      18.717  48.580  50.029  1.00  0.00    -0.129 Cl
ENDBRANCH  11  14
ENDBRANCH   8  11
ENDBRANCH   1   7
BRANCH   4  16
HETATM   16  O   UNL     1      26.246  47.074  50.065  1.00  0.00    -0.289 OA
BRANCH  16  17
HETATM   17  C   UNL     1      26.173  46.448  51.288  1.00  0.00     0.116 A 
HETATM   18  C   UNL     1      26.232  45.054  51.301  1.00  0.00     0.153 A 
HETATM   19  F   UNL     1      26.407  44.377  50.155  1.00  0.00    -0.203 F 
HETATM   20  C   UNL     1      26.103  44.341  52.487  1.00  0.00     0.087 A 
HETATM   21  C   UNL     1      25.897  45.039  53.669  1.00  0.00     0.119 A 
HETATM   22  F   UNL     1      25.766  44.364  54.819  1.00  0.00    -0.206 F 
HETATM   23  C   UNL     1      25.813  46.428  53.680  1.00  0.00     0.045 A 
HETATM   24  C   UNL     1      25.940  47.138  52.485  1.00  0.00     0.043 A 
ENDBRANCH  16  17
ENDBRANCH   4  16
TORSDOF 5
ENDMDL
MODEL 9
REMARK VINA RESULT:      -6.9     18.799     21.215
REMARK  5 active torsions:
REMARK  status: ('A' for Active; 'I' for Inactive)
REMARK    1  A    between atoms: C_2  and  C_3 
REMARK    2  A    between atoms: C_2  and  C_21 
REMARK       I    between atoms: C_3  and  N_4 
REMARK    3  A    between atoms: N_4  and  C_5 
REMARK    4  A    between atoms: C_8  and  O_9 
REMARK    5  A    between atoms: O_9  and  C_10 
ROOT
HETATM    1  C   UNL     1      37.924  44.827  63.737  1.00  0.00     0.052 A 
HETATM    2  C   UNL     1      37.047  43.823  64.143  1.00  0.00     0.149 A 
HETATM    3  N   UNL     1      37.214  42.505  63.859  1.00  0.00    -0.235 NA
HETATM    4  C   UNL     1      38.306  42.168  63.142  1.00  0.00     0.169 A 
HETATM    5  C   UNL     1      39.261  43.082  62.730  1.00  0.00     0.060 A 
HETATM    6  C   UNL     1      39.058  44.430  63.024  1.00  0.00     0.035 A 
ENDROOT
BRANCH   1   7
HETATM    7  N   UNL     1      37.745  46.209  63.961  1.00  0.00    -0.325 N 
HETATM    8  C   UNL     1      38.215  46.945  65.035  1.00  0.00     0.231 C 
HETATM    9  O   UNL     1      38.944  46.494  65.914  1.00  0.00    -0.272 OA
HETATM   10  H   UNL     1      37.200  46.696  63.261  1.00  0.00     0.169 HD
BRANCH   8  11
HETATM   11  C   UNL     1      37.729  48.412  65.074  1.00  0.00     0.046 C 
HETATM   12  C   UNL     1      38.932  49.365  64.944  1.00  0.00     0.026 C 
HETATM   13  C   UNL     1      36.744  48.638  63.913  1.00  0.00     0.026 C 
BRANCH  11  14
HETATM   14  C   UNL     1      37.020  48.618  66.436  1.00  0.00     0.133 C 
HETATM   15 CL   UNL     1      35.622  47.537  66.701  1.00  0.00    -0.129 Cl
ENDBRANCH  11  14
ENDBRANCH   8  11
ENDBRANCH   1   7
BRANCH   4  16
HETATM   16  O   UNL     1      38.530  40.842  62.808  1.00  0.00    -0.289 OA
BRANCH  16  17
HETATM   17  C   UNL     1      39.393  40.124  63.603  1.00  0.00     0.116 A 
HETATM   18  C   UNL     1      39.932  38.952  63.070  1.00  0.00     0.153 A 
HETATM   19  F   UNL     1      39.643  38.590  61.810  1.00  0.00    -0.203 F 
HETATM   20  C   UNL     1      40.763  38.135  63.829  1.00  0.00     0.087 A 
HETATM   21  C   UNL     1      41.042  38.495  65.139  1.00  0.00     0.119 A 
HETATM   22  F   UNL     1      41.838  37.715  65.882  1.00  0.00    -0.206 F 
HETATM   23  C   UNL     1      40.501  39.648  65.701  1.00  0.00     0.045 A 
HETATM   24  C   UNL     1      39.663  40.462  64.935  1.00  0.00     0.043 A 
ENDBRANCH  16  17
ENDBRANCH   4  16
TORSDOF 5
ENDMDL
MODEL 10
REMARK VINA RESULT:      -6.6      7.986     12.113
REMARK  5 active torsions:
REMARK  status: ('A' for Active; 'I' for Inactive)
REMARK    1  A    between atoms: C_2  and  C_3 
REMARK    2  A    between atoms: C_2  and  C_21 
REMARK       I    between atoms: C_3  and  N_4 
REMARK    3  A    between atoms: N_4  and  C_5 
REMARK    4  A    between atoms: C_8  and  O_9 
REMARK    5  A    between atoms: O_9  and  C_10 
ROOT
HETATM    1  C   UNL     1      16.445  52.410  48.929  1.00  0.00     0.052 A 
HETATM    2  C   UNL     1      16.384  51.034  48.714  1.00  0.00     0.149 A 
HETATM    3  N   UNL     1      17.374  50.166  49.047  1.00  0.00    -0.235 NA
HETATM    4  C   UNL     1      18.475  50.689  49.625  1.00  0.00     0.169 A 
HETATM    5  C   UNL     1      18.618  52.033  49.922  1.00  0.00     0.060 A 
HETATM    6  C   UNL     1      17.591  52.904  49.558  1.00  0.00     0.035 A 
ENDROOT
BRANCH   1   7
HETATM    7  N   UNL     1      15.463  53.344  48.537  1.00  0.00    -0.325 N 
HETATM    8  C   UNL     1      14.473  53.893  49.335  1.00  0.00     0.231 C 
HETATM    9  O   UNL     1      14.373  53.698  50.542  1.00  0.00    -0.272 OA
HETATM   10  H   UNL     1      15.488  53.620  47.564  1.00  0.00     0.169 HD
BRANCH   8  11
HETATM   11  C   UNL     1      13.452  54.776  48.580  1.00  0.00     0.046 C 
HETATM   12  C   UNL     1      12.038  54.534  49.139  1.00  0.00     0.026 C 
HETATM   13  C   UNL     1      13.849  56.253  48.758  1.00  0.00     0.026 C 
BRANCH  11  14
HETATM   14  C   UNL     1      13.521  54.371  47.086  1.00  0.00     0.133 C 
HETATM   15 CL   UNL     1      13.821  55.737  45.973  1.00  0.00    -0.129 Cl
ENDBRANCH  11  14
ENDBRANCH   8  11
ENDBRANCH   1   7
BRANCH   4  16
HETATM   16  O   UNL     1      19.528  49.859  49.978  1.00  0.00    -0.289 OA
BRANCH  16  17
HETATM   17  C   UNL     1      20.732  50.056  49.341  1.00  0.00     0.116 A 
HETATM   18  C   UNL     1      21.713  50.772  50.029  1.00  0.00     0.153 A 
HETATM   19  F   UNL     1      21.483  51.197  51.281  1.00  0.00    -0.203 F 
HETATM   20  C   UNL     1      22.934  51.068  49.435  1.00  0.00     0.087 A 
HETATM   21  C   UNL     1      23.164  50.651  48.131  1.00  0.00     0.119 A 
HETATM   22  F   UNL     1      24.335  50.934  47.545  1.00  0.00    -0.206 F 
HETATM   23  C   UNL     1      22.194  49.954  47.417  1.00  0.00     0.045 A 
HETATM   24  C   UNL     1      20.968  49.663  48.017  1.00  0.00     0.043 A 
ENDBRANCH  16  17
ENDBRANCH   4  16
TORSDOF 5
ENDMDL
