MODEL 1
REMARK VINA RESULT:      -9.1      0.000      0.000
REMARK  4 active torsions:
REMARK  status: ('A' for Active; 'I' for Inactive)
REMARK    1  A    between atoms: C_4  and  C_5 
REMARK    2  A    between atoms: C_9  and  C_10 
REMARK       I    between atoms: C_10  and  N_11 
REMARK    3  A    between atoms: N_11  and  C_12 
REMARK    4  A    between atoms: C_13  and  O_14 
ROOT
HETATM    1  C   UNL     1      25.844  44.838  52.145  1.00  0.00     0.270 C 
HETATM    2  N   UNL     1      27.143  44.654  52.541  1.00  0.00    -0.344 N 
HETATM    3  O   UNL     1      24.929  44.135  52.560  1.00  0.00    -0.266 OA
HETATM    4  H   UNL     1      27.894  45.126  52.058  1.00  0.00     0.163 HD
ENDROOT
BRANCH   1   5
HETATM    5  C   UNL     1      25.636  45.884  51.184  1.00  0.00     0.120 A 
HETATM    6  N   UNL     1      26.561  46.168  50.216  1.00  0.00    -0.272 N 
HETATM    7  N   UNL     1      26.207  47.165  49.391  1.00  0.00    -0.173 NA
HETATM    8  H   UNL     1      27.456  45.707  50.075  1.00  0.00     0.189 HD
HETATM    9  C   UNL     1      24.988  47.522  49.816  1.00  0.00     0.096 A 
HETATM   10  C   UNL     1      24.596  46.761  50.946  1.00  0.00     0.071 A 
BRANCH   9  11
HETATM   11  C   UNL     1      24.181  48.582  49.129  1.00  0.00     0.035 A 
HETATM   12  S   UNL     1      22.477  48.578  49.011  1.00  0.00    -0.093 SA
HETATM   13  C   UNL     1      22.462  50.022  48.093  1.00  0.00    -0.021 A 
HETATM   14  C   UNL     1      21.176  50.601  47.611  1.00  0.00     0.056 C 
HETATM   15  C   UNL     1      23.737  50.513  47.904  1.00  0.00     0.015 A 
HETATM   16  C   UNL     1      24.730  49.681  48.500  1.00  0.00     0.022 A 
ENDBRANCH   9  11
ENDBRANCH   1   5
BRANCH   2  17
HETATM   17  C   UNL     1      27.498  43.672  53.543  1.00  0.00     0.147 C 
HETATM   18  C   UNL     1      28.078  42.349  52.957  1.00  0.00     0.149 C 
HETATM   19  C   UNL     1      29.065  41.812  54.009  1.00  0.00     0.073 C 
HETATM   20  C   UNL     1      29.507  43.076  54.690  1.00  0.00    -0.047 A 
HETATM   21  C   UNL     1      28.623  44.129  54.431  1.00  0.00    -0.027 A 
HETATM   22  C   UNL     1      30.602  43.247  55.521  1.00  0.00     0.008 A 
HETATM   23  C   UNL     1      28.814  45.374  55.015  1.00  0.00     0.010 A 
HETATM   24  C   UNL     1      29.924  45.560  55.841  1.00  0.00     0.001 A 
HETATM   25  C   UNL     1      30.814  44.503  56.091  1.00  0.00     0.001 A 
BRANCH  18  26
HETATM   26  O   UNL     1      28.793  42.575  51.729  1.00  0.00    -0.393 OA
HETATM   27  H   UNL     1      29.738  42.539  51.959  1.00  0.00     0.210 HD
ENDBRANCH  18  26
ENDBRANCH   2  17
TORSDOF 4
ENDMDL
MODEL 2
REMARK VINA RESULT:      -8.7      3.344      9.817
REMARK  4 active torsions:
REMARK  status: ('A' for Active; 'I' for Inactive)
REMARK    1  A    between atoms: C_4  and  C_5 
REMARK    2  A    between atoms: C_9  and  C_10 
REMARK       I    between atoms: C_10  and  N_11 
REMARK    3  A    between atoms: N_11  and  C_12 
REMARK    4  A    between atoms: C_13  and  O_14 
ROOT
HETATM    1  C   UNL     1      22.379  47.623  48.528  1.00  0.00     0.270 C 
HETATM    2  N   UNL     1      21.256  47.943  49.245  1.00  0.00    -0.344 N 
HETATM    3  O   UNL     1      22.372  47.539  47.305  1.00  0.00    -0.266 OA
HETATM    4  H   UNL     1      21.245  47.836  50.249  1.00  0.00     0.163 HD
ENDROOT
BRANCH   1   5
HETATM    5  C   UNL     1      23.553  47.358  49.312  1.00  0.00     0.120 A 
HETATM    6  N   UNL     1      24.461  48.340  49.605  1.00  0.00    -0.272 N 
HETATM    7  N   UNL     1      25.493  47.928  50.358  1.00  0.00    -0.173 NA
HETATM    8  H   UNL     1      24.421  49.313  49.314  1.00  0.00     0.189 HD
HETATM    9  C   UNL     1      25.229  46.637  50.593  1.00  0.00     0.096 A 
HETATM   10  C   UNL     1      24.036  46.230  49.945  1.00  0.00     0.071 A 
BRANCH   9  11
HETATM   11  C   UNL     1      26.110  45.787  51.459  1.00  0.00     0.035 A 
HETATM   12  S   UNL     1      26.304  45.994  53.143  1.00  0.00    -0.093 SA
HETATM   13  C   UNL     1      27.437  44.717  53.246  1.00  0.00    -0.021 A 
HETATM   14  C   UNL     1      28.062  44.362  54.552  1.00  0.00     0.056 C 
HETATM   15  C   UNL     1      27.643  44.124  52.018  1.00  0.00     0.015 A 
HETATM   16  C   UNL     1      26.878  44.743  50.985  1.00  0.00     0.022 A 
ENDBRANCH   9  11
ENDBRANCH   1   5
BRANCH   2  17
HETATM   17  C   UNL     1      20.012  48.287  48.590  1.00  0.00     0.147 C 
HETATM   18  C   UNL     1      18.746  47.693  49.280  1.00  0.00     0.149 C 
HETATM   19  C   UNL     1      17.607  48.696  49.020  1.00  0.00     0.073 C 
HETATM   20  C   UNL     1      18.360  49.989  48.882  1.00  0.00    -0.047 A 
HETATM   21  C   UNL     1      19.719  49.762  48.636  1.00  0.00    -0.027 A 
HETATM   22  C   UNL     1      17.844  51.273  48.928  1.00  0.00     0.008 A 
HETATM   23  C   UNL     1      20.586  50.823  48.418  1.00  0.00     0.010 A 
HETATM   24  C   UNL     1      20.078  52.123  48.478  1.00  0.00     0.001 A 
HETATM   25  C   UNL     1      18.716  52.346  48.733  1.00  0.00     0.001 A 
BRANCH  18  26
HETATM   26  O   UNL     1      18.924  47.560  50.701  1.00  0.00    -0.393 OA
HETATM   27  H   UNL     1      19.527  46.806  50.827  1.00  0.00     0.210 HD
ENDBRANCH  18  26
ENDBRANCH   2  17
TORSDOF 4
ENDMDL
MODEL 3
REMARK VINA RESULT:      -8.4      2.875      9.090
REMARK  4 active torsions:
REMARK  status: ('A' for Active; 'I' for Inactive)
REMARK    1  A    between atoms: C_4  and  C_5 
REMARK    2  A    between atoms: C_9  and  C_10 
REMARK       I    between atoms: C_10  and  N_11 
REMARK    3  A    between atoms: N_11  and  C_12 
REMARK    4  A    between atoms: C_13  and  O_14 
ROOT
HETATM    1  C   UNL     1      24.180  45.657  49.504  1.00  0.00     0.270 C 
HETATM    2  N   UNL     1      23.397  46.781  49.528  1.00  0.00    -0.344 N 
HETATM    3  O   UNL     1      24.302  44.967  48.497  1.00  0.00    -0.266 OA
HETATM    4  H   UNL     1      23.176  47.229  50.405  1.00  0.00     0.163 HD
ENDROOT
BRANCH   1   5
HETATM    5  C   UNL     1      24.816  45.325  50.747  1.00  0.00     0.120 A 
HETATM    6  N   UNL     1      24.132  44.725  51.770  1.00  0.00    -0.272 N 
HETATM    7  N   UNL     1      24.877  44.470  52.856  1.00  0.00    -0.173 NA
HETATM    8  H   UNL     1      23.149  44.466  51.775  1.00  0.00     0.189 HD
HETATM    9  C   UNL     1      26.103  44.889  52.516  1.00  0.00     0.096 A 
HETATM   10  C   UNL     1      26.111  45.448  51.213  1.00  0.00     0.071 A 
BRANCH   9  11
HETATM   11  C   UNL     1      27.281  44.739  53.431  1.00  0.00     0.035 A 
HETATM   12  S   UNL     1      28.460  43.511  53.299  1.00  0.00    -0.093 SA
HETATM   13  C   UNL     1      29.302  44.066  54.681  1.00  0.00    -0.021 A 
HETATM   14  C   UNL     1      30.523  43.358  55.159  1.00  0.00     0.056 C 
HETATM   15  C   UNL     1      28.706  45.188  55.219  1.00  0.00     0.015 A 
HETATM   16  C   UNL     1      27.538  45.576  54.498  1.00  0.00     0.022 A 
ENDBRANCH   9  11
ENDBRANCH   1   5
BRANCH   2  17
HETATM   17  C   UNL     1      22.735  47.269  48.336  1.00  0.00     0.147 C 
HETATM   18  C   UNL     1      21.353  46.603  48.061  1.00  0.00     0.149 C 
HETATM   19  C   UNL     1      20.499  47.668  47.349  1.00  0.00     0.073 C 
HETATM   20  C   UNL     1      21.093  48.943  47.878  1.00  0.00    -0.047 A 
HETATM   21  C   UNL     1      22.358  48.722  48.435  1.00  0.00    -0.027 A 
HETATM   22  C   UNL     1      20.549  50.215  47.816  1.00  0.00     0.008 A 
HETATM   23  C   UNL     1      23.109  49.779  48.929  1.00  0.00     0.010 A 
HETATM   24  C   UNL     1      22.561  51.063  48.885  1.00  0.00     0.001 A 
HETATM   25  C   UNL     1      21.289  51.279  48.334  1.00  0.00     0.001 A 
BRANCH  18  26
HETATM   26  O   UNL     1      20.689  46.222  49.279  1.00  0.00    -0.393 OA
HETATM   27  H   UNL     1      21.350  45.737  49.804  1.00  0.00     0.210 HD
ENDBRANCH  18  26
ENDBRANCH   2  17
TORSDOF 4
ENDMDL
MODEL 4
REMARK VINA RESULT:      -8.3      5.253      7.450
REMARK  4 active torsions:
REMARK  status: ('A' for Active; 'I' for Inactive)
REMARK    1  A    between atoms: C_4  and  C_5 
REMARK    2  A    between atoms: C_9  and  C_10 
REMARK       I    between atoms: C_10  and  N_11 
REMARK    3  A    between atoms: N_11  and  C_12 
REMARK    4  A    between atoms: C_13  and  O_14 
ROOT
HETATM    1  C   UNL     1      27.802  43.288  51.654  1.00  0.00     0.270 C 
HETATM    2  N   UNL     1      28.168  43.313  52.974  1.00  0.00    -0.344 N 
HETATM    3  O   UNL     1      27.762  44.303  50.967  1.00  0.00    -0.266 OA
HETATM    4  H   UNL     1      28.026  42.501  53.557  1.00  0.00     0.163 HD
ENDROOT
BRANCH   1   5
HETATM    5  C   UNL     1      27.435  41.997  51.143  1.00  0.00     0.120 A 
HETATM    6  N   UNL     1      26.264  41.386  51.502  1.00  0.00    -0.272 N 
HETATM    7  N   UNL     1      26.067  40.191  50.924  1.00  0.00    -0.173 NA
HETATM    8  H   UNL     1      25.561  41.745  52.142  1.00  0.00     0.189 HD
HETATM    9  C   UNL     1      27.135  40.033  50.131  1.00  0.00     0.096 A 
HETATM   10  C   UNL     1      28.026  41.128  50.247  1.00  0.00     0.071 A 
BRANCH   9  11
HETATM   11  C   UNL     1      27.297  38.838  49.240  1.00  0.00     0.035 A 
HETATM   12  S   UNL     1      28.207  38.825  47.794  1.00  0.00    -0.093 SA
HETATM   13  C   UNL     1      27.804  37.195  47.467  1.00  0.00    -0.021 A 
HETATM   14  C   UNL     1      28.308  36.521  46.237  1.00  0.00     0.056 C 
HETATM   15  C   UNL     1      27.010  36.661  48.461  1.00  0.00     0.015 A 
HETATM   16  C   UNL     1      26.715  37.611  49.484  1.00  0.00     0.022 A 
ENDBRANCH   9  11
ENDBRANCH   1   5
BRANCH   2  17
HETATM   17  C   UNL     1      28.613  44.533  53.613  1.00  0.00     0.147 C 
HETATM   18  C   UNL     1      27.467  45.360  54.271  1.00  0.00     0.149 C 
HETATM   19  C   UNL     1      28.098  46.083  55.475  1.00  0.00     0.073 C 
HETATM   20  C   UNL     1      29.220  45.153  55.840  1.00  0.00    -0.047 A 
HETATM   21  C   UNL     1      29.516  44.277  54.789  1.00  0.00    -0.027 A 
HETATM   22  C   UNL     1      29.949  45.133  57.017  1.00  0.00     0.008 A 
HETATM   23  C   UNL     1      30.562  43.371  54.895  1.00  0.00     0.010 A 
HETATM   24  C   UNL     1      31.294  43.334  56.085  1.00  0.00     0.001 A 
HETATM   25  C   UNL     1      30.987  44.208  57.139  1.00  0.00     0.001 A 
BRANCH  18  26
HETATM   26  O   UNL     1      26.404  44.516  54.748  1.00  0.00    -0.393 OA
HETATM   27  H   UNL     1      26.800  43.942  55.426  1.00  0.00     0.210 HD
ENDBRANCH  18  26
ENDBRANCH   2  17
TORSDOF 4
ENDMDL
MODEL 5
REMARK VINA RESULT:      -8.2      2.897      8.489
REMARK  4 active torsions:
REMARK  status: ('A' for Active; 'I' for Inactive)
REMARK    1  A    between atoms: C_4  and  C_5 
REMARK    2  A    between atoms: C_9  and  C_10 
REMARK       I    between atoms: C_10  and  N_11 
REMARK    3  A    between atoms: N_11  and  C_12 
REMARK    4  A    between atoms: C_13  and  O_14 
ROOT
HETATM    1  C   UNL     1      26.346  43.895  50.518  1.00  0.00     0.270 C 
HETATM    2  N   UNL     1      25.109  44.483  50.571  1.00  0.00    -0.344 N 
HETATM    3  O   UNL     1      26.849  43.526  49.462  1.00  0.00    -0.266 OA
HETATM    4  H   UNL     1      24.647  44.617  51.459  1.00  0.00     0.163 HD
ENDROOT
BRANCH   1   5
HETATM    5  C   UNL     1      26.992  43.708  51.786  1.00  0.00     0.120 A 
HETATM    6  N   UNL     1      26.902  42.528  52.474  1.00  0.00    -0.272 N 
HETATM    7  N   UNL     1      27.576  42.514  53.634  1.00  0.00    -0.173 NA
HETATM    8  H   UNL     1      26.391  41.696  52.192  1.00  0.00     0.189 HD
HETATM    9  C   UNL     1      28.156  43.720  53.688  1.00  0.00     0.096 A 
HETATM   10  C   UNL     1      27.806  44.508  52.564  1.00  0.00     0.071 A 
BRANCH   9  11
HETATM   11  C   UNL     1      29.067  44.119  54.810  1.00  0.00     0.035 A 
HETATM   12  S   UNL     1      28.785  45.431  55.867  1.00  0.00    -0.093 SA
HETATM   13  C   UNL     1      30.252  45.167  56.707  1.00  0.00    -0.021 A 
HETATM   14  C   UNL     1      30.651  46.057  57.833  1.00  0.00     0.056 C 
HETATM   15  C   UNL     1      30.932  44.077  56.205  1.00  0.00     0.015 A 
HETATM   16  C   UNL     1      30.249  43.472  55.109  1.00  0.00     0.022 A 
ENDBRANCH   9  11
ENDBRANCH   1   5
BRANCH   2  17
HETATM   17  C   UNL     1      24.361  44.783  49.369  1.00  0.00     0.147 C 
HETATM   18  C   UNL     1      22.992  44.043  49.273  1.00  0.00     0.149 C 
HETATM   19  C   UNL     1      22.057  44.975  48.480  1.00  0.00     0.073 C 
HETATM   20  C   UNL     1      22.630  46.328  48.796  1.00  0.00    -0.047 A 
HETATM   21  C   UNL     1      23.933  46.224  49.296  1.00  0.00    -0.027 A 
HETATM   22  C   UNL     1      22.034  47.562  48.599  1.00  0.00     0.008 A 
HETATM   23  C   UNL     1      24.669  47.362  49.597  1.00  0.00     0.010 A 
HETATM   24  C   UNL     1      24.070  48.610  49.417  1.00  0.00     0.001 A 
HETATM   25  C   UNL     1      22.760  48.710  48.923  1.00  0.00     0.001 A 
BRANCH  18  26
HETATM   26  O   UNL     1      22.416  43.812  50.571  1.00  0.00    -0.393 OA
HETATM   27  H   UNL     1      22.706  44.554  51.130  1.00  0.00     0.210 HD
ENDBRANCH  18  26
ENDBRANCH   2  17
TORSDOF 4
ENDMDL
MODEL 6
REMARK VINA RESULT:      -7.9      5.434      8.800
REMARK  4 active torsions:
REMARK  status: ('A' for Active; 'I' for Inactive)
REMARK    1  A    between atoms: C_4  and  C_5 
REMARK    2  A    between atoms: C_9  and  C_10 
REMARK       I    between atoms: C_10  and  N_11 
REMARK    3  A    between atoms: N_11  and  C_12 
REMARK    4  A    between atoms: C_13  and  O_14 
ROOT
HETATM    1  C   UNL     1      26.957  42.113  51.454  1.00  0.00     0.270 C 
HETATM    2  N   UNL     1      27.254  41.130  50.547  1.00  0.00    -0.344 N 
HETATM    3  O   UNL     1      25.882  42.703  51.451  1.00  0.00    -0.266 OA
HETATM    4  H   UNL     1      28.198  40.785  50.460  1.00  0.00     0.163 HD
ENDROOT
BRANCH   1   5
HETATM    5  C   UNL     1      28.006  42.428  52.383  1.00  0.00     0.120 A 
HETATM    6  N   UNL     1      29.316  42.131  52.119  1.00  0.00    -0.272 N 
HETATM    7  N   UNL     1      30.171  42.505  53.084  1.00  0.00    -0.173 NA
HETATM    8  H   UNL     1      29.681  41.672  51.289  1.00  0.00     0.189 HD
HETATM    9  C   UNL     1      29.391  43.098  53.997  1.00  0.00     0.096 A 
HETATM   10  C   UNL     1      28.028  43.059  53.611  1.00  0.00     0.071 A 
BRANCH   9  11
HETATM   11  C   UNL     1      29.952  43.726  55.238  1.00  0.00     0.035 A 
HETATM   12  S   UNL     1      29.413  45.204  55.904  1.00  0.00    -0.093 SA
HETATM   13  C   UNL     1      30.569  45.145  57.163  1.00  0.00    -0.021 A 
HETATM   14  C   UNL     1      30.651  46.241  58.169  1.00  0.00     0.056 C 
HETATM   15  C   UNL     1      31.336  44.000  57.091  1.00  0.00     0.015 A 
HETATM   16  C   UNL     1      30.981  43.182  55.978  1.00  0.00     0.022 A 
ENDBRANCH   9  11
ENDBRANCH   1   5
BRANCH   2  17
HETATM   17  C   UNL     1      26.276  40.670  49.583  1.00  0.00     0.147 C 
HETATM   18  C   UNL     1      26.282  41.467  48.244  1.00  0.00     0.149 C 
HETATM   19  C   UNL     1      25.850  40.471  47.152  1.00  0.00     0.073 C 
HETATM   20  C   UNL     1      26.308  39.162  47.729  1.00  0.00    -0.047 A 
HETATM   21  C   UNL     1      26.548  39.270  49.104  1.00  0.00    -0.027 A 
HETATM   22  C   UNL     1      26.451  37.954  47.068  1.00  0.00     0.008 A 
HETATM   23  C   UNL     1      26.923  38.158  49.846  1.00  0.00     0.010 A 
HETATM   24  C   UNL     1      27.085  36.939  49.185  1.00  0.00     0.001 A 
HETATM   25  C   UNL     1      26.853  36.838  47.805  1.00  0.00     0.001 A 
BRANCH  18  26
HETATM   26  O   UNL     1      27.593  41.962  47.921  1.00  0.00    -0.393 OA
HETATM   27  H   UNL     1      28.117  41.185  47.658  1.00  0.00     0.210 HD
ENDBRANCH  18  26
ENDBRANCH   2  17
TORSDOF 4
ENDMDL
MODEL 7
REMARK VINA RESULT:      -7.8     17.277     19.315
REMARK  4 active torsions:
REMARK  status: ('A' for Active; 'I' for Inactive)
REMARK    1  A    between atoms: C_4  and  C_5 
REMARK    2  A    between atoms: C_9  and  C_10 
REMARK       I    between atoms: C_10  and  N_11 
REMARK    3  A    between atoms: N_11  and  C_12 
REMARK    4  A    between atoms: C_13  and  O_14 
ROOT
HETATM    1  C   UNL     1      37.356  45.779  64.112  1.00  0.00     0.270 C 
HETATM    2  N   UNL     1      37.394  46.193  65.418  1.00  0.00    -0.344 N 
HETATM    3  O   UNL     1      36.628  46.310  63.279  1.00  0.00    -0.266 OA
HETATM    4  H   UNL     1      37.865  45.635  66.114  1.00  0.00     0.163 HD
ENDROOT
BRANCH   1   5
HETATM    5  C   UNL     1      38.199  44.661  63.797  1.00  0.00     0.120 A 
HETATM    6  N   UNL     1      39.442  44.826  63.249  1.00  0.00    -0.272 N 
HETATM    7  N   UNL     1      40.105  43.680  63.029  1.00  0.00    -0.173 NA
HETATM    8  H   UNL     1      39.888  45.707  63.005  1.00  0.00     0.189 HD
HETATM    9  C   UNL     1      39.274  42.733  63.484  1.00  0.00     0.096 A 
HETATM   10  C   UNL     1      38.063  43.295  63.957  1.00  0.00     0.071 A 
BRANCH   9  11
HETATM   11  C   UNL     1      39.646  41.280  63.485  1.00  0.00     0.035 A 
HETATM   12  S   UNL     1      40.629  40.533  64.665  1.00  0.00    -0.093 SA
HETATM   13  C   UNL     1      40.550  39.016  63.879  1.00  0.00    -0.021 A 
HETATM   14  C   UNL     1      41.273  37.836  64.434  1.00  0.00     0.056 C 
HETATM   15  C   UNL     1      39.762  39.073  62.748  1.00  0.00     0.015 A 
HETATM   16  C   UNL     1      39.241  40.381  62.520  1.00  0.00     0.022 A 
ENDBRANCH   9  11
ENDBRANCH   1   5
BRANCH   2  17
HETATM   17  C   UNL     1      36.638  47.341  65.871  1.00  0.00     0.147 C 
HETATM   18  C   UNL     1      36.050  47.187  67.306  1.00  0.00     0.149 C 
HETATM   19  C   UNL     1      36.006  48.605  67.905  1.00  0.00     0.073 C 
HETATM   20  C   UNL     1      37.130  49.283  67.174  1.00  0.00    -0.047 A 
HETATM   21  C   UNL     1      37.488  48.573  66.022  1.00  0.00    -0.027 A 
HETATM   22  C   UNL     1      37.748  50.478  67.501  1.00  0.00     0.008 A 
HETATM   23  C   UNL     1      38.468  49.059  65.167  1.00  0.00     0.010 A 
HETATM   24  C   UNL     1      39.108  50.255  65.498  1.00  0.00     0.001 A 
HETATM   25  C   UNL     1      38.752  50.959  66.658  1.00  0.00     0.001 A 
BRANCH  18  26
HETATM   26  O   UNL     1      36.882  46.362  68.140  1.00  0.00    -0.393 OA
HETATM   27  H   UNL     1      36.294  45.985  68.817  1.00  0.00     0.210 HD
ENDBRANCH  18  26
ENDBRANCH   2  17
TORSDOF 4
ENDMDL
MODEL 8
REMARK VINA RESULT:      -7.8      5.479      8.122
REMARK  4 active torsions:
REMARK  status: ('A' for Active; 'I' for Inactive)
REMARK    1  A    between atoms: C_4  and  C_5 
REMARK    2  A    between atoms: C_9  and  C_10 
REMARK       I    between atoms: C_10  and  N_11 
REMARK    3  A    between atoms: N_11  and  C_12 
REMARK    4  A    between atoms: C_13  and  O_14 
ROOT
HETATM    1  C   UNL     1      27.400  42.279  50.186  1.00  0.00     0.270 C 
HETATM    2  N   UNL     1      27.719  42.461  51.506  1.00  0.00    -0.344 N 
HETATM    3  O   UNL     1      27.213  43.221  49.423  1.00  0.00    -0.266 OA
HETATM    4  H   UNL     1      27.697  41.682  52.148  1.00  0.00     0.163 HD
ENDROOT
BRANCH   1   5
HETATM    5  C   UNL     1      27.263  40.912  49.770  1.00  0.00     0.120 A 
HETATM    6  N   UNL     1      26.531  40.008  50.493  1.00  0.00    -0.272 N 
HETATM    7  N   UNL     1      26.493  38.777  49.959  1.00  0.00    -0.173 NA
HETATM    8  H   UNL     1      26.035  40.183  51.362  1.00  0.00     0.189 HD
HETATM    9  C   UNL     1      27.199  38.893  48.826  1.00  0.00     0.096 A 
HETATM   10  C   UNL     1      27.715  40.203  48.674  1.00  0.00     0.071 A 
BRANCH   9  11
HETATM   11  C   UNL     1      27.367  37.749  47.871  1.00  0.00     0.035 A 
HETATM   12  S   UNL     1      26.301  36.420  47.754  1.00  0.00    -0.093 SA
HETATM   13  C   UNL     1      27.247  35.671  46.542  1.00  0.00    -0.021 A 
HETATM   14  C   UNL     1      26.844  34.355  45.971  1.00  0.00     0.056 C 
HETATM   15  C   UNL     1      28.346  36.438  46.213  1.00  0.00     0.015 A 
HETATM   16  C   UNL     1      28.416  37.637  46.982  1.00  0.00     0.022 A 
ENDBRANCH   9  11
ENDBRANCH   1   5
BRANCH   2  17
HETATM   17  C   UNL     1      27.942  43.781  52.057  1.00  0.00     0.147 C 
HETATM   18  C   UNL     1      26.657  44.455  52.628  1.00  0.00     0.149 C 
HETATM   19  C   UNL     1      27.126  45.358  53.784  1.00  0.00     0.073 C 
HETATM   20  C   UNL     1      28.373  44.654  54.239  1.00  0.00    -0.047 A 
HETATM   21  C   UNL     1      28.839  43.764  53.265  1.00  0.00    -0.027 A 
HETATM   22  C   UNL     1      29.060  44.841  55.427  1.00  0.00     0.008 A 
HETATM   23  C   UNL     1      30.014  43.052  53.459  1.00  0.00     0.010 A 
HETATM   24  C   UNL     1      30.706  43.223  54.661  1.00  0.00     0.001 A 
HETATM   25  C   UNL     1      30.230  44.110  55.639  1.00  0.00     0.001 A 
BRANCH  18  26
HETATM   26  O   UNL     1      25.731  43.485  53.150  1.00  0.00    -0.393 OA
HETATM   27  H   UNL     1      26.163  43.095  53.931  1.00  0.00     0.210 HD
ENDBRANCH  18  26
ENDBRANCH   2  17
TORSDOF 4
ENDMDL
MODEL 9
REMARK VINA RESULT:      -7.8      2.591      3.784
REMARK  4 active torsions:
REMARK  status: ('A' for Active; 'I' for Inactive)
REMARK    1  A    between atoms: C_4  and  C_5 
REMARK    2  A    between atoms: C_9  and  C_10 
REMARK       I    between atoms: C_10  and  N_11 
REMARK    3  A    between atoms: N_11  and  C_12 
REMARK    4  A    between atoms: C_13  and  O_14 
ROOT
HETATM    1  C   UNL     1      23.860  45.825  49.311  1.00  0.00     0.270 C 
HETATM    2  N   UNL     1      24.689  45.618  50.383  1.00  0.00    -0.344 N 
HETATM    3  O   UNL     1      23.672  44.968  48.454  1.00  0.00    -0.266 OA
HETATM    4  H   UNL     1      24.960  46.390  50.973  1.00  0.00     0.163 HD
ENDROOT
BRANCH   1   5
HETATM    5  C   UNL     1      23.257  47.126  49.244  1.00  0.00     0.120 A 
HETATM    6  N   UNL     1      23.913  48.248  49.674  1.00  0.00    -0.272 N 
HETATM    7  N   UNL     1      23.215  49.385  49.528  1.00  0.00    -0.173 NA
HETATM    8  H   UNL     1      24.845  48.291  50.077  1.00  0.00     0.189 HD
HETATM    9  C   UNL     1      22.073  48.993  48.948  1.00  0.00     0.096 A 
HETATM   10  C   UNL     1      22.046  47.588  48.767  1.00  0.00     0.071 A 
BRANCH   9  11
HETATM   11  C   UNL     1      21.007  49.967  48.546  1.00  0.00     0.035 A 
HETATM   12  S   UNL     1      19.763  49.633  47.424  1.00  0.00    -0.093 SA
HETATM   13  C   UNL     1      19.119  51.212  47.552  1.00  0.00    -0.021 A 
HETATM   14  C   UNL     1      17.931  51.615  46.748  1.00  0.00     0.056 C 
HETATM   15  C   UNL     1      19.828  51.974  48.459  1.00  0.00     0.015 A 
HETATM   16  C   UNL     1      20.919  51.256  49.031  1.00  0.00     0.022 A 
ENDBRANCH   9  11
ENDBRANCH   1   5
BRANCH   2  17
HETATM   17  C   UNL     1      25.325  44.338  50.611  1.00  0.00     0.147 C 
HETATM   18  C   UNL     1      26.655  44.141  49.822  1.00  0.00     0.149 C 
HETATM   19  C   UNL     1      27.536  43.224  50.691  1.00  0.00     0.073 C 
HETATM   20  C   UNL     1      27.037  43.536  52.073  1.00  0.00    -0.047 A 
HETATM   21  C   UNL     1      25.787  44.164  52.033  1.00  0.00    -0.027 A 
HETATM   22  C   UNL     1      27.648  43.233  53.278  1.00  0.00     0.008 A 
HETATM   23  C   UNL     1      25.118  44.487  53.205  1.00  0.00     0.010 A 
HETATM   24  C   UNL     1      25.734  44.198  54.425  1.00  0.00     0.001 A 
HETATM   25  C   UNL     1      26.992  43.577  54.461  1.00  0.00     0.001 A 
BRANCH  18  26
HETATM   26  O   UNL     1      27.348  45.385  49.621  1.00  0.00    -0.393 OA
HETATM   27  H   UNL     1      26.749  46.081  49.943  1.00  0.00     0.210 HD
ENDBRANCH  18  26
ENDBRANCH   2  17
TORSDOF 4
ENDMDL
MODEL 10
REMARK VINA RESULT:      -7.8      4.222      6.639
REMARK  4 active torsions:
REMARK  status: ('A' for Active; 'I' for Inactive)
REMARK    1  A    between atoms: C_4  and  C_5 
REMARK    2  A    between atoms: C_9  and  C_10 
REMARK       I    between atoms: C_10  and  N_11 
REMARK    3  A    between atoms: N_11  and  C_12 
REMARK    4  A    between atoms: C_13  and  O_14 
ROOT
HETATM    1  C   UNL     1      22.593  48.282  48.804  1.00  0.00     0.270 C 
HETATM    2  N   UNL     1      22.997  47.308  49.679  1.00  0.00    -0.344 N 
HETATM    3  O   UNL     1      23.326  48.712  47.919  1.00  0.00    -0.266 OA
HETATM    4  H   UNL     1      22.445  47.098  50.497  1.00  0.00     0.163 HD
ENDROOT
BRANCH   1   5
HETATM    5  C   UNL     1      21.267  48.789  49.019  1.00  0.00     0.120 A 
HETATM    6  N   UNL     1      20.304  48.045  49.646  1.00  0.00    -0.272 N 
HETATM    7  N   UNL     1      19.124  48.671  49.780  1.00  0.00    -0.173 NA
HETATM    8  H   UNL     1      20.402  47.100  50.005  1.00  0.00     0.189 HD
HETATM    9  C   UNL     1      19.337  49.883  49.250  1.00  0.00     0.096 A 
HETATM   10  C   UNL     1      20.656  49.997  48.745  1.00  0.00     0.071 A 
BRANCH   9  11
HETATM   11  C   UNL     1      18.281  50.947  49.241  1.00  0.00     0.035 A 
HETATM   12  S   UNL     1      16.784  50.820  48.429  1.00  0.00    -0.093 SA
HETATM   13  C   UNL     1      16.309  52.394  48.899  1.00  0.00    -0.021 A 
HETATM   14  C   UNL     1      14.997  52.951  48.465  1.00  0.00     0.056 C 
HETATM   15  C   UNL     1      17.268  52.997  49.687  1.00  0.00     0.015 A 
HETATM   16  C   UNL     1      18.407  52.162  49.883  1.00  0.00     0.022 A 
ENDBRANCH   9  11
ENDBRANCH   1   5
BRANCH   2  17
HETATM   17  C   UNL     1      24.288  46.666  49.553  1.00  0.00     0.147 C 
HETATM   18  C   UNL     1      25.369  47.218  50.532  1.00  0.00     0.149 C 
HETATM   19  C   UNL     1      26.309  46.037  50.839  1.00  0.00     0.073 C 
HETATM   20  C   UNL     1      25.395  44.859  50.658  1.00  0.00    -0.047 A 
HETATM   21  C   UNL     1      24.252  45.210  49.929  1.00  0.00    -0.027 A 
HETATM   22  C   UNL     1      25.604  43.557  51.080  1.00  0.00     0.008 A 
HETATM   23  C   UNL     1      23.303  44.254  49.597  1.00  0.00     0.010 A 
HETATM   24  C   UNL     1      23.498  42.941  50.032  1.00  0.00     0.001 A 
HETATM   25  C   UNL     1      24.640  42.596  50.771  1.00  0.00     0.001 A 
BRANCH  18  26
HETATM   26  O   UNL     1      24.789  47.676  51.766  1.00  0.00    -0.393 OA
HETATM   27  H   UNL     1      25.528  48.022  52.297  1.00  0.00     0.210 HD
ENDBRANCH  18  26
ENDBRANCH   2  17
TORSDOF 4
ENDMDL
