MODEL 1
REMARK VINA RESULT:      -8.9      0.000      0.000
REMARK  6 active torsions:
REMARK  status: ('A' for Active; 'I' for Inactive)
REMARK    1  A    between atoms: O_2  and  C_3 
REMARK    2  A    between atoms: C_5  and  N_6 
REMARK    3  A    between atoms: C_7  and  C_9 
REMARK    4  A    between atoms: C_7  and  O_8 
REMARK       I    between atoms: C_9  and  N_10 
REMARK    5  A    between atoms: N_10  and  C_11 
REMARK    6  A    between atoms: C_11  and  C_12 
ROOT
HETATM    1  N   UNL     1      26.937  41.825  49.849  1.00  0.00    -0.254 N 
HETATM    2  C   UNL     1      27.428  40.984  50.960  1.00  0.00     0.256 C 
HETATM    3  C   UNL     1      28.400  39.890  50.547  1.00  0.00     0.034 A 
HETATM    4  C   UNL     1      28.511  39.563  49.206  1.00  0.00     0.048 A 
HETATM    5  N   UNL     1      27.763  40.268  48.283  1.00  0.00    -0.308 N 
HETATM    6  C   UNL     1      26.976  41.347  48.545  1.00  0.00     0.330 C 
HETATM    7  O   UNL     1      26.384  41.829  47.578  1.00  0.00    -0.246 OA
HETATM    8  C   UNL     1      29.146  39.141  51.478  1.00  0.00     0.015 A 
HETATM    9  C   UNL     1      29.995  38.116  51.053  1.00  0.00     0.001 A 
HETATM   10  C   UNL     1      30.093  37.810  49.700  1.00  0.00     0.002 A 
HETATM   11  C   UNL     1      29.344  38.530  48.772  1.00  0.00     0.030 A 
HETATM   12  H   UNL     1      27.774  39.998  47.309  1.00  0.00     0.170 HD
ENDROOT
BRANCH   2  13
HETATM   13  C   UNL     1      28.150  41.881  52.058  1.00  0.00     0.279 C 
HETATM   14  N   UNL     1      27.556  41.932  53.301  1.00  0.00    -0.352 N 
HETATM   15  H   UNL     1      26.837  41.251  53.516  1.00  0.00     0.162 HD
HETATM   16  O   UNL     1      29.132  42.567  51.756  1.00  0.00    -0.268 OA
BRANCH  14  17
HETATM   17  C   UNL     1      28.154  42.656  54.396  1.00  0.00     0.161 C 
BRANCH  17  18
HETATM   18  C   UNL     1      27.613  44.060  54.470  1.00  0.00    -0.040 A 
HETATM   19  C   UNL     1      26.270  44.330  54.175  1.00  0.00     0.010 A 
HETATM   20  C   UNL     1      25.778  45.635  54.261  1.00  0.00     0.024 A 
HETATM   21  C   UNL     1      26.626  46.674  54.637  1.00  0.00     0.034 A 
HETATM   22 CL   UNL     1      26.016  48.279  54.749  1.00  0.00    -0.084 Cl
HETATM   23  C   UNL     1      27.965  46.422  54.925  1.00  0.00     0.024 A 
HETATM   24  C   UNL     1      28.457  45.118  54.839  1.00  0.00     0.010 A 
ENDBRANCH  17  18
ENDBRANCH  14  17
ENDBRANCH   2  13
BRANCH   2  25
HETATM   25  O   UNL     1      26.310  40.295  51.523  1.00  0.00    -0.359 OA
HETATM   26  H   UNL     1      25.528  40.786  51.207  1.00  0.00     0.213 HD
ENDBRANCH   2  25
BRANCH   1  27
HETATM   27  C   UNL     1      26.203  43.045  50.135  1.00  0.00     0.045 A 
HETATM   28  C   UNL     1      26.760  44.301  49.834  1.00  0.00     0.066 A 
HETATM   29  C   UNL     1      26.073  45.491  50.098  1.00  0.00     0.070 A 
HETATM   30  C   UNL     1      24.836  45.460  50.728  1.00  0.00     0.037 A 
HETATM   31  C   UNL     1      24.271  44.233  51.055  1.00  0.00     0.005 A 
HETATM   32  C   UNL     1      24.943  43.041  50.755  1.00  0.00     0.030 A 
BRANCH  29  33
HETATM   33  O   UNL     1      26.713  46.653  49.759  1.00  0.00    -0.356 OA
HETATM   34  C   UNL     1      25.889  47.807  49.927  1.00  0.00     0.210 C 
ENDBRANCH  29  33
ENDBRANCH   1  27
TORSDOF 6
ENDMDL
MODEL 2
REMARK VINA RESULT:      -8.8      2.131      3.037
REMARK  6 active torsions:
REMARK  status: ('A' for Active; 'I' for Inactive)
REMARK    1  A    between atoms: O_2  and  C_3 
REMARK    2  A    between atoms: C_5  and  N_6 
REMARK    3  A    between atoms: C_7  and  C_9 
REMARK    4  A    between atoms: C_7  and  O_8 
REMARK       I    between atoms: C_9  and  N_10 
REMARK    5  A    between atoms: N_10  and  C_11 
REMARK    6  A    between atoms: C_11  and  C_12 
ROOT
HETATM    1  N   UNL     1      26.271  42.672  51.587  1.00  0.00    -0.254 N 
HETATM    2  C   UNL     1      27.336  41.681  51.843  1.00  0.00     0.256 C 
HETATM    3  C   UNL     1      27.576  40.699  50.708  1.00  0.00     0.034 A 
HETATM    4  C   UNL     1      26.631  40.593  49.701  1.00  0.00     0.048 A 
HETATM    5  N   UNL     1      25.518  41.411  49.742  1.00  0.00    -0.308 N 
HETATM    6  C   UNL     1      25.289  42.409  50.639  1.00  0.00     0.330 C 
HETATM    7  O   UNL     1      24.228  43.020  50.505  1.00  0.00    -0.246 OA
HETATM    8  C   UNL     1      28.688  39.836  50.668  1.00  0.00     0.015 A 
HETATM    9  C   UNL     1      28.844  38.918  49.625  1.00  0.00     0.001 A 
HETATM   10  C   UNL     1      27.883  38.835  48.623  1.00  0.00     0.002 A 
HETATM   11  C   UNL     1      26.768  39.669  48.663  1.00  0.00     0.030 A 
HETATM   12  H   UNL     1      24.782  41.301  49.058  1.00  0.00     0.170 HD
ENDROOT
BRANCH   2  13
HETATM   13  C   UNL     1      28.715  42.414  52.145  1.00  0.00     0.279 C 
HETATM   14  N   UNL     1      29.311  42.133  53.356  1.00  0.00    -0.352 N 
HETATM   15  H   UNL     1      28.970  41.337  53.884  1.00  0.00     0.162 HD
HETATM   16  O   UNL     1      29.154  43.266  51.364  1.00  0.00    -0.268 OA
BRANCH  14  17
HETATM   17  C   UNL     1      30.596  42.684  53.713  1.00  0.00     0.161 C 
BRANCH  17  18
HETATM   18  C   UNL     1      30.482  43.569  54.926  1.00  0.00    -0.040 A 
HETATM   19  C   UNL     1      31.280  43.348  56.057  1.00  0.00     0.010 A 
HETATM   20  C   UNL     1      31.173  44.186  57.170  1.00  0.00     0.024 A 
HETATM   21  C   UNL     1      30.266  45.243  57.159  1.00  0.00     0.034 A 
HETATM   22 CL   UNL     1      30.142  46.278  58.529  1.00  0.00    -0.084 Cl
HETATM   23  C   UNL     1      29.460  45.470  56.046  1.00  0.00     0.024 A 
HETATM   24  C   UNL     1      29.567  44.633  54.933  1.00  0.00     0.010 A 
ENDBRANCH  17  18
ENDBRANCH  14  17
ENDBRANCH   2  13
BRANCH   2  25
HETATM   25  O   UNL     1      26.936  40.876  52.953  1.00  0.00    -0.359 OA
HETATM   26  H   UNL     1      26.540  41.503  53.587  1.00  0.00     0.213 HD
ENDBRANCH   2  25
BRANCH   1  27
HETATM   27  C   UNL     1      26.109  43.808  52.478  1.00  0.00     0.045 A 
HETATM   28  C   UNL     1      26.183  45.121  51.983  1.00  0.00     0.066 A 
HETATM   29  C   UNL     1      26.029  46.231  52.820  1.00  0.00     0.070 A 
HETATM   30  C   UNL     1      25.858  46.059  54.188  1.00  0.00     0.037 A 
HETATM   31  C   UNL     1      25.801  44.771  54.707  1.00  0.00     0.005 A 
HETATM   32  C   UNL     1      25.918  43.660  53.862  1.00  0.00     0.030 A 
BRANCH  29  33
HETATM   33  O   UNL     1      26.117  47.462  52.226  1.00  0.00    -0.356 OA
HETATM   34  C   UNL     1      26.098  47.392  50.800  1.00  0.00     0.210 C 
ENDBRANCH  29  33
ENDBRANCH   1  27
TORSDOF 6
ENDMDL
MODEL 3
REMARK VINA RESULT:      -8.6      3.166      6.653
REMARK  6 active torsions:
REMARK  status: ('A' for Active; 'I' for Inactive)
REMARK    1  A    between atoms: O_2  and  C_3 
REMARK    2  A    between atoms: C_5  and  N_6 
REMARK    3  A    between atoms: C_7  and  C_9 
REMARK    4  A    between atoms: C_7  and  O_8 
REMARK       I    between atoms: C_9  and  N_10 
REMARK    5  A    between atoms: N_10  and  C_11 
REMARK    6  A    between atoms: C_11  and  C_12 
ROOT
HETATM    1  N   UNL     1      27.855  44.440  53.116  1.00  0.00    -0.254 N 
HETATM    2  C   UNL     1      29.032  43.590  53.392  1.00  0.00     0.256 C 
HETATM    3  C   UNL     1      29.666  43.807  54.757  1.00  0.00     0.034 A 
HETATM    4  C   UNL     1      29.324  44.935  55.484  1.00  0.00     0.048 A 
HETATM    5  N   UNL     1      28.389  45.808  54.960  1.00  0.00    -0.308 N 
HETATM    6  C   UNL     1      27.673  45.625  53.817  1.00  0.00     0.330 C 
HETATM    7  O   UNL     1      26.892  46.531  53.521  1.00  0.00    -0.246 OA
HETATM    8  C   UNL     1      30.643  42.944  55.291  1.00  0.00     0.015 A 
HETATM    9  C   UNL     1      31.228  43.208  56.532  1.00  0.00     0.001 A 
HETATM   10  C   UNL     1      30.864  44.346  57.245  1.00  0.00     0.002 A 
HETATM   11  C   UNL     1      29.914  45.217  56.717  1.00  0.00     0.030 A 
HETATM   12  H   UNL     1      28.179  46.673  55.440  1.00  0.00     0.170 HD
ENDROOT
BRANCH   2  13
HETATM   13  C   UNL     1      28.644  42.052  53.280  1.00  0.00     0.279 C 
HETATM   14  N   UNL     1      29.218  41.345  52.245  1.00  0.00    -0.352 N 
HETATM   15  H   UNL     1      29.999  41.764  51.754  1.00  0.00     0.162 HD
HETATM   16  O   UNL     1      27.791  41.566  54.031  1.00  0.00    -0.268 OA
BRANCH  14  17
HETATM   17  C   UNL     1      28.996  39.928  52.082  1.00  0.00     0.161 C 
BRANCH  17  18
HETATM   18  C   UNL     1      28.791  39.581  50.631  1.00  0.00    -0.040 A 
HETATM   19  C   UNL     1      29.296  38.387  50.098  1.00  0.00     0.010 A 
HETATM   20  C   UNL     1      29.086  38.071  48.753  1.00  0.00     0.024 A 
HETATM   21  C   UNL     1      28.378  38.948  47.935  1.00  0.00     0.034 A 
HETATM   22 CL   UNL     1      28.116  38.554  46.281  1.00  0.00    -0.084 Cl
HETATM   23  C   UNL     1      27.879  40.143  48.449  1.00  0.00     0.024 A 
HETATM   24  C   UNL     1      28.087  40.459  49.793  1.00  0.00     0.010 A 
ENDBRANCH  17  18
ENDBRANCH  14  17
ENDBRANCH   2  13
BRANCH   2  25
HETATM   25  O   UNL     1      30.053  43.926  52.451  1.00  0.00    -0.359 OA
HETATM   26  H   UNL     1      30.087  43.168  51.838  1.00  0.00     0.213 HD
ENDBRANCH   2  25
BRANCH   1  27
HETATM   27  C   UNL     1      27.019  44.164  51.961  1.00  0.00     0.045 A 
HETATM   28  C   UNL     1      25.716  43.661  52.126  1.00  0.00     0.066 A 
HETATM   29  C   UNL     1      24.890  43.388  51.031  1.00  0.00     0.070 A 
HETATM   30  C   UNL     1      25.366  43.553  49.736  1.00  0.00     0.037 A 
HETATM   31  C   UNL     1      26.658  44.030  49.544  1.00  0.00     0.005 A 
HETATM   32  C   UNL     1      27.470  44.339  50.643  1.00  0.00     0.030 A 
BRANCH  29  33
HETATM   33  O   UNL     1      23.641  42.904  51.313  1.00  0.00    -0.356 OA
HETATM   34  C   UNL     1      22.785  42.879  50.170  1.00  0.00     0.210 C 
ENDBRANCH  29  33
ENDBRANCH   1  27
TORSDOF 6
ENDMDL
MODEL 4
REMARK VINA RESULT:      -8.5     11.751     13.812
REMARK  6 active torsions:
REMARK  status: ('A' for Active; 'I' for Inactive)
REMARK    1  A    between atoms: O_2  and  C_3 
REMARK    2  A    between atoms: C_5  and  N_6 
REMARK    3  A    between atoms: C_7  and  C_9 
REMARK    4  A    between atoms: C_7  and  O_8 
REMARK       I    between atoms: C_9  and  N_10 
REMARK    5  A    between atoms: N_10  and  C_11 
REMARK    6  A    between atoms: C_11  and  C_12 
ROOT
HETATM    1  N   UNL     1      28.096  50.085  39.666  1.00  0.00    -0.254 N 
HETATM    2  C   UNL     1      27.891  48.959  40.599  1.00  0.00     0.256 C 
HETATM    3  C   UNL     1      27.124  47.783  40.015  1.00  0.00     0.034 A 
HETATM    4  C   UNL     1      26.432  47.955  38.828  1.00  0.00     0.048 A 
HETATM    5  N   UNL     1      26.492  49.182  38.194  1.00  0.00    -0.308 N 
HETATM    6  C   UNL     1      27.259  50.242  38.568  1.00  0.00     0.330 C 
HETATM    7  O   UNL     1      27.162  51.251  37.868  1.00  0.00    -0.246 OA
HETATM    8  C   UNL     1      27.027  46.537  40.665  1.00  0.00     0.015 A 
HETATM    9  C   UNL     1      26.275  45.498  40.110  1.00  0.00     0.001 A 
HETATM   10  C   UNL     1      25.593  45.695  38.914  1.00  0.00     0.002 A 
HETATM   11  C   UNL     1      25.665  46.930  38.273  1.00  0.00     0.030 A 
HETATM   12  H   UNL     1      25.937  49.352  37.366  1.00  0.00     0.170 HD
ENDROOT
BRANCH   2  13
HETATM   13  C   UNL     1      29.288  48.410  41.124  1.00  0.00     0.279 C 
HETATM   14  N   UNL     1      29.765  48.956  42.297  1.00  0.00    -0.352 N 
HETATM   15  H   UNL     1      29.126  49.501  42.865  1.00  0.00     0.162 HD
HETATM   16  O   UNL     1      29.941  47.612  40.442  1.00  0.00    -0.268 OA
BRANCH  14  17
HETATM   17  C   UNL     1      30.987  48.491  42.906  1.00  0.00     0.161 C 
BRANCH  17  18
HETATM   18  C   UNL     1      32.135  49.406  42.571  1.00  0.00    -0.040 A 
HETATM   19  C   UNL     1      32.325  50.608  43.267  1.00  0.00     0.010 A 
HETATM   20  C   UNL     1      33.403  51.440  42.955  1.00  0.00     0.024 A 
HETATM   21  C   UNL     1      34.291  51.078  41.945  1.00  0.00     0.034 A 
HETATM   22 CL   UNL     1      35.622  52.102  41.568  1.00  0.00    -0.084 Cl
HETATM   23  C   UNL     1      34.110  49.891  41.239  1.00  0.00     0.024 A 
HETATM   24  C   UNL     1      33.033  49.058  41.551  1.00  0.00     0.010 A 
ENDBRANCH  17  18
ENDBRANCH  14  17
ENDBRANCH   2  13
BRANCH   2  25
HETATM   25  O   UNL     1      27.088  49.423  41.686  1.00  0.00    -0.359 OA
HETATM   26  H   UNL     1      27.345  50.356  41.806  1.00  0.00     0.213 HD
ENDBRANCH   2  25
BRANCH   1  27
HETATM   27  C   UNL     1      29.014  51.156  40.016  1.00  0.00     0.045 A 
HETATM   28  C   UNL     1      30.292  51.221  39.434  1.00  0.00     0.066 A 
HETATM   29  C   UNL     1      31.193  52.242  39.752  1.00  0.00     0.070 A 
HETATM   30  C   UNL     1      30.864  53.193  40.709  1.00  0.00     0.037 A 
HETATM   31  C   UNL     1      29.614  53.142  41.315  1.00  0.00     0.005 A 
HETATM   32  C   UNL     1      28.698  52.140  40.967  1.00  0.00     0.030 A 
BRANCH  29  33
HETATM   33  O   UNL     1      32.408  52.204  39.121  1.00  0.00    -0.356 OA
HETATM   34  C   UNL     1      32.478  51.195  38.114  1.00  0.00     0.210 C 
ENDBRANCH  29  33
ENDBRANCH   1  27
TORSDOF 6
ENDMDL
MODEL 5
REMARK VINA RESULT:      -8.2      2.722      4.585
REMARK  6 active torsions:
REMARK  status: ('A' for Active; 'I' for Inactive)
REMARK    1  A    between atoms: O_2  and  C_3 
REMARK    2  A    between atoms: C_5  and  N_6 
REMARK    3  A    between atoms: C_7  and  C_9 
REMARK    4  A    between atoms: C_7  and  O_8 
REMARK       I    between atoms: C_9  and  N_10 
REMARK    5  A    between atoms: N_10  and  C_11 
REMARK    6  A    between atoms: C_11  and  C_12 
ROOT
HETATM    1  N   UNL     1      24.533  44.496  49.944  1.00  0.00    -0.254 N 
HETATM    2  C   UNL     1      24.867  43.057  49.987  1.00  0.00     0.256 C 
HETATM    3  C   UNL     1      24.399  42.261  48.779  1.00  0.00     0.034 A 
HETATM    4  C   UNL     1      23.471  42.827  47.921  1.00  0.00     0.048 A 
HETATM    5  N   UNL     1      23.029  44.112  48.169  1.00  0.00    -0.308 N 
HETATM    6  C   UNL     1      23.493  44.946  49.140  1.00  0.00     0.330 C 
HETATM    7  O   UNL     1      22.958  46.054  49.198  1.00  0.00    -0.246 OA
HETATM    8  C   UNL     1      24.814  40.939  48.529  1.00  0.00     0.015 A 
HETATM    9  C   UNL     1      24.324  40.231  47.429  1.00  0.00     0.001 A 
HETATM   10  C   UNL     1      23.396  40.824  46.578  1.00  0.00     0.002 A 
HETATM   11  C   UNL     1      22.962  42.123  46.827  1.00  0.00     0.030 A 
HETATM   12  H   UNL     1      22.300  44.517  47.598  1.00  0.00     0.170 HD
ENDROOT
BRANCH   2  13
HETATM   13  C   UNL     1      26.439  42.855  50.117  1.00  0.00     0.279 C 
HETATM   14  N   UNL     1      26.896  42.322  51.304  1.00  0.00    -0.352 N 
HETATM   15  H   UNL     1      26.221  41.896  51.929  1.00  0.00     0.162 HD
HETATM   16  O   UNL     1      27.196  43.260  49.228  1.00  0.00    -0.268 OA
BRANCH  14  17
HETATM   17  C   UNL     1      28.293  42.030  51.513  1.00  0.00     0.161 C 
BRANCH  17  18
HETATM   18  C   UNL     1      28.828  42.786  52.700  1.00  0.00    -0.040 A 
HETATM   19  C   UNL     1      28.160  43.914  53.196  1.00  0.00     0.010 A 
HETATM   20  C   UNL     1      28.660  44.598  54.307  1.00  0.00     0.024 A 
HETATM   21  C   UNL     1      29.830  44.161  54.923  1.00  0.00     0.034 A 
HETATM   22 CL   UNL     1      30.440  45.001  56.296  1.00  0.00    -0.084 Cl
HETATM   23  C   UNL     1      30.510  43.047  54.436  1.00  0.00     0.024 A 
HETATM   24  C   UNL     1      30.011  42.363  53.326  1.00  0.00     0.010 A 
ENDBRANCH  17  18
ENDBRANCH  14  17
ENDBRANCH   2  13
BRANCH   2  25
HETATM   25  O   UNL     1      24.187  42.477  51.101  1.00  0.00    -0.359 OA
HETATM   26  H   UNL     1      23.567  43.167  51.403  1.00  0.00     0.213 HD
ENDBRANCH   2  25
BRANCH   1  27
HETATM   27  C   UNL     1      25.129  45.406  50.907  1.00  0.00     0.045 A 
HETATM   28  C   UNL     1      24.946  45.205  52.287  1.00  0.00     0.066 A 
HETATM   29  C   UNL     1      25.510  46.065  53.235  1.00  0.00     0.070 A 
HETATM   30  C   UNL     1      26.222  47.187  52.827  1.00  0.00     0.037 A 
HETATM   31  C   UNL     1      26.401  47.420  51.468  1.00  0.00     0.005 A 
HETATM   32  C   UNL     1      25.868  46.536  50.522  1.00  0.00     0.030 A 
BRANCH  29  33
HETATM   33  O   UNL     1      25.268  45.770  54.550  1.00  0.00    -0.356 OA
HETATM   34  C   UNL     1      24.932  44.398  54.756  1.00  0.00     0.210 C 
ENDBRANCH  29  33
ENDBRANCH   1  27
TORSDOF 6
ENDMDL
MODEL 6
REMARK VINA RESULT:      -8.1      2.561      4.166
REMARK  6 active torsions:
REMARK  status: ('A' for Active; 'I' for Inactive)
REMARK    1  A    between atoms: O_2  and  C_3 
REMARK    2  A    between atoms: C_5  and  N_6 
REMARK    3  A    between atoms: C_7  and  C_9 
REMARK    4  A    between atoms: C_7  and  O_8 
REMARK       I    between atoms: C_9  and  N_10 
REMARK    5  A    between atoms: N_10  and  C_11 
REMARK    6  A    between atoms: C_11  and  C_12 
ROOT
HETATM    1  N   UNL     1      24.488  44.277  49.705  1.00  0.00    -0.254 N 
HETATM    2  C   UNL     1      24.933  42.877  49.857  1.00  0.00     0.256 C 
HETATM    3  C   UNL     1      24.550  41.960  48.706  1.00  0.00     0.034 A 
HETATM    4  C   UNL     1      23.595  42.386  47.798  1.00  0.00     0.048 A 
HETATM    5  N   UNL     1      23.049  43.647  47.947  1.00  0.00    -0.308 N 
HETATM    6  C   UNL     1      23.428  44.583  48.859  1.00  0.00     0.330 C 
HETATM    7  O   UNL     1      22.807  45.647  48.830  1.00  0.00    -0.246 OA
HETATM    8  C   UNL     1      25.073  40.661  48.559  1.00  0.00     0.015 A 
HETATM    9  C   UNL     1      24.658  39.838  47.508  1.00  0.00     0.001 A 
HETATM   10  C   UNL     1      23.701  40.292  46.606  1.00  0.00     0.002 A 
HETATM   11  C   UNL     1      23.161  41.567  46.754  1.00  0.00     0.030 A 
HETATM   12  H   UNL     1      22.299  43.950  47.339  1.00  0.00     0.170 HD
ENDROOT
BRANCH   2  13
HETATM   13  C   UNL     1      26.513  42.811  50.019  1.00  0.00     0.279 C 
HETATM   14  N   UNL     1      26.991  42.282  51.200  1.00  0.00    -0.352 N 
HETATM   15  H   UNL     1      26.344  41.778  51.795  1.00  0.00     0.162 HD
HETATM   16  O   UNL     1      27.251  43.310  49.162  1.00  0.00    -0.268 OA
BRANCH  14  17
HETATM   17  C   UNL     1      28.404  42.108  51.434  1.00  0.00     0.161 C 
BRANCH  17  18
HETATM   18  C   UNL     1      28.834  42.830  52.684  1.00  0.00    -0.040 A 
HETATM   19  C   UNL     1      30.083  42.578  53.267  1.00  0.00     0.010 A 
HETATM   20  C   UNL     1      30.475  43.265  54.419  1.00  0.00     0.024 A 
HETATM   21  C   UNL     1      29.618  44.200  54.996  1.00  0.00     0.034 A 
HETATM   22 CL   UNL     1      30.105  45.049  56.411  1.00  0.00    -0.084 Cl
HETATM   23  C   UNL     1      28.370  44.454  54.432  1.00  0.00     0.024 A 
HETATM   24  C   UNL     1      27.978  43.768  53.280  1.00  0.00     0.010 A 
ENDBRANCH  17  18
ENDBRANCH  14  17
ENDBRANCH   2  13
BRANCH   2  25
HETATM   25  O   UNL     1      24.282  42.326  51.004  1.00  0.00    -0.359 OA
HETATM   26  H   UNL     1      23.334  42.508  50.865  1.00  0.00     0.213 HD
ENDBRANCH   2  25
BRANCH   1  27
HETATM   27  C   UNL     1      24.993  45.299  50.606  1.00  0.00     0.045 A 
HETATM   28  C   UNL     1      25.671  46.424  50.102  1.00  0.00     0.066 A 
HETATM   29  C   UNL     1      26.165  47.422  50.947  1.00  0.00     0.070 A 
HETATM   30  C   UNL     1      26.052  47.293  52.326  1.00  0.00     0.037 A 
HETATM   31  C   UNL     1      25.404  46.180  52.852  1.00  0.00     0.005 A 
HETATM   32  C   UNL     1      24.875  45.201  52.001  1.00  0.00     0.030 A 
BRANCH  29  33
HETATM   33  O   UNL     1      26.805  48.472  50.344  1.00  0.00    -0.356 OA
HETATM   34  C   UNL     1      27.463  48.098  49.134  1.00  0.00     0.210 C 
ENDBRANCH  29  33
ENDBRANCH   1  27
TORSDOF 6
ENDMDL
MODEL 7
REMARK VINA RESULT:      -8.0      2.942      5.527
REMARK  6 active torsions:
REMARK  status: ('A' for Active; 'I' for Inactive)
REMARK    1  A    between atoms: O_2  and  C_3 
REMARK    2  A    between atoms: C_5  and  N_6 
REMARK    3  A    between atoms: C_7  and  C_9 
REMARK    4  A    between atoms: C_7  and  O_8 
REMARK       I    between atoms: C_9  and  N_10 
REMARK    5  A    between atoms: N_10  and  C_11 
REMARK    6  A    between atoms: C_11  and  C_12 
ROOT
HETATM    1  N   UNL     1      25.883  42.089  50.792  1.00  0.00    -0.254 N 
HETATM    2  C   UNL     1      26.142  43.279  51.629  1.00  0.00     0.256 C 
HETATM    3  C   UNL     1      27.342  43.156  52.554  1.00  0.00     0.034 A 
HETATM    4  C   UNL     1      27.892  41.905  52.777  1.00  0.00     0.048 A 
HETATM    5  N   UNL     1      27.354  40.813  52.121  1.00  0.00    -0.308 N 
HETATM    6  C   UNL     1      26.375  40.848  51.176  1.00  0.00     0.330 C 
HETATM    7  O   UNL     1      26.032  39.757  50.717  1.00  0.00    -0.246 OA
HETATM    8  C   UNL     1      27.882  44.252  53.254  1.00  0.00     0.015 A 
HETATM    9  C   UNL     1      28.960  44.083  54.127  1.00  0.00     0.001 A 
HETATM   10  C   UNL     1      29.498  42.816  54.330  1.00  0.00     0.002 A 
HETATM   11  C   UNL     1      28.959  41.721  53.659  1.00  0.00     0.030 A 
HETATM   12  H   UNL     1      27.693  39.882  52.324  1.00  0.00     0.170 HD
ENDROOT
BRANCH   2  13
HETATM   13  C   UNL     1      26.367  44.561  50.716  1.00  0.00     0.279 C 
HETATM   14  N   UNL     1      25.535  45.637  50.946  1.00  0.00    -0.352 N 
HETATM   15  H   UNL     1      24.987  45.643  51.799  1.00  0.00     0.162 HD
HETATM   16  O   UNL     1      27.181  44.531  49.786  1.00  0.00    -0.268 OA
BRANCH  14  17
HETATM   17  C   UNL     1      25.688  46.879  50.228  1.00  0.00     0.161 C 
BRANCH  17  18
HETATM   18  C   UNL     1      24.414  47.247  49.515  1.00  0.00    -0.040 A 
HETATM   19  C   UNL     1      24.123  48.581  49.202  1.00  0.00     0.010 A 
HETATM   20  C   UNL     1      22.943  48.907  48.528  1.00  0.00     0.024 A 
HETATM   21  C   UNL     1      22.048  47.902  48.169  1.00  0.00     0.034 A 
HETATM   22 CL   UNL     1      20.599  48.304  47.333  1.00  0.00    -0.084 Cl
HETATM   23  C   UNL     1      22.319  46.572  48.482  1.00  0.00     0.024 A 
HETATM   24  C   UNL     1      23.498  46.246  49.155  1.00  0.00     0.010 A 
ENDBRANCH  17  18
ENDBRANCH  14  17
ENDBRANCH   2  13
BRANCH   2  25
HETATM   25  O   UNL     1      25.022  43.464  52.496  1.00  0.00    -0.359 OA
HETATM   26  H   UNL     1      24.324  42.889  52.130  1.00  0.00     0.213 HD
ENDBRANCH   2  25
BRANCH   1  27
HETATM   27  C   UNL     1      24.926  42.166  49.702  1.00  0.00     0.045 A 
HETATM   28  C   UNL     1      25.308  41.830  48.391  1.00  0.00     0.066 A 
HETATM   29  C   UNL     1      24.406  41.894  47.324  1.00  0.00     0.070 A 
HETATM   30  C   UNL     1      23.111  42.355  47.529  1.00  0.00     0.037 A 
HETATM   31  C   UNL     1      22.713  42.712  48.812  1.00  0.00     0.005 A 
HETATM   32  C   UNL     1      23.607  42.611  49.885  1.00  0.00     0.030 A 
BRANCH  29  33
HETATM   33  O   UNL     1      24.889  41.541  46.093  1.00  0.00    -0.356 OA
HETATM   34  C   UNL     1      25.823  40.464  46.152  1.00  0.00     0.210 C 
ENDBRANCH  29  33
ENDBRANCH   1  27
TORSDOF 6
ENDMDL
MODEL 8
REMARK VINA RESULT:      -7.8      3.141      5.307
REMARK  6 active torsions:
REMARK  status: ('A' for Active; 'I' for Inactive)
REMARK    1  A    between atoms: O_2  and  C_3 
REMARK    2  A    between atoms: C_5  and  N_6 
REMARK    3  A    between atoms: C_7  and  C_9 
REMARK    4  A    between atoms: C_7  and  O_8 
REMARK       I    between atoms: C_9  and  N_10 
REMARK    5  A    between atoms: N_10  and  C_11 
REMARK    6  A    between atoms: C_11  and  C_12 
ROOT
HETATM    1  N   UNL     1      23.859  44.731  49.671  1.00  0.00    -0.254 N 
HETATM    2  C   UNL     1      23.788  43.256  49.724  1.00  0.00     0.256 C 
HETATM    3  C   UNL     1      23.097  42.611  48.533  1.00  0.00     0.034 A 
HETATM    4  C   UNL     1      22.342  43.403  47.684  1.00  0.00     0.048 A 
HETATM    5  N   UNL     1      22.273  44.762  47.927  1.00  0.00    -0.308 N 
HETATM    6  C   UNL     1      22.965  45.443  48.881  1.00  0.00     0.330 C 
HETATM    7  O   UNL     1      22.754  46.655  48.936  1.00  0.00    -0.246 OA
HETATM    8  C   UNL     1      23.131  41.224  48.290  1.00  0.00     0.015 A 
HETATM    9  C   UNL     1      22.445  40.670  47.206  1.00  0.00     0.001 A 
HETATM   10  C   UNL     1      21.697  41.489  46.365  1.00  0.00     0.002 A 
HETATM   11  C   UNL     1      21.639  42.859  46.608  1.00  0.00     0.030 A 
HETATM   12  H   UNL     1      21.671  45.347  47.364  1.00  0.00     0.170 HD
ENDROOT
BRANCH   2  13
HETATM   13  C   UNL     1      25.247  42.633  49.829  1.00  0.00     0.279 C 
HETATM   14  N   UNL     1      25.535  41.927  50.978  1.00  0.00    -0.352 N 
HETATM   15  H   UNL     1      24.765  41.660  51.581  1.00  0.00     0.162 HD
HETATM   16  O   UNL     1      26.093  42.873  48.961  1.00  0.00    -0.268 OA
BRANCH  14  17
HETATM   17  C   UNL     1      26.801  41.259  51.158  1.00  0.00     0.161 C 
BRANCH  17  18
HETATM   18  C   UNL     1      27.636  41.963  52.194  1.00  0.00    -0.040 A 
HETATM   19  C   UNL     1      28.103  41.283  53.328  1.00  0.00     0.010 A 
HETATM   20  C   UNL     1      28.888  41.945  54.274  1.00  0.00     0.024 A 
HETATM   21  C   UNL     1      29.206  43.289  54.095  1.00  0.00     0.034 A 
HETATM   22 CL   UNL     1      30.180  44.101  55.259  1.00  0.00    -0.084 Cl
HETATM   23  C   UNL     1      28.742  43.981  52.979  1.00  0.00     0.024 A 
HETATM   24  C   UNL     1      27.958  43.319  52.032  1.00  0.00     0.010 A 
ENDBRANCH  17  18
ENDBRANCH  14  17
ENDBRANCH   2  13
BRANCH   2  25
HETATM   25  O   UNL     1      22.997  42.890  50.856  1.00  0.00    -0.359 OA
HETATM   26  H   UNL     1      23.425  42.090  51.213  1.00  0.00     0.213 HD
ENDBRANCH   2  25
BRANCH   1  27
HETATM   27  C   UNL     1      24.698  45.449  50.614  1.00  0.00     0.045 A 
HETATM   28  C   UNL     1      24.595  45.203  51.995  1.00  0.00     0.066 A 
HETATM   29  C   UNL     1      25.392  45.879  52.923  1.00  0.00     0.070 A 
HETATM   30  C   UNL     1      26.274  46.867  52.502  1.00  0.00     0.037 A 
HETATM   31  C   UNL     1      26.382  47.144  51.144  1.00  0.00     0.005 A 
HETATM   32  C   UNL     1      25.610  46.439  50.212  1.00  0.00     0.030 A 
BRANCH  29  33
HETATM   33  O   UNL     1      25.206  45.555  54.240  1.00  0.00    -0.356 OA
HETATM   34  C   UNL     1      25.328  44.155  54.489  1.00  0.00     0.210 C 
ENDBRANCH  29  33
ENDBRANCH   1  27
TORSDOF 6
ENDMDL
MODEL 9
REMARK VINA RESULT:      -7.8      5.112      8.781
REMARK  6 active torsions:
REMARK  status: ('A' for Active; 'I' for Inactive)
REMARK    1  A    between atoms: O_2  and  C_3 
REMARK    2  A    between atoms: C_5  and  N_6 
REMARK    3  A    between atoms: C_7  and  C_9 
REMARK    4  A    between atoms: C_7  and  O_8 
REMARK       I    between atoms: C_9  and  N_10 
REMARK    5  A    between atoms: N_10  and  C_11 
REMARK    6  A    between atoms: C_11  and  C_12 
ROOT
HETATM    1  N   UNL     1      21.228  46.262  48.459  1.00  0.00    -0.254 N 
HETATM    2  C   UNL     1      21.687  47.660  48.327  1.00  0.00     0.256 C 
HETATM    3  C   UNL     1      20.840  48.678  49.074  1.00  0.00     0.034 A 
HETATM    4  C   UNL     1      19.591  48.302  49.537  1.00  0.00     0.048 A 
HETATM    5  N   UNL     1      19.170  47.001  49.338  1.00  0.00    -0.308 N 
HETATM    6  C   UNL     1      19.910  45.991  48.806  1.00  0.00     0.330 C 
HETATM    7  O   UNL     1      19.343  44.901  48.709  1.00  0.00    -0.246 OA
HETATM    8  C   UNL     1      21.241  50.016  49.257  1.00  0.00     0.015 A 
HETATM    9  C   UNL     1      20.410  50.928  49.914  1.00  0.00     0.001 A 
HETATM   10  C   UNL     1      19.161  50.523  50.374  1.00  0.00     0.002 A 
HETATM   11  C   UNL     1      18.745  49.208  50.180  1.00  0.00     0.030 A 
HETATM   12  H   UNL     1      18.234  46.725  49.604  1.00  0.00     0.170 HD
ENDROOT
BRANCH   2  13
HETATM   13  C   UNL     1      23.183  47.805  48.845  1.00  0.00     0.279 C 
HETATM   14  N   UNL     1      23.451  47.312  50.105  1.00  0.00    -0.352 N 
HETATM   15  H   UNL     1      22.762  46.708  50.538  1.00  0.00     0.162 HD
HETATM   16  O   UNL     1      24.018  48.423  48.176  1.00  0.00    -0.268 OA
BRANCH  14  17
HETATM   17  C   UNL     1      24.785  47.325  50.654  1.00  0.00     0.161 C 
BRANCH  17  18
HETATM   18  C   UNL     1      25.338  45.928  50.750  1.00  0.00    -0.040 A 
HETATM   19  C   UNL     1      24.923  45.056  51.766  1.00  0.00     0.010 A 
HETATM   20  C   UNL     1      25.435  43.758  51.835  1.00  0.00     0.024 A 
HETATM   21  C   UNL     1      26.367  43.328  50.893  1.00  0.00     0.034 A 
HETATM   22 CL   UNL     1      26.991  41.726  50.975  1.00  0.00    -0.084 Cl
HETATM   23  C   UNL     1      26.796  44.186  49.883  1.00  0.00     0.024 A 
HETATM   24  C   UNL     1      26.284  45.483  49.813  1.00  0.00     0.010 A 
ENDBRANCH  17  18
ENDBRANCH  14  17
ENDBRANCH   2  13
BRANCH   2  25
HETATM   25  O   UNL     1      21.588  48.032  46.951  1.00  0.00    -0.359 OA
HETATM   26  H   UNL     1      21.277  48.956  46.963  1.00  0.00     0.213 HD
ENDBRANCH   2  25
BRANCH   1  27
HETATM   27  C   UNL     1      22.078  45.176  48.002  1.00  0.00     0.045 A 
HETATM   28  C   UNL     1      22.356  45.013  46.633  1.00  0.00     0.066 A 
HETATM   29  C   UNL     1      23.172  43.978  46.167  1.00  0.00     0.070 A 
HETATM   30  C   UNL     1      23.683  43.037  47.053  1.00  0.00     0.037 A 
HETATM   31  C   UNL     1      23.408  43.162  48.409  1.00  0.00     0.005 A 
HETATM   32  C   UNL     1      22.621  44.222  48.878  1.00  0.00     0.030 A 
BRANCH  29  33
HETATM   33  O   UNL     1      23.375  43.920  44.814  1.00  0.00    -0.356 OA
HETATM   34  C   UNL     1      22.590  44.870  44.095  1.00  0.00     0.210 C 
ENDBRANCH  29  33
ENDBRANCH   1  27
TORSDOF 6
ENDMDL
MODEL 10
REMARK VINA RESULT:      -7.7      2.966      6.200
REMARK  6 active torsions:
REMARK  status: ('A' for Active; 'I' for Inactive)
REMARK    1  A    between atoms: O_2  and  C_3 
REMARK    2  A    between atoms: C_5  and  N_6 
REMARK    3  A    between atoms: C_7  and  C_9 
REMARK    4  A    between atoms: C_7  and  O_8 
REMARK       I    between atoms: C_9  and  N_10 
REMARK    5  A    between atoms: N_10  and  C_11 
REMARK    6  A    between atoms: C_11  and  C_12 
ROOT
HETATM    1  N   UNL     1      27.638  45.168  53.760  1.00  0.00    -0.254 N 
HETATM    2  C   UNL     1      28.673  44.113  53.762  1.00  0.00     0.256 C 
HETATM    3  C   UNL     1      29.540  44.077  55.010  1.00  0.00     0.034 A 
HETATM    4  C   UNL     1      29.523  45.162  55.871  1.00  0.00     0.048 A 
HETATM    5  N   UNL     1      28.688  46.226  55.586  1.00  0.00    -0.308 N 
HETATM    6  C   UNL     1      27.781  46.285  54.573  1.00  0.00     0.330 C 
HETATM    7  O   UNL     1      27.137  47.332  54.488  1.00  0.00    -0.246 OA
HETATM    8  C   UNL     1      30.420  43.016  55.298  1.00  0.00     0.015 A 
HETATM    9  C   UNL     1      31.229  43.047  56.437  1.00  0.00     0.001 A 
HETATM   10  C   UNL     1      31.189  44.146  57.289  1.00  0.00     0.002 A 
HETATM   11  C   UNL     1      30.338  45.211  57.003  1.00  0.00     0.030 A 
HETATM   12  H   UNL     1      28.712  47.057  56.161  1.00  0.00     0.170 HD
ENDROOT
BRANCH   2  13
HETATM   13  C   UNL     1      28.006  42.679  53.598  1.00  0.00     0.279 C 
HETATM   14  N   UNL     1      28.184  42.051  52.383  1.00  0.00    -0.352 N 
HETATM   15  H   UNL     1      28.888  42.419  51.753  1.00  0.00     0.162 HD
HETATM   16  O   UNL     1      27.283  42.221  54.489  1.00  0.00    -0.268 OA
BRANCH  14  17
HETATM   17  C   UNL     1      27.684  40.720  52.140  1.00  0.00     0.161 C 
BRANCH  17  18
HETATM   18  C   UNL     1      26.839  40.684  50.893  1.00  0.00    -0.040 A 
HETATM   19  C   UNL     1      25.854  41.654  50.663  1.00  0.00     0.010 A 
HETATM   20  C   UNL     1      25.087  41.616  49.496  1.00  0.00     0.024 A 
HETATM   21  C   UNL     1      25.297  40.607  48.558  1.00  0.00     0.034 A 
HETATM   22 CL   UNL     1      24.356  40.567  47.118  1.00  0.00    -0.084 Cl
HETATM   23  C   UNL     1      26.267  39.632  48.778  1.00  0.00     0.024 A 
HETATM   24  C   UNL     1      27.034  39.669  49.944  1.00  0.00     0.010 A 
ENDBRANCH  17  18
ENDBRANCH  14  17
ENDBRANCH   2  13
BRANCH   2  25
HETATM   25  O   UNL     1      29.578  44.378  52.688  1.00  0.00    -0.359 OA
HETATM   26  H   UNL     1      29.698  45.346  52.694  1.00  0.00     0.213 HD
ENDBRANCH   2  25
BRANCH   1  27
HETATM   27  C   UNL     1      26.596  45.156  52.748  1.00  0.00     0.045 A 
HETATM   28  C   UNL     1      26.808  45.762  51.497  1.00  0.00     0.066 A 
HETATM   29  C   UNL     1      25.822  45.764  50.505  1.00  0.00     0.070 A 
HETATM   30  C   UNL     1      24.572  45.213  50.759  1.00  0.00     0.037 A 
HETATM   31  C   UNL     1      24.329  44.624  51.995  1.00  0.00     0.005 A 
HETATM   32  C   UNL     1      25.331  44.590  52.973  1.00  0.00     0.030 A 
BRANCH  29  33
HETATM   33  O   UNL     1      26.142  46.382  49.325  1.00  0.00    -0.356 OA
HETATM   34  C   UNL     1      26.615  47.716  49.509  1.00  0.00     0.210 C 
ENDBRANCH  29  33
ENDBRANCH   1  27
TORSDOF 6
ENDMDL
