MODEL 1
REMARK VINA RESULT:      -8.0      0.000      0.000
REMARK  7 active torsions:
REMARK  status: ('A' for Active; 'I' for Inactive)
REMARK    1  A    between atoms: C_2  and  N_3 
REMARK    2  A    between atoms: N_3  and  C_4 
REMARK    3  A    between atoms: C_6  and  N_7 
REMARK    4  A    between atoms: N_7  and  C_8 
REMARK    5  A    between atoms: C_8  and  C_9 
REMARK    6  A    between atoms: C_9  and  C_10 
REMARK    7  A    between atoms: C_13  and  O_14 
ROOT
HETATM    1  C   UNL     1      28.623  44.982  54.648  1.00  0.00     0.119 A 
HETATM    2  N   UNL     1      28.627  44.133  53.604  1.00  0.00    -0.207 NA
HETATM    3  C   UNL     1      29.553  43.162  53.570  1.00  0.00     0.181 A 
HETATM    4  N   UNL     1      30.436  42.987  54.550  1.00  0.00    -0.330 N 
HETATM    5  H   UNL     1      31.054  42.190  54.477  1.00  0.00     0.168 HD
HETATM    6  C   UNL     1      30.465  43.787  55.620  1.00  0.00     0.048 A 
HETATM    7  C   UNL     1      29.539  44.843  55.713  1.00  0.00     0.031 A 
HETATM    8  C   UNL     1      31.409  43.566  56.635  1.00  0.00     0.030 A 
HETATM    9  C   UNL     1      31.438  44.394  57.757  1.00  0.00     0.002 A 
HETATM   10  C   UNL     1      30.525  45.437  57.874  1.00  0.00     0.001 A 
HETATM   11  C   UNL     1      29.583  45.660  56.867  1.00  0.00     0.017 A 
ENDROOT
BRANCH   3  12
HETATM   12  N   UNL     1      29.629  42.264  52.511  1.00  0.00    -0.262 NA
HETATM   13  H   UNL     1      30.052  42.660  51.677  1.00  0.00     0.130 HD
BRANCH  12  14
HETATM   14  C   UNL     1      28.370  41.568  52.199  1.00  0.00     0.100 C 
BRANCH  14  15
HETATM   15  C   UNL     1      27.959  41.873  50.753  1.00  0.00     0.053 C 
BRANCH  15  16
HETATM   16  C   UNL     1      26.921  42.961  50.672  1.00  0.00    -0.057 A 
HETATM   17  C   UNL     1      27.267  44.240  50.222  1.00  0.00     0.010 A 
HETATM   18  C   UNL     1      26.301  45.246  50.147  1.00  0.00     0.037 A 
HETATM   19  C   UNL     1      24.979  44.993  50.515  1.00  0.00     0.068 A 
HETATM   20  C   UNL     1      24.631  43.725  50.975  1.00  0.00     0.037 A 
HETATM   21  C   UNL     1      25.597  42.715  51.056  1.00  0.00     0.010 A 
BRANCH  19  22
HETATM   22  O   UNL     1      24.136  46.062  50.382  1.00  0.00    -0.356 OA
HETATM   23  C   UNL     1      24.723  47.302  50.005  1.00  0.00     0.210 C 
ENDBRANCH  19  22
ENDBRANCH  15  16
ENDBRANCH  14  15
ENDBRANCH  12  14
ENDBRANCH   3  12
BRANCH   1  24
HETATM   24  N   UNL     1      27.649  45.980  54.705  1.00  0.00    -0.273 NA
HETATM   25  H   UNL     1      28.054  46.911  54.775  1.00  0.00     0.129 HD
BRANCH  24  26
HETATM   26  C   UNL     1      26.526  45.939  53.760  1.00  0.00     0.053 C 
HETATM   27  C   UNL     1      25.943  47.334  53.544  1.00  0.00     0.026 C 
HETATM   28  C   UNL     1      25.459  45.010  54.342  1.00  0.00     0.026 C 
ENDBRANCH  24  26
ENDBRANCH   1  24
TORSDOF 7
ENDMDL
MODEL 2
REMARK VINA RESULT:      -7.9      1.217      3.612
REMARK  7 active torsions:
REMARK  status: ('A' for Active; 'I' for Inactive)
REMARK    1  A    between atoms: C_2  and  N_3 
REMARK    2  A    between atoms: N_3  and  C_4 
REMARK    3  A    between atoms: C_6  and  N_7 
REMARK    4  A    between atoms: N_7  and  C_8 
REMARK    5  A    between atoms: C_8  and  C_9 
REMARK    6  A    between atoms: C_9  and  C_10 
REMARK    7  A    between atoms: C_13  and  O_14 
ROOT
HETATM    1  C   UNL     1      29.290  44.286  55.023  1.00  0.00     0.119 A 
HETATM    2  N   UNL     1      29.035  43.042  54.577  1.00  0.00    -0.207 NA
HETATM    3  C   UNL     1      27.876  42.813  53.941  1.00  0.00     0.181 A 
HETATM    4  N   UNL     1      26.993  43.779  53.703  1.00  0.00    -0.330 N 
HETATM    5  H   UNL     1      26.177  43.534  53.158  1.00  0.00     0.168 HD
HETATM    6  C   UNL     1      27.202  45.037  54.105  1.00  0.00     0.048 A 
HETATM    7  C   UNL     1      28.387  45.347  54.799  1.00  0.00     0.031 A 
HETATM    8  C   UNL     1      26.249  46.029  53.828  1.00  0.00     0.030 A 
HETATM    9  C   UNL     1      26.467  47.344  54.239  1.00  0.00     0.002 A 
HETATM   10  C   UNL     1      27.635  47.674  54.919  1.00  0.00     0.001 A 
HETATM   11  C   UNL     1      28.588  46.690  55.194  1.00  0.00     0.017 A 
ENDROOT
BRANCH   3  12
HETATM   12  N   UNL     1      27.539  41.548  53.474  1.00  0.00    -0.262 NA
HETATM   13  H   UNL     1      27.796  40.801  54.112  1.00  0.00     0.130 HD
BRANCH  12  14
HETATM   14  C   UNL     1      27.978  41.258  52.099  1.00  0.00     0.100 C 
BRANCH  14  15
HETATM   15  C   UNL     1      26.753  41.127  51.185  1.00  0.00     0.053 C 
BRANCH  15  16
HETATM   16  C   UNL     1      26.225  42.467  50.743  1.00  0.00    -0.057 A 
HETATM   17  C   UNL     1      24.870  42.782  50.900  1.00  0.00     0.010 A 
HETATM   18  C   UNL     1      24.385  44.026  50.490  1.00  0.00     0.037 A 
HETATM   19  C   UNL     1      25.239  44.973  49.922  1.00  0.00     0.068 A 
HETATM   20  C   UNL     1      26.586  44.660  49.753  1.00  0.00     0.037 A 
HETATM   21  C   UNL     1      27.077  43.412  50.158  1.00  0.00     0.010 A 
BRANCH  19  22
HETATM   22  O   UNL     1      24.635  46.150  49.577  1.00  0.00    -0.356 OA
HETATM   23  C   UNL     1      24.733  47.222  50.508  1.00  0.00     0.210 C 
ENDBRANCH  19  22
ENDBRANCH  15  16
ENDBRANCH  14  15
ENDBRANCH  12  14
ENDBRANCH   3  12
BRANCH   1  24
HETATM   24  N   UNL     1      30.504  44.540  55.664  1.00  0.00    -0.273 NA
HETATM   25  H   UNL     1      30.831  45.491  55.508  1.00  0.00     0.129 HD
BRANCH  24  26
HETATM   26  C   UNL     1      30.679  44.120  57.059  1.00  0.00     0.053 C 
HETATM   27  C   UNL     1      30.685  45.326  57.996  1.00  0.00     0.026 C 
HETATM   28  C   UNL     1      32.010  43.373  57.158  1.00  0.00     0.026 C 
ENDBRANCH  24  26
ENDBRANCH   1  24
TORSDOF 7
ENDMDL
MODEL 3
REMARK VINA RESULT:      -7.8      1.386      3.677
REMARK  7 active torsions:
REMARK  status: ('A' for Active; 'I' for Inactive)
REMARK    1  A    between atoms: C_2  and  N_3 
REMARK    2  A    between atoms: N_3  and  C_4 
REMARK    3  A    between atoms: C_6  and  N_7 
REMARK    4  A    between atoms: N_7  and  C_8 
REMARK    5  A    between atoms: C_8  and  C_9 
REMARK    6  A    between atoms: C_9  and  C_10 
REMARK    7  A    between atoms: C_13  and  O_14 
ROOT
HETATM    1  C   UNL     1      29.190  44.245  54.513  1.00  0.00     0.119 A 
HETATM    2  N   UNL     1      28.287  45.213  54.270  1.00  0.00    -0.207 NA
HETATM    3  C   UNL     1      28.133  46.189  55.177  1.00  0.00     0.181 A 
HETATM    4  N   UNL     1      28.868  46.253  56.285  1.00  0.00    -0.330 N 
HETATM    5  H   UNL     1      28.734  47.059  56.881  1.00  0.00     0.168 HD
HETATM    6  C   UNL     1      29.793  45.331  56.568  1.00  0.00     0.048 A 
HETATM    7  C   UNL     1      29.994  44.264  55.672  1.00  0.00     0.031 A 
HETATM    8  C   UNL     1      30.553  45.437  57.743  1.00  0.00     0.030 A 
HETATM    9  C   UNL     1      31.524  44.481  58.038  1.00  0.00     0.002 A 
HETATM   10  C   UNL     1      31.746  43.424  57.162  1.00  0.00     0.001 A 
HETATM   11  C   UNL     1      30.994  43.315  55.990  1.00  0.00     0.017 A 
ENDROOT
BRANCH   3  12
HETATM   12  N   UNL     1      27.203  47.208  55.002  1.00  0.00    -0.262 NA
HETATM   13  H   UNL     1      26.948  47.674  55.867  1.00  0.00     0.130 HD
BRANCH  12  14
HETATM   14  C   UNL     1      26.013  46.832  54.221  1.00  0.00     0.100 C 
BRANCH  14  15
HETATM   15  C   UNL     1      26.182  47.300  52.769  1.00  0.00     0.053 C 
BRANCH  15  16
HETATM   16  C   UNL     1      25.789  46.236  51.777  1.00  0.00    -0.057 A 
HETATM   17  C   UNL     1      24.957  45.179  52.163  1.00  0.00     0.010 A 
HETATM   18  C   UNL     1      24.594  44.196  51.239  1.00  0.00     0.037 A 
HETATM   19  C   UNL     1      25.050  44.253  49.921  1.00  0.00     0.068 A 
HETATM   20  C   UNL     1      25.888  45.296  49.536  1.00  0.00     0.037 A 
HETATM   21  C   UNL     1      26.258  46.282  50.459  1.00  0.00     0.010 A 
BRANCH  19  22
HETATM   22  O   UNL     1      24.610  43.234  49.122  1.00  0.00    -0.356 OA
HETATM   23  C   UNL     1      23.771  43.591  48.029  1.00  0.00     0.210 C 
ENDBRANCH  19  22
ENDBRANCH  15  16
ENDBRANCH  14  15
ENDBRANCH  12  14
ENDBRANCH   3  12
BRANCH   1  24
HETATM   24  N   UNL     1      29.375  43.239  53.562  1.00  0.00    -0.273 NA
HETATM   25  H   UNL     1      30.181  42.654  53.773  1.00  0.00     0.129 HD
BRANCH  24  26
HETATM   26  C   UNL     1      28.220  42.447  53.123  1.00  0.00     0.053 C 
HETATM   27  C   UNL     1      28.459  40.957  53.355  1.00  0.00     0.026 C 
HETATM   28  C   UNL     1      28.009  42.718  51.632  1.00  0.00     0.026 C 
ENDBRANCH  24  26
ENDBRANCH   1  24
TORSDOF 7
ENDMDL
MODEL 4
REMARK VINA RESULT:      -7.7      1.540      2.394
REMARK  7 active torsions:
REMARK  status: ('A' for Active; 'I' for Inactive)
REMARK    1  A    between atoms: C_2  and  N_3 
REMARK    2  A    between atoms: N_3  and  C_4 
REMARK    3  A    between atoms: C_6  and  N_7 
REMARK    4  A    between atoms: N_7  and  C_8 
REMARK    5  A    between atoms: C_8  and  C_9 
REMARK    6  A    between atoms: C_9  and  C_10 
REMARK    7  A    between atoms: C_13  and  O_14 
ROOT
HETATM    1  C   UNL     1      27.119  44.772  54.209  1.00  0.00     0.119 A 
HETATM    2  N   UNL     1      26.539  44.006  53.266  1.00  0.00    -0.207 NA
HETATM    3  C   UNL     1      27.237  42.980  52.755  1.00  0.00     0.181 A 
HETATM    4  N   UNL     1      28.461  42.672  53.177  1.00  0.00    -0.330 N 
HETATM    5  H   UNL     1      28.888  41.843  52.787  1.00  0.00     0.168 HD
HETATM    6  C   UNL     1      29.077  43.386  54.124  1.00  0.00     0.048 A 
HETATM    7  C   UNL     1      28.415  44.491  54.690  1.00  0.00     0.031 A 
HETATM    8  C   UNL     1      30.367  43.024  54.547  1.00  0.00     0.030 A 
HETATM    9  C   UNL     1      31.010  43.762  55.540  1.00  0.00     0.002 A 
HETATM   10  C   UNL     1      30.370  44.853  56.120  1.00  0.00     0.001 A 
HETATM   11  C   UNL     1      29.086  45.214  55.704  1.00  0.00     0.017 A 
ENDROOT
BRANCH   3  12
HETATM   12  N   UNL     1      26.709  42.161  51.763  1.00  0.00    -0.262 NA
HETATM   13  H   UNL     1      27.409  41.807  51.118  1.00  0.00     0.130 HD
BRANCH  12  14
HETATM   14  C   UNL     1      25.552  42.724  51.048  1.00  0.00     0.100 C 
BRANCH  14  15
HETATM   15  C   UNL     1      26.020  43.362  49.734  1.00  0.00     0.053 C 
BRANCH  15  16
HETATM   16  C   UNL     1      25.749  44.842  49.689  1.00  0.00    -0.057 A 
HETATM   17  C   UNL     1      26.805  45.759  49.745  1.00  0.00     0.010 A 
HETATM   18  C   UNL     1      26.549  47.132  49.702  1.00  0.00     0.037 A 
HETATM   19  C   UNL     1      25.242  47.610  49.598  1.00  0.00     0.068 A 
HETATM   20  C   UNL     1      24.187  46.702  49.553  1.00  0.00     0.037 A 
HETATM   21  C   UNL     1      24.437  45.325  49.601  1.00  0.00     0.010 A 
BRANCH  19  22
HETATM   22  O   UNL     1      25.136  48.973  49.554  1.00  0.00    -0.356 OA
HETATM   23  C   UNL     1      24.377  49.525  48.485  1.00  0.00     0.210 C 
ENDBRANCH  19  22
ENDBRANCH  15  16
ENDBRANCH  14  15
ENDBRANCH  12  14
ENDBRANCH   3  12
BRANCH   1  24
HETATM   24  N   UNL     1      26.392  45.826  54.764  1.00  0.00    -0.273 NA
HETATM   25  H   UNL     1      26.384  45.795  55.782  1.00  0.00     0.129 HD
BRANCH  24  26
HETATM   26  C   UNL     1      26.604  47.187  54.258  1.00  0.00     0.053 C 
HETATM   27  C   UNL     1      26.533  48.209  55.391  1.00  0.00     0.026 C 
HETATM   28  C   UNL     1      25.514  47.476  53.224  1.00  0.00     0.026 C 
ENDBRANCH  24  26
ENDBRANCH   1  24
TORSDOF 7
ENDMDL
MODEL 5
REMARK VINA RESULT:      -7.6      1.304      1.588
REMARK  7 active torsions:
REMARK  status: ('A' for Active; 'I' for Inactive)
REMARK    1  A    between atoms: C_2  and  N_3 
REMARK    2  A    between atoms: N_3  and  C_4 
REMARK    3  A    between atoms: C_6  and  N_7 
REMARK    4  A    between atoms: N_7  and  C_8 
REMARK    5  A    between atoms: C_8  and  C_9 
REMARK    6  A    between atoms: C_9  and  C_10 
REMARK    7  A    between atoms: C_13  and  O_14 
ROOT
HETATM    1  C   UNL     1      28.716  44.960  54.784  1.00  0.00     0.119 A 
HETATM    2  N   UNL     1      28.790  44.077  53.770  1.00  0.00    -0.207 NA
HETATM    3  C   UNL     1      29.740  43.130  53.813  1.00  0.00     0.181 A 
HETATM    4  N   UNL     1      30.580  43.011  54.838  1.00  0.00    -0.330 N 
HETATM    5  H   UNL     1      31.220  42.228  54.821  1.00  0.00     0.168 HD
HETATM    6  C   UNL     1      30.539  43.847  55.880  1.00  0.00     0.048 A 
HETATM    7  C   UNL     1      29.583  44.880  55.894  1.00  0.00     0.031 A 
HETATM    8  C   UNL     1      31.438  43.683  56.945  1.00  0.00     0.030 A 
HETATM    9  C   UNL     1      31.393  44.548  58.038  1.00  0.00     0.002 A 
HETATM   10  C   UNL     1      30.451  45.571  58.077  1.00  0.00     0.001 A 
HETATM   11  C   UNL     1      29.552  45.735  57.020  1.00  0.00     0.017 A 
ENDROOT
BRANCH   3  12
HETATM   12  N   UNL     1      29.888  42.201  52.789  1.00  0.00    -0.262 NA
HETATM   13  H   UNL     1      30.128  42.620  51.896  1.00  0.00     0.130 HD
BRANCH  12  14
HETATM   14  C   UNL     1      28.777  41.244  52.656  1.00  0.00     0.100 C 
BRANCH  14  15
HETATM   15  C   UNL     1      28.377  41.124  51.180  1.00  0.00     0.053 C 
BRANCH  15  16
HETATM   16  C   UNL     1      26.991  41.653  50.920  1.00  0.00    -0.057 A 
HETATM   17  C   UNL     1      26.150  41.017  50.000  1.00  0.00     0.010 A 
HETATM   18  C   UNL     1      24.864  41.510  49.763  1.00  0.00     0.037 A 
HETATM   19  C   UNL     1      24.398  42.639  50.438  1.00  0.00     0.068 A 
HETATM   20  C   UNL     1      25.235  43.283  51.346  1.00  0.00     0.037 A 
HETATM   21  C   UNL     1      26.526  42.795  51.584  1.00  0.00     0.010 A 
BRANCH  19  22
HETATM   22  O   UNL     1      23.120  43.006  50.119  1.00  0.00    -0.356 OA
HETATM   23  C   UNL     1      22.959  44.237  49.423  1.00  0.00     0.210 C 
ENDBRANCH  19  22
ENDBRANCH  15  16
ENDBRANCH  14  15
ENDBRANCH  12  14
ENDBRANCH   3  12
BRANCH   1  24
HETATM   24  N   UNL     1      27.715  45.933  54.761  1.00  0.00    -0.273 NA
HETATM   25  H   UNL     1      28.094  46.877  54.798  1.00  0.00     0.129 HD
BRANCH  24  26
HETATM   26  C   UNL     1      26.626  45.817  53.784  1.00  0.00     0.053 C 
HETATM   27  C   UNL     1      26.141  47.196  53.340  1.00  0.00     0.026 C 
HETATM   28  C   UNL     1      25.482  45.049  54.449  1.00  0.00     0.026 C 
ENDBRANCH  24  26
ENDBRANCH   1  24
TORSDOF 7
ENDMDL
MODEL 6
REMARK VINA RESULT:      -7.6      2.887      7.100
REMARK  7 active torsions:
REMARK  status: ('A' for Active; 'I' for Inactive)
REMARK    1  A    between atoms: C_2  and  N_3 
REMARK    2  A    between atoms: N_3  and  C_4 
REMARK    3  A    between atoms: C_6  and  N_7 
REMARK    4  A    between atoms: N_7  and  C_8 
REMARK    5  A    between atoms: C_8  and  C_9 
REMARK    6  A    between atoms: C_9  and  C_10 
REMARK    7  A    between atoms: C_13  and  O_14 
ROOT
HETATM    1  C   UNL     1      26.964  42.109  49.280  1.00  0.00     0.119 A 
HETATM    2  N   UNL     1      27.658  41.222  50.018  1.00  0.00    -0.207 NA
HETATM    3  C   UNL     1      27.519  41.251  51.352  1.00  0.00     0.181 A 
HETATM    4  N   UNL     1      26.693  42.095  51.964  1.00  0.00    -0.330 N 
HETATM    5  H   UNL     1      26.599  42.004  52.966  1.00  0.00     0.168 HD
HETATM    6  C   UNL     1      25.965  42.984  51.280  1.00  0.00     0.048 A 
HETATM    7  C   UNL     1      26.076  43.028  49.877  1.00  0.00     0.031 A 
HETATM    8  C   UNL     1      25.099  43.853  51.961  1.00  0.00     0.030 A 
HETATM    9  C   UNL     1      24.332  44.776  51.251  1.00  0.00     0.002 A 
HETATM   10  C   UNL     1      24.419  44.830  49.864  1.00  0.00     0.001 A 
HETATM   11  C   UNL     1      25.277  43.965  49.181  1.00  0.00     0.017 A 
ENDROOT
BRANCH   3  12
HETATM   12  N   UNL     1      28.222  40.379  52.177  1.00  0.00    -0.262 NA
HETATM   13  H   UNL     1      27.721  39.518  52.373  1.00  0.00     0.130 HD
BRANCH  12  14
HETATM   14  C   UNL     1      28.755  40.986  53.407  1.00  0.00     0.100 C 
BRANCH  14  15
HETATM   15  C   UNL     1      29.687  42.150  53.045  1.00  0.00     0.053 C 
BRANCH  15  16
HETATM   16  C   UNL     1      29.723  43.208  54.116  1.00  0.00    -0.057 A 
HETATM   17  C   UNL     1      28.794  44.255  54.110  1.00  0.00     0.010 A 
HETATM   18  C   UNL     1      28.829  45.233  55.107  1.00  0.00     0.037 A 
HETATM   19  C   UNL     1      29.785  45.182  56.122  1.00  0.00     0.068 A 
HETATM   20  C   UNL     1      30.720  44.149  56.126  1.00  0.00     0.037 A 
HETATM   21  C   UNL     1      30.691  43.168  55.127  1.00  0.00     0.010 A 
BRANCH  19  22
HETATM   22  O   UNL     1      29.699  46.195  57.037  1.00  0.00    -0.356 OA
HETATM   23  C   UNL     1      30.556  46.112  58.171  1.00  0.00     0.210 C 
ENDBRANCH  19  22
ENDBRANCH  15  16
ENDBRANCH  14  15
ENDBRANCH  12  14
ENDBRANCH   3  12
BRANCH   1  24
HETATM   24  N   UNL     1      27.083  42.071  47.890  1.00  0.00    -0.273 NA
HETATM   25  H   UNL     1      27.884  42.602  47.556  1.00  0.00     0.129 HD
BRANCH  24  26
HETATM   26  C   UNL     1      26.948  40.785  47.194  1.00  0.00     0.053 C 
HETATM   27  C   UNL     1      28.031  40.624  46.129  1.00  0.00     0.026 C 
HETATM   28  C   UNL     1      25.564  40.749  46.544  1.00  0.00     0.026 C 
ENDBRANCH  24  26
ENDBRANCH   1  24
TORSDOF 7
ENDMDL
MODEL 7
REMARK VINA RESULT:      -7.6      2.955      4.226
REMARK  7 active torsions:
REMARK  status: ('A' for Active; 'I' for Inactive)
REMARK    1  A    between atoms: C_2  and  N_3 
REMARK    2  A    between atoms: N_3  and  C_4 
REMARK    3  A    between atoms: C_6  and  N_7 
REMARK    4  A    between atoms: N_7  and  C_8 
REMARK    5  A    between atoms: C_8  and  C_9 
REMARK    6  A    between atoms: C_9  and  C_10 
REMARK    7  A    between atoms: C_13  and  O_14 
ROOT
HETATM    1  C   UNL     1      28.681  44.992  54.531  1.00  0.00     0.119 A 
HETATM    2  N   UNL     1      28.798  44.109  53.522  1.00  0.00    -0.207 NA
HETATM    3  C   UNL     1      29.746  43.162  53.606  1.00  0.00     0.181 A 
HETATM    4  N   UNL     1      30.542  43.044  54.665  1.00  0.00    -0.330 N 
HETATM    5  H   UNL     1      31.182  42.262  54.676  1.00  0.00     0.168 HD
HETATM    6  C   UNL     1      30.457  43.881  55.704  1.00  0.00     0.048 A 
HETATM    7  C   UNL     1      29.501  44.914  55.677  1.00  0.00     0.031 A 
HETATM    8  C   UNL     1      31.311  43.719  56.806  1.00  0.00     0.030 A 
HETATM    9  C   UNL     1      31.220  44.585  57.896  1.00  0.00     0.002 A 
HETATM   10  C   UNL     1      30.276  45.607  57.893  1.00  0.00     0.001 A 
HETATM   11  C   UNL     1      29.423  45.771  56.800  1.00  0.00     0.017 A 
ENDROOT
BRANCH   3  12
HETATM   12  N   UNL     1      29.937  42.231  52.591  1.00  0.00    -0.262 NA
HETATM   13  H   UNL     1      29.977  42.647  51.665  1.00  0.00     0.130 HD
BRANCH  12  14
HETATM   14  C   UNL     1      29.019  41.081  52.625  1.00  0.00     0.100 C 
BRANCH  14  15
HETATM   15  C   UNL     1      28.038  41.170  51.449  1.00  0.00     0.053 C 
BRANCH  15  16
HETATM   16  C   UNL     1      28.347  40.166  50.370  1.00  0.00    -0.057 A 
HETATM   17  C   UNL     1      27.981  40.417  49.043  1.00  0.00     0.010 A 
HETATM   18  C   UNL     1      28.271  39.483  48.044  1.00  0.00     0.037 A 
HETATM   19  C   UNL     1      28.931  38.292  48.351  1.00  0.00     0.068 A 
HETATM   20  C   UNL     1      29.287  38.033  49.673  1.00  0.00     0.037 A 
HETATM   21  C   UNL     1      28.994  38.963  50.678  1.00  0.00     0.010 A 
BRANCH  19  22
HETATM   22  O   UNL     1      29.161  37.475  47.279  1.00  0.00    -0.356 OA
HETATM   23  C   UNL     1      28.407  37.733  46.100  1.00  0.00     0.210 C 
ENDBRANCH  19  22
ENDBRANCH  15  16
ENDBRANCH  14  15
ENDBRANCH  12  14
ENDBRANCH   3  12
BRANCH   1  24
HETATM   24  N   UNL     1      27.682  45.966  54.465  1.00  0.00    -0.273 NA
HETATM   25  H   UNL     1      28.064  46.904  54.366  1.00  0.00     0.129 HD
BRANCH  24  26
HETATM   26  C   UNL     1      26.526  45.747  53.587  1.00  0.00     0.053 C 
HETATM   27  C   UNL     1      25.875  47.073  53.202  1.00  0.00     0.026 C 
HETATM   28  C   UNL     1      25.525  44.872  54.344  1.00  0.00     0.026 C 
ENDBRANCH  24  26
ENDBRANCH   1  24
TORSDOF 7
ENDMDL
MODEL 8
REMARK VINA RESULT:      -7.5      1.911      4.290
REMARK  7 active torsions:
REMARK  status: ('A' for Active; 'I' for Inactive)
REMARK    1  A    between atoms: C_2  and  N_3 
REMARK    2  A    between atoms: N_3  and  C_4 
REMARK    3  A    between atoms: C_6  and  N_7 
REMARK    4  A    between atoms: N_7  and  C_8 
REMARK    5  A    between atoms: C_8  and  C_9 
REMARK    6  A    between atoms: C_9  and  C_10 
REMARK    7  A    between atoms: C_13  and  O_14 
ROOT
HETATM    1  C   UNL     1      28.854  43.797  53.919  1.00  0.00     0.119 A 
HETATM    2  N   UNL     1      27.781  44.509  53.528  1.00  0.00    -0.207 NA
HETATM    3  C   UNL     1      27.370  45.525  54.302  1.00  0.00     0.181 A 
HETATM    4  N   UNL     1      28.010  45.875  55.415  1.00  0.00    -0.330 N 
HETATM    5  H   UNL     1      27.673  46.695  55.902  1.00  0.00     0.168 HD
HETATM    6  C   UNL     1      29.092  45.216  55.840  1.00  0.00     0.048 A 
HETATM    7  C   UNL     1      29.568  44.123  55.091  1.00  0.00     0.031 A 
HETATM    8  C   UNL     1      29.743  45.621  57.016  1.00  0.00     0.030 A 
HETATM    9  C   UNL     1      30.877  44.941  57.458  1.00  0.00     0.002 A 
HETATM   10  C   UNL     1      31.369  43.864  56.728  1.00  0.00     0.001 A 
HETATM   11  C   UNL     1      30.727  43.459  55.556  1.00  0.00     0.017 A 
ENDROOT
BRANCH   3  12
HETATM   12  N   UNL     1      26.256  46.289  53.971  1.00  0.00    -0.262 NA
HETATM   13  H   UNL     1      25.407  45.741  53.873  1.00  0.00     0.130 HD
BRANCH  12  14
HETATM   14  C   UNL     1      26.446  47.198  52.829  1.00  0.00     0.100 C 
BRANCH  14  15
HETATM   15  C   UNL     1      26.037  46.487  51.533  1.00  0.00     0.053 C 
BRANCH  15  16
HETATM   16  C   UNL     1      25.627  47.456  50.455  1.00  0.00    -0.057 A 
HETATM   17  C   UNL     1      24.287  47.556  50.063  1.00  0.00     0.010 A 
HETATM   18  C   UNL     1      23.911  48.457  49.064  1.00  0.00     0.037 A 
HETATM   19  C   UNL     1      24.860  49.272  48.445  1.00  0.00     0.068 A 
HETATM   20  C   UNL     1      26.197  49.168  48.823  1.00  0.00     0.037 A 
HETATM   21  C   UNL     1      26.580  48.263  49.821  1.00  0.00     0.010 A 
BRANCH  19  22
HETATM   22  O   UNL     1      24.354  50.114  47.494  1.00  0.00    -0.356 OA
HETATM   23  C   UNL     1      23.001  50.526  47.652  1.00  0.00     0.210 C 
ENDBRANCH  19  22
ENDBRANCH  15  16
ENDBRANCH  14  15
ENDBRANCH  12  14
ENDBRANCH   3  12
BRANCH   1  24
HETATM   24  N   UNL     1      29.304  42.753  53.108  1.00  0.00    -0.273 NA
HETATM   25  H   UNL     1      30.201  42.384  53.416  1.00  0.00     0.129 HD
BRANCH  24  26
HETATM   26  C   UNL     1      28.371  41.684  52.732  1.00  0.00     0.053 C 
HETATM   27  C   UNL     1      27.749  41.042  53.969  1.00  0.00     0.026 C 
HETATM   28  C   UNL     1      29.155  40.638  51.937  1.00  0.00     0.026 C 
ENDBRANCH  24  26
ENDBRANCH   1  24
TORSDOF 7
ENDMDL
MODEL 9
REMARK VINA RESULT:      -7.4      2.236      4.463
REMARK  7 active torsions:
REMARK  status: ('A' for Active; 'I' for Inactive)
REMARK    1  A    between atoms: C_2  and  N_3 
REMARK    2  A    between atoms: N_3  and  C_4 
REMARK    3  A    between atoms: C_6  and  N_7 
REMARK    4  A    between atoms: N_7  and  C_8 
REMARK    5  A    between atoms: C_8  and  C_9 
REMARK    6  A    between atoms: C_9  and  C_10 
REMARK    7  A    between atoms: C_13  and  O_14 
ROOT
HETATM    1  C   UNL     1      27.097  43.804  53.693  1.00  0.00     0.119 A 
HETATM    2  N   UNL     1      26.011  43.526  52.948  1.00  0.00    -0.207 NA
HETATM    3  C   UNL     1      25.134  44.511  52.700  1.00  0.00     0.181 A 
HETATM    4  N   UNL     1      25.322  45.756  53.131  1.00  0.00    -0.330 N 
HETATM    5  H   UNL     1      24.646  46.451  52.842  1.00  0.00     0.168 HD
HETATM    6  C   UNL     1      26.392  46.093  53.858  1.00  0.00     0.048 A 
HETATM    7  C   UNL     1      27.343  45.106  54.177  1.00  0.00     0.031 A 
HETATM    8  C   UNL     1      26.557  47.419  54.288  1.00  0.00     0.030 A 
HETATM    9  C   UNL     1      27.676  47.777  55.039  1.00  0.00     0.002 A 
HETATM   10  C   UNL     1      28.634  46.819  55.358  1.00  0.00     0.001 A 
HETATM   11  C   UNL     1      28.474  45.499  54.930  1.00  0.00     0.017 A 
ENDROOT
BRANCH   3  12
HETATM   12  N   UNL     1      23.980  44.289  51.957  1.00  0.00    -0.262 NA
HETATM   13  H   UNL     1      23.203  43.943  52.512  1.00  0.00     0.130 HD
BRANCH  12  14
HETATM   14  C   UNL     1      24.173  43.485  50.739  1.00  0.00     0.100 C 
BRANCH  14  15
HETATM   15  C   UNL     1      23.955  44.365  49.502  1.00  0.00     0.053 C 
BRANCH  15  16
HETATM   16  C   UNL     1      24.779  45.626  49.545  1.00  0.00    -0.057 A 
HETATM   17  C   UNL     1      26.177  45.559  49.542  1.00  0.00     0.010 A 
HETATM   18  C   UNL     1      26.937  46.730  49.581  1.00  0.00     0.037 A 
HETATM   19  C   UNL     1      26.319  47.981  49.619  1.00  0.00     0.068 A 
HETATM   20  C   UNL     1      24.928  48.052  49.634  1.00  0.00     0.037 A 
HETATM   21  C   UNL     1      24.161  46.881  49.600  1.00  0.00     0.010 A 
BRANCH  19  22
HETATM   22  O   UNL     1      27.181  49.042  49.643  1.00  0.00    -0.356 OA
HETATM   23  C   UNL     1      27.103  49.960  48.558  1.00  0.00     0.210 C 
ENDBRANCH  19  22
ENDBRANCH  15  16
ENDBRANCH  14  15
ENDBRANCH  12  14
ENDBRANCH   3  12
BRANCH   1  24
HETATM   24  N   UNL     1      28.028  42.792  53.935  1.00  0.00    -0.273 NA
HETATM   25  H   UNL     1      27.621  42.006  54.438  1.00  0.00     0.129 HD
BRANCH  24  26
HETATM   26  C   UNL     1      28.907  42.352  52.845  1.00  0.00     0.053 C 
HETATM   27  C   UNL     1      28.863  40.834  52.688  1.00  0.00     0.026 C 
HETATM   28  C   UNL     1      30.329  42.803  53.181  1.00  0.00     0.026 C 
ENDBRANCH  24  26
ENDBRANCH   1  24
TORSDOF 7
ENDMDL
MODEL 10
REMARK VINA RESULT:      -7.4      3.813      7.666
REMARK  7 active torsions:
REMARK  status: ('A' for Active; 'I' for Inactive)
REMARK    1  A    between atoms: C_2  and  N_3 
REMARK    2  A    between atoms: N_3  and  C_4 
REMARK    3  A    between atoms: C_6  and  N_7 
REMARK    4  A    between atoms: N_7  and  C_8 
REMARK    5  A    between atoms: C_8  and  C_9 
REMARK    6  A    between atoms: C_9  and  C_10 
REMARK    7  A    between atoms: C_13  and  O_14 
ROOT
HETATM    1  C   UNL     1      23.793  48.085  49.104  1.00  0.00     0.119 A 
HETATM    2  N   UNL     1      23.534  46.998  49.855  1.00  0.00    -0.207 NA
HETATM    3  C   UNL     1      24.552  46.404  50.495  1.00  0.00     0.181 A 
HETATM    4  N   UNL     1      25.795  46.875  50.445  1.00  0.00    -0.330 N 
HETATM    5  H   UNL     1      26.489  46.406  51.012  1.00  0.00     0.168 HD
HETATM    6  C   UNL     1      26.107  47.962  49.732  1.00  0.00     0.048 A 
HETATM    7  C   UNL     1      25.093  48.625  49.015  1.00  0.00     0.031 A 
HETATM    8  C   UNL     1      27.430  48.431  49.710  1.00  0.00     0.030 A 
HETATM    9  C   UNL     1      27.757  49.569  48.974  1.00  0.00     0.002 A 
HETATM   10  C   UNL     1      26.769  50.245  48.265  1.00  0.00     0.001 A 
HETATM   11  C   UNL     1      25.451  49.783  48.286  1.00  0.00     0.017 A 
ENDROOT
BRANCH   3  12
HETATM   12  N   UNL     1      24.360  45.265  51.270  1.00  0.00    -0.262 NA
HETATM   13  H   UNL     1      23.677  45.392  52.010  1.00  0.00     0.130 HD
BRANCH  12  14
HETATM   14  C   UNL     1      25.596  44.647  51.777  1.00  0.00     0.100 C 
BRANCH  14  15
HETATM   15  C   UNL     1      25.696  44.866  53.292  1.00  0.00     0.053 C 
BRANCH  15  16
HETATM   16  C   UNL     1      27.072  44.561  53.824  1.00  0.00    -0.057 A 
HETATM   17  C   UNL     1      27.743  43.398  53.430  1.00  0.00     0.010 A 
HETATM   18  C   UNL     1      29.019  43.119  53.924  1.00  0.00     0.037 A 
HETATM   19  C   UNL     1      29.646  43.994  54.813  1.00  0.00     0.068 A 
HETATM   20  C   UNL     1      28.978  45.148  55.218  1.00  0.00     0.037 A 
HETATM   21  C   UNL     1      27.696  45.429  54.728  1.00  0.00     0.010 A 
BRANCH  19  22
HETATM   22  O   UNL     1      30.896  43.606  55.209  1.00  0.00    -0.356 OA
HETATM   23  C   UNL     1      31.062  43.276  56.583  1.00  0.00     0.210 C 
ENDBRANCH  19  22
ENDBRANCH  15  16
ENDBRANCH  14  15
ENDBRANCH  12  14
ENDBRANCH   3  12
BRANCH   1  24
HETATM   24  N   UNL     1      22.736  48.726  48.454  1.00  0.00    -0.273 NA
HETATM   25  H   UNL     1      22.220  48.095  47.844  1.00  0.00     0.129 HD
BRANCH  24  26
HETATM   26  C   UNL     1      21.842  49.596  49.227  1.00  0.00     0.053 C 
HETATM   27  C   UNL     1      20.431  49.015  49.287  1.00  0.00     0.026 C 
HETATM   28  C   UNL     1      21.816  50.964  48.542  1.00  0.00     0.026 C 
ENDBRANCH  24  26
ENDBRANCH   1  24
TORSDOF 7
ENDMDL
