MODEL 1
REMARK VINA RESULT:      -9.3      0.000      0.000
REMARK  3 active torsions:
REMARK  status: ('A' for Active; 'I' for Inactive)
REMARK    1  A    between atoms: C_2  and  C_3 
REMARK    2  A    between atoms: C_8  and  C_9 
REMARK    3  A    between atoms: C_9  and  N_10 
ROOT
HETATM    1  C   UNL     1      26.240  48.232  49.417  1.00  0.00     0.096 A 
HETATM    2  N   UNL     1      27.373  48.818  49.008  1.00  0.00    -0.174 NA
HETATM    3  N   UNL     1      26.989  49.853  48.255  1.00  0.00    -0.288 N 
HETATM    4  H   UNL     1      27.708  50.418  47.810  1.00  0.00     0.188 HD
HETATM    5  C   UNL     1      25.637  50.009  48.219  1.00  0.00     0.120 A 
HETATM    6  C   UNL     1      25.100  48.975  48.965  1.00  0.00     0.016 A 
ENDROOT
BRANCH   6   7
HETATM    7  C   UNL     1      23.656  48.744  49.217  1.00  0.00     0.277 C 
BRANCH   7   8
HETATM    8  N   UNL     1      22.773  48.820  47.984  1.00  0.00    -0.067 N 
HETATM    9  H   UNL     1      23.424  48.705  47.194  1.00  0.00     0.280 HD
HETATM   10  C   UNL     1      22.129  50.176  47.798  1.00  0.00     0.242 C 
HETATM   11  C   UNL     1      20.994  50.361  48.798  1.00  0.00     0.041 C 
HETATM   12  C   UNL     1      19.966  49.234  48.660  1.00  0.00     0.128 C 
HETATM   13  C   UNL     1      20.287  51.712  48.638  1.00  0.00     0.011 C 
HETATM   14  O   UNL     1      18.970  49.376  49.670  1.00  0.00    -0.385 OA
HETATM   15  C   UNL     1      20.625  47.868  48.824  1.00  0.00     0.060 C 
HETATM   16  C   UNL     1      18.214  50.583  49.524  1.00  0.00     0.168 C 
HETATM   17  C   UNL     1      19.118  51.808  49.619  1.00  0.00     0.027 C 
HETATM   18  C   UNL     1      21.776  47.693  47.850  1.00  0.00     0.237 C 
ENDBRANCH   7   8
ENDBRANCH   6   7
BRANCH   1  19
HETATM   19  C   UNL     1      26.304  47.041  50.271  1.00  0.00    -0.002 A 
HETATM   20  C   UNL     1      26.781  45.832  49.738  1.00  0.00     0.017 A 
HETATM   21  C   UNL     1      26.880  44.685  50.531  1.00  0.00     0.040 A 
HETATM   22  C   UNL     1      26.512  44.739  51.871  1.00  0.00     0.102 A 
HETATM   23  C   UNL     1      26.004  45.925  52.403  1.00  0.00     0.103 A 
HETATM   24  O   UNL     1      26.657  43.587  52.595  1.00  0.00    -0.346 OA
HETATM   25  C   UNL     1      25.895  47.068  51.610  1.00  0.00     0.053 A 
HETATM   26  O   UNL     1      25.602  46.047  53.708  1.00  0.00    -0.346 OA
HETATM   27  C   UNL     1      25.368  44.758  54.297  1.00  0.00     0.202 C 
HETATM   28  C   UNL     1      26.525  43.817  54.003  1.00  0.00     0.202 C 
ENDBRANCH   1  19
TORSDOF 3
ENDMDL
MODEL 2
REMARK VINA RESULT:      -9.1      1.314      7.386
REMARK  3 active torsions:
REMARK  status: ('A' for Active; 'I' for Inactive)
REMARK    1  A    between atoms: C_2  and  C_3 
REMARK    2  A    between atoms: C_8  and  C_9 
REMARK    3  A    between atoms: C_9  and  N_10 
ROOT
HETATM    1  C   UNL     1      24.950  49.192  48.783  1.00  0.00     0.096 A 
HETATM    2  N   UNL     1      25.483  49.891  47.772  1.00  0.00    -0.174 NA
HETATM    3  N   UNL     1      26.806  49.762  47.904  1.00  0.00    -0.288 N 
HETATM    4  H   UNL     1      27.407  50.254  47.248  1.00  0.00     0.188 HD
HETATM    5  C   UNL     1      27.157  48.937  48.929  1.00  0.00     0.120 A 
HETATM    6  C   UNL     1      25.980  48.536  49.534  1.00  0.00     0.016 A 
ENDROOT
BRANCH   6   7
HETATM    7  C   UNL     1      25.868  47.618  50.696  1.00  0.00     0.277 C 
BRANCH   7   8
HETATM    8  N   UNL     1      25.290  46.252  50.375  1.00  0.00    -0.067 N 
HETATM    9  H   UNL     1      24.470  46.452  49.785  1.00  0.00     0.280 HD
HETATM   10  C   UNL     1      24.757  45.532  51.595  1.00  0.00     0.242 C 
HETATM   11  C   UNL     1      25.911  45.003  52.439  1.00  0.00     0.041 C 
HETATM   12  C   UNL     1      26.814  44.091  51.605  1.00  0.00     0.128 C 
HETATM   13  C   UNL     1      25.429  44.241  53.679  1.00  0.00     0.011 C 
HETATM   14  O   UNL     1      27.937  43.691  52.389  1.00  0.00    -0.385 OA
HETATM   15  C   UNL     1      27.329  44.813  50.364  1.00  0.00     0.060 C 
HETATM   16  C   UNL     1      27.558  42.899  53.519  1.00  0.00     0.168 C 
HETATM   17  C   UNL     1      26.627  43.679  54.444  1.00  0.00     0.027 C 
HETATM   18  C   UNL     1      26.183  45.368  49.537  1.00  0.00     0.237 C 
ENDBRANCH   7   8
ENDBRANCH   6   7
BRANCH   1  19
HETATM   19  C   UNL     1      23.493  49.131  48.938  1.00  0.00    -0.002 A 
HETATM   20  C   UNL     1      22.802  47.976  48.538  1.00  0.00     0.017 A 
HETATM   21  C   UNL     1      21.417  47.875  48.697  1.00  0.00     0.040 A 
HETATM   22  C   UNL     1      20.709  48.927  49.268  1.00  0.00     0.102 A 
HETATM   23  C   UNL     1      21.380  50.094  49.638  1.00  0.00     0.103 A 
HETATM   24  O   UNL     1      19.360  48.752  49.416  1.00  0.00    -0.346 OA
HETATM   25  C   UNL     1      22.762  50.200  49.470  1.00  0.00     0.053 A 
HETATM   26  O   UNL     1      20.746  51.179  50.187  1.00  0.00    -0.346 OA
HETATM   27  C   UNL     1      19.333  51.131  49.935  1.00  0.00     0.202 C 
HETATM   28  C   UNL     1      18.777  49.753  50.258  1.00  0.00     0.202 C 
ENDBRANCH   1  19
TORSDOF 3
ENDMDL
MODEL 3
REMARK VINA RESULT:      -9.0      4.700      8.213
REMARK  3 active torsions:
REMARK  status: ('A' for Active; 'I' for Inactive)
REMARK    1  A    between atoms: C_2  and  C_3 
REMARK    2  A    between atoms: C_8  and  C_9 
REMARK    3  A    between atoms: C_9  and  N_10 
ROOT
HETATM    1  C   UNL     1      27.509  42.053  51.332  1.00  0.00     0.096 A 
HETATM    2  N   UNL     1      27.223  40.860  50.794  1.00  0.00    -0.174 NA
HETATM    3  N   UNL     1      28.173  40.031  51.233  1.00  0.00    -0.288 N 
HETATM    4  H   UNL     1      28.162  39.068  50.906  1.00  0.00     0.188 HD
HETATM    5  C   UNL     1      29.033  40.625  52.105  1.00  0.00     0.120 A 
HETATM    6  C   UNL     1      28.642  41.948  52.206  1.00  0.00     0.016 A 
ENDROOT
BRANCH   6   7
HETATM    7  C   UNL     1      29.283  42.983  53.056  1.00  0.00     0.277 C 
BRANCH   7   8
HETATM    8  N   UNL     1      28.715  43.096  54.459  1.00  0.00    -0.067 N 
HETATM    9  H   UNL     1      28.669  42.124  54.798  1.00  0.00     0.280 HD
HETATM   10  C   UNL     1      27.294  43.612  54.485  1.00  0.00     0.242 C 
HETATM   11  C   UNL     1      27.273  45.110  54.201  1.00  0.00     0.041 C 
HETATM   12  C   UNL     1      28.155  45.860  55.204  1.00  0.00     0.128 C 
HETATM   13  C   UNL     1      25.856  45.694  54.239  1.00  0.00     0.011 C 
HETATM   14  O   UNL     1      28.196  47.242  54.856  1.00  0.00    -0.385 OA
HETATM   15  C   UNL     1      29.581  45.319  55.192  1.00  0.00     0.060 C 
HETATM   16  C   UNL     1      26.913  47.868  54.956  1.00  0.00     0.168 C 
HETATM   17  C   UNL     1      25.909  47.206  54.017  1.00  0.00     0.027 C 
HETATM   18  C   UNL     1      29.603  43.822  55.443  1.00  0.00     0.237 C 
ENDBRANCH   7   8
ENDBRANCH   6   7
BRANCH   1  19
HETATM   19  C   UNL     1      26.653  43.208  51.042  1.00  0.00    -0.002 A 
HETATM   20  C   UNL     1      25.261  43.092  51.188  1.00  0.00     0.017 A 
HETATM   21  C   UNL     1      24.419  44.180  50.945  1.00  0.00     0.040 A 
HETATM   22  C   UNL     1      24.962  45.402  50.564  1.00  0.00     0.102 A 
HETATM   23  C   UNL     1      26.342  45.521  50.382  1.00  0.00     0.103 A 
HETATM   24  O   UNL     1      24.084  46.432  50.367  1.00  0.00    -0.346 OA
HETATM   25  C   UNL     1      27.183  44.431  50.614  1.00  0.00     0.053 A 
HETATM   26  O   UNL     1      26.947  46.686  49.988  1.00  0.00    -0.346 OA
HETATM   27  C   UNL     1      25.995  47.584  49.394  1.00  0.00     0.202 C 
HETATM   28  C   UNL     1      24.750  47.695  50.258  1.00  0.00     0.202 C 
ENDBRANCH   1  19
TORSDOF 3
ENDMDL
MODEL 4
REMARK VINA RESULT:      -8.9      4.133      6.668
REMARK  3 active torsions:
REMARK  status: ('A' for Active; 'I' for Inactive)
REMARK    1  A    between atoms: C_2  and  C_3 
REMARK    2  A    between atoms: C_8  and  C_9 
REMARK    3  A    between atoms: C_9  and  N_10 
ROOT
HETATM    1  C   UNL     1      28.829  42.508  52.877  1.00  0.00     0.096 A 
HETATM    2  N   UNL     1      29.159  41.235  52.625  1.00  0.00    -0.174 NA
HETATM    3  N   UNL     1      28.542  40.923  51.483  1.00  0.00    -0.288 N 
HETATM    4  H   UNL     1      28.633  39.974  51.128  1.00  0.00     0.188 HD
HETATM    5  C   UNL     1      27.876  41.978  50.936  1.00  0.00     0.120 A 
HETATM    6  C   UNL     1      28.034  43.039  51.809  1.00  0.00     0.016 A 
ENDROOT
BRANCH   6   7
HETATM    7  C   UNL     1      27.488  44.407  51.622  1.00  0.00     0.277 C 
BRANCH   7   8
HETATM    8  N   UNL     1      26.190  44.682  52.360  1.00  0.00    -0.067 N 
HETATM    9  H   UNL     1      26.148  43.954  53.087  1.00  0.00     0.280 HD
HETATM   10  C   UNL     1      24.963  44.480  51.498  1.00  0.00     0.242 C 
HETATM   11  C   UNL     1      24.815  45.635  50.514  1.00  0.00     0.041 C 
HETATM   12  C   UNL     1      24.758  46.972  51.258  1.00  0.00     0.128 C 
HETATM   13  C   UNL     1      23.572  45.495  49.629  1.00  0.00     0.011 C 
HETATM   14  O   UNL     1      24.720  48.038  50.312  1.00  0.00    -0.385 OA
HETATM   15  C   UNL     1      25.985  47.160  52.144  1.00  0.00     0.060 C 
HETATM   16  C   UNL     1      23.535  48.014  49.509  1.00  0.00     0.168 C 
HETATM   17  C   UNL     1      23.442  46.714  48.715  1.00  0.00     0.027 C 
HETATM   18  C   UNL     1      26.153  45.996  53.104  1.00  0.00     0.237 C 
ENDBRANCH   7   8
ENDBRANCH   6   7
BRANCH   1  19
HETATM   19  C   UNL     1      29.341  43.169  54.082  1.00  0.00    -0.002 A 
HETATM   20  C   UNL     1      30.568  42.757  54.630  1.00  0.00     0.017 A 
HETATM   21  C   UNL     1      31.097  43.383  55.761  1.00  0.00     0.040 A 
HETATM   22  C   UNL     1      30.410  44.438  56.352  1.00  0.00     0.102 A 
HETATM   23  C   UNL     1      29.174  44.834  55.837  1.00  0.00     0.103 A 
HETATM   24  O   UNL     1      30.997  45.021  57.440  1.00  0.00    -0.346 OA
HETATM   25  C   UNL     1      28.638  44.202  54.714  1.00  0.00     0.053 A 
HETATM   26  O   UNL     1      28.430  45.851  56.379  1.00  0.00    -0.346 OA
HETATM   27  C   UNL     1      28.851  46.137  57.722  1.00  0.00     0.202 C 
HETATM   28  C   UNL     1      30.365  46.257  57.796  1.00  0.00     0.202 C 
ENDBRANCH   1  19
TORSDOF 3
ENDMDL
MODEL 5
REMARK VINA RESULT:      -8.7      4.015      6.492
REMARK  3 active torsions:
REMARK  status: ('A' for Active; 'I' for Inactive)
REMARK    1  A    between atoms: C_2  and  C_3 
REMARK    2  A    between atoms: C_8  and  C_9 
REMARK    3  A    between atoms: C_9  and  N_10 
ROOT
HETATM    1  C   UNL     1      28.238  42.045  52.558  1.00  0.00     0.096 A 
HETATM    2  N   UNL     1      29.263  41.193  52.689  1.00  0.00    -0.174 NA
HETATM    3  N   UNL     1      28.996  40.179  51.861  1.00  0.00    -0.288 N 
HETATM    4  H   UNL     1      29.641  39.394  51.835  1.00  0.00     0.188 HD
HETATM    5  C   UNL     1      27.861  40.376  51.133  1.00  0.00     0.120 A 
HETATM    6  C   UNL     1      27.329  41.582  51.550  1.00  0.00     0.016 A 
ENDROOT
BRANCH   6   7
HETATM    7  C   UNL     1      26.093  42.215  51.025  1.00  0.00     0.277 C 
BRANCH   7   8
HETATM    8  N   UNL     1      26.194  42.726  49.600  1.00  0.00    -0.067 N 
HETATM    9  H   UNL     1      26.846  42.075  49.138  1.00  0.00     0.280 HD
HETATM   10  C   UNL     1      26.836  44.093  49.504  1.00  0.00     0.242 C 
HETATM   11  C   UNL     1      25.860  45.167  49.972  1.00  0.00     0.041 C 
HETATM   12  C   UNL     1      24.562  45.103  49.161  1.00  0.00     0.128 C 
HETATM   13  C   UNL     1      26.449  46.578  49.873  1.00  0.00     0.011 C 
HETATM   14  O   UNL     1      23.631  46.049  49.684  1.00  0.00    -0.385 OA
HETATM   15  C   UNL     1      23.932  43.717  49.241  1.00  0.00     0.060 C 
HETATM   16  C   UNL     1      24.088  47.399  49.542  1.00  0.00     0.168 C 
HETATM   17  C   UNL     1      25.401  47.611  50.289  1.00  0.00     0.027 C 
HETATM   18  C   UNL     1      24.912  42.643  48.805  1.00  0.00     0.237 C 
ENDBRANCH   7   8
ENDBRANCH   6   7
BRANCH   1  19
HETATM   19  C   UNL     1      28.213  43.282  53.346  1.00  0.00    -0.002 A 
HETATM   20  C   UNL     1      29.157  43.470  54.369  1.00  0.00     0.017 A 
HETATM   21  C   UNL     1      29.178  44.648  55.121  1.00  0.00     0.040 A 
HETATM   22  C   UNL     1      28.261  45.657  54.849  1.00  0.00     0.102 A 
HETATM   23  C   UNL     1      27.296  45.468  53.857  1.00  0.00     0.103 A 
HETATM   24  O   UNL     1      28.354  46.793  55.606  1.00  0.00    -0.346 OA
HETATM   25  C   UNL     1      27.267  44.287  53.113  1.00  0.00     0.053 A 
HETATM   26  O   UNL     1      26.348  46.408  53.548  1.00  0.00    -0.346 OA
HETATM   27  C   UNL     1      26.206  47.365  54.610  1.00  0.00     0.202 C 
HETATM   28  C   UNL     1      27.567  47.863  55.068  1.00  0.00     0.202 C 
ENDBRANCH   1  19
TORSDOF 3
ENDMDL
MODEL 6
REMARK VINA RESULT:      -8.6      4.604      9.623
REMARK  3 active torsions:
REMARK  status: ('A' for Active; 'I' for Inactive)
REMARK    1  A    between atoms: C_2  and  C_3 
REMARK    2  A    between atoms: C_8  and  C_9 
REMARK    3  A    between atoms: C_9  and  N_10 
ROOT
HETATM    1  C   UNL     1      27.355  41.777  51.541  1.00  0.00     0.096 A 
HETATM    2  N   UNL     1      27.493  40.673  50.796  1.00  0.00    -0.174 NA
HETATM    3  N   UNL     1      28.364  39.903  51.453  1.00  0.00    -0.288 N 
HETATM    4  H   UNL     1      28.641  39.019  51.032  1.00  0.00     0.188 HD
HETATM    5  C   UNL     1      28.746  40.435  52.646  1.00  0.00     0.120 A 
HETATM    6  C   UNL     1      28.113  41.660  52.753  1.00  0.00     0.016 A 
ENDROOT
BRANCH   6   7
HETATM    7  C   UNL     1      28.221  42.599  53.898  1.00  0.00     0.277 C 
BRANCH   7   8
HETATM    8  N   UNL     1      29.089  43.818  53.643  1.00  0.00    -0.067 N 
HETATM    9  H   UNL     1      29.294  43.782  52.635  1.00  0.00     0.280 HD
HETATM   10  C   UNL     1      30.429  43.749  54.343  1.00  0.00     0.242 C 
HETATM   11  C   UNL     1      30.258  44.005  55.835  1.00  0.00     0.041 C 
HETATM   12  C   UNL     1      29.575  45.354  56.075  1.00  0.00     0.128 C 
HETATM   13  C   UNL     1      31.590  43.971  56.592  1.00  0.00     0.011 C 
HETATM   14  O   UNL     1      29.338  45.523  57.471  1.00  0.00    -0.385 OA
HETATM   15  C   UNL     1      28.236  45.428  55.348  1.00  0.00     0.060 C 
HETATM   16  C   UNL     1      30.552  45.587  58.226  1.00  0.00     0.168 C 
HETATM   17  C   UNL     1      31.361  44.303  58.067  1.00  0.00     0.027 C 
HETATM   18  C   UNL     1      28.399  45.143  53.866  1.00  0.00     0.237 C 
ENDBRANCH   7   8
ENDBRANCH   6   7
BRANCH   1  19
HETATM   19  C   UNL     1      26.460  42.850  51.095  1.00  0.00    -0.002 A 
HETATM   20  C   UNL     1      25.099  42.573  50.881  1.00  0.00     0.017 A 
HETATM   21  C   UNL     1      24.214  43.578  50.483  1.00  0.00     0.040 A 
HETATM   22  C   UNL     1      24.679  44.876  50.303  1.00  0.00     0.102 A 
HETATM   23  C   UNL     1      26.036  45.157  50.479  1.00  0.00     0.103 A 
HETATM   24  O   UNL     1      23.755  45.815  49.936  1.00  0.00    -0.346 OA
HETATM   25  C   UNL     1      26.923  44.152  50.867  1.00  0.00     0.053 A 
HETATM   26  O   UNL     1      26.570  46.407  50.300  1.00  0.00    -0.346 OA
HETATM   27  C   UNL     1      25.689  47.236  49.524  1.00  0.00     0.202 C 
HETATM   28  C   UNL     1      24.267  47.148  50.052  1.00  0.00     0.202 C 
ENDBRANCH   1  19
TORSDOF 3
ENDMDL
MODEL 7
REMARK VINA RESULT:      -8.5     10.777     12.073
REMARK  3 active torsions:
REMARK  status: ('A' for Active; 'I' for Inactive)
REMARK    1  A    between atoms: C_2  and  C_3 
REMARK    2  A    between atoms: C_8  and  C_9 
REMARK    3  A    between atoms: C_9  and  N_10 
ROOT
HETATM    1  C   UNL     1      31.371  50.140  42.023  1.00  0.00     0.096 A 
HETATM    2  N   UNL     1      31.745  49.739  43.246  1.00  0.00    -0.174 NA
HETATM    3  N   UNL     1      32.166  50.841  43.872  1.00  0.00    -0.288 N 
HETATM    4  H   UNL     1      32.534  50.750  44.815  1.00  0.00     0.188 HD
HETATM    5  C   UNL     1      32.010  51.968  43.123  1.00  0.00     0.120 A 
HETATM    6  C   UNL     1      31.492  51.564  41.906  1.00  0.00     0.016 A 
ENDROOT
BRANCH   6   7
HETATM    7  C   UNL     1      31.145  52.454  40.770  1.00  0.00     0.277 C 
BRANCH   7   8
HETATM    8  N   UNL     1      29.782  53.116  40.871  1.00  0.00    -0.067 N 
HETATM    9  H   UNL     1      29.879  53.787  41.646  1.00  0.00     0.280 HD
HETATM   10  C   UNL     1      28.687  52.158  41.285  1.00  0.00     0.242 C 
HETATM   11  C   UNL     1      28.317  51.246  40.121  1.00  0.00     0.041 C 
HETATM   12  C   UNL     1      27.901  52.073  38.901  1.00  0.00     0.128 C 
HETATM   13  C   UNL     1      27.192  50.268  40.477  1.00  0.00     0.011 C 
HETATM   14  O   UNL     1      27.657  51.201  37.799  1.00  0.00    -0.385 OA
HETATM   15  C   UNL     1      28.998  53.054  38.502  1.00  0.00     0.060 C 
HETATM   16  C   UNL     1      26.556  50.316  38.037  1.00  0.00     0.168 C 
HETATM   17  C   UNL     1      26.821  49.432  39.252  1.00  0.00     0.027 C 
HETATM   18  C   UNL     1      29.391  53.943  39.668  1.00  0.00     0.237 C 
ENDBRANCH   7   8
ENDBRANCH   6   7
BRANCH   1  19
HETATM   19  C   UNL     1      30.857  49.160  41.061  1.00  0.00    -0.002 A 
HETATM   20  C   UNL     1      31.374  49.133  39.756  1.00  0.00     0.017 A 
HETATM   21  C   UNL     1      30.925  48.195  38.823  1.00  0.00     0.040 A 
HETATM   22  C   UNL     1      29.959  47.264  39.190  1.00  0.00     0.102 A 
HETATM   23  C   UNL     1      29.412  47.302  40.474  1.00  0.00     0.103 A 
HETATM   24  O   UNL     1      29.583  46.359  38.235  1.00  0.00    -0.346 OA
HETATM   25  C   UNL     1      29.852  48.246  41.404  1.00  0.00     0.053 A 
HETATM   26  O   UNL     1      28.443  46.431  40.900  1.00  0.00    -0.346 OA
HETATM   27  C   UNL     1      27.788  45.805  39.785  1.00  0.00     0.202 C 
HETATM   28  C   UNL     1      28.810  45.286  38.786  1.00  0.00     0.202 C 
ENDBRANCH   1  19
TORSDOF 3
ENDMDL
MODEL 8
REMARK VINA RESULT:      -8.3      1.592      2.190
REMARK  3 active torsions:
REMARK  status: ('A' for Active; 'I' for Inactive)
REMARK    1  A    between atoms: C_2  and  C_3 
REMARK    2  A    between atoms: C_8  and  C_9 
REMARK    3  A    between atoms: C_9  and  N_10 
ROOT
HETATM    1  C   UNL     1      24.897  48.453  49.171  1.00  0.00     0.096 A 
HETATM    2  N   UNL     1      26.047  49.113  48.984  1.00  0.00    -0.174 NA
HETATM    3  N   UNL     1      25.771  50.071  48.095  1.00  0.00    -0.288 N 
HETATM    4  H   UNL     1      26.529  50.672  47.782  1.00  0.00     0.188 HD
HETATM    5  C   UNL     1      24.455  50.109  47.749  1.00  0.00     0.120 A 
HETATM    6  C   UNL     1      23.839  49.072  48.427  1.00  0.00     0.016 A 
ENDROOT
BRANCH   6   7
HETATM    7  C   UNL     1      22.395  48.731  48.368  1.00  0.00     0.277 C 
BRANCH   7   8
HETATM    8  N   UNL     1      21.571  49.243  49.535  1.00  0.00    -0.067 N 
HETATM    9  H   UNL     1      22.022  48.836  50.367  1.00  0.00     0.280 HD
HETATM   10  C   UNL     1      20.151  48.719  49.534  1.00  0.00     0.242 C 
HETATM   11  C   UNL     1      19.330  49.423  48.460  1.00  0.00     0.041 C 
HETATM   12  C   UNL     1      19.363  50.940  48.667  1.00  0.00     0.128 C 
HETATM   13  C   UNL     1      17.874  48.948  48.430  1.00  0.00     0.011 C 
HETATM   14  O   UNL     1      18.672  51.578  47.595  1.00  0.00    -0.385 OA
HETATM   15  C   UNL     1      20.796  51.460  48.691  1.00  0.00     0.060 C 
HETATM   16  C   UNL     1      17.281  51.241  47.565  1.00  0.00     0.168 C 
HETATM   17  C   UNL     1      17.089  49.738  47.383  1.00  0.00     0.027 C 
HETATM   18  C   UNL     1      21.624  50.739  49.739  1.00  0.00     0.237 C 
ENDBRANCH   7   8
ENDBRANCH   6   7
BRANCH   1  19
HETATM   19  C   UNL     1      24.851  47.317  50.097  1.00  0.00    -0.002 A 
HETATM   20  C   UNL     1      24.172  46.146  49.723  1.00  0.00     0.017 A 
HETATM   21  C   UNL     1      24.133  45.035  50.571  1.00  0.00     0.040 A 
HETATM   22  C   UNL     1      24.783  45.081  51.800  1.00  0.00     0.102 A 
HETATM   23  C   UNL     1      25.431  46.252  52.197  1.00  0.00     0.103 A 
HETATM   24  O   UNL     1      24.724  43.952  52.569  1.00  0.00    -0.346 OA
HETATM   25  C   UNL     1      25.463  47.365  51.356  1.00  0.00     0.053 A 
HETATM   26  O   UNL     1      26.075  46.378  53.401  1.00  0.00    -0.346 OA
HETATM   27  C   UNL     1      25.639  45.368  54.326  1.00  0.00     0.202 C 
HETATM   28  C   UNL     1      25.645  43.999  53.665  1.00  0.00     0.202 C 
ENDBRANCH   1  19
TORSDOF 3
ENDMDL
MODEL 9
REMARK VINA RESULT:      -8.3     10.979     12.650
REMARK  3 active torsions:
REMARK  status: ('A' for Active; 'I' for Inactive)
REMARK    1  A    between atoms: C_2  and  C_3 
REMARK    2  A    between atoms: C_8  and  C_9 
REMARK    3  A    between atoms: C_9  and  N_10 
ROOT
HETATM    1  C   UNL     1      30.863  48.150  40.873  1.00  0.00     0.096 A 
HETATM    2  N   UNL     1      31.384  47.094  40.235  1.00  0.00    -0.174 NA
HETATM    3  N   UNL     1      30.338  46.408  39.765  1.00  0.00    -0.288 N 
HETATM    4  H   UNL     1      30.515  45.536  39.272  1.00  0.00     0.188 HD
HETATM    5  C   UNL     1      29.148  47.023  40.010  1.00  0.00     0.120 A 
HETATM    6  C   UNL     1      29.437  48.168  40.731  1.00  0.00     0.016 A 
ENDROOT
BRANCH   6   7
HETATM    7  C   UNL     1      28.447  49.164  41.214  1.00  0.00     0.277 C 
BRANCH   7   8
HETATM    8  N   UNL     1      28.021  50.191  40.181  1.00  0.00    -0.067 N 
HETATM    9  H   UNL     1      27.359  49.686  39.573  1.00  0.00     0.280 HD
HETATM   10  C   UNL     1      29.154  50.635  39.282  1.00  0.00     0.242 C 
HETATM   11  C   UNL     1      30.089  51.572  40.038  1.00  0.00     0.041 C 
HETATM   12  C   UNL     1      29.315  52.772  40.591  1.00  0.00     0.128 C 
HETATM   13  C   UNL     1      31.245  52.075  39.166  1.00  0.00     0.011 C 
HETATM   14  O   UNL     1      30.191  53.579  41.375  1.00  0.00    -0.385 OA
HETATM   15  C   UNL     1      28.159  52.319  41.476  1.00  0.00     0.060 C 
HETATM   16  C   UNL     1      31.248  54.151  40.598  1.00  0.00     0.168 C 
HETATM   17  C   UNL     1      32.104  53.062  39.958  1.00  0.00     0.027 C 
HETATM   18  C   UNL     1      27.243  51.361  40.737  1.00  0.00     0.237 C 
ENDBRANCH   7   8
ENDBRANCH   6   7
BRANCH   1  19
HETATM   19  C   UNL     1      31.753  49.119  41.522  1.00  0.00    -0.002 A 
HETATM   20  C   UNL     1      31.338  49.757  42.703  1.00  0.00     0.017 A 
HETATM   21  C   UNL     1      32.172  50.665  43.361  1.00  0.00     0.040 A 
HETATM   22  C   UNL     1      33.437  50.937  42.850  1.00  0.00     0.102 A 
HETATM   23  C   UNL     1      33.846  50.336  41.658  1.00  0.00     0.103 A 
HETATM   24  O   UNL     1      34.210  51.817  43.557  1.00  0.00    -0.346 OA
HETATM   25  C   UNL     1      33.010  49.437  40.994  1.00  0.00     0.053 A 
HETATM   26  O   UNL     1      35.069  50.572  41.083  1.00  0.00    -0.346 OA
HETATM   27  C   UNL     1      35.654  51.779  41.596  1.00  0.00     0.202 C 
HETATM   28  C   UNL     1      35.572  51.812  43.114  1.00  0.00     0.202 C 
ENDBRANCH   1  19
TORSDOF 3
ENDMDL
MODEL 10
REMARK VINA RESULT:      -8.3     10.696     12.494
REMARK  3 active torsions:
REMARK  status: ('A' for Active; 'I' for Inactive)
REMARK    1  A    between atoms: C_2  and  C_3 
REMARK    2  A    between atoms: C_8  and  C_9 
REMARK    3  A    between atoms: C_9  and  N_10 
ROOT
HETATM    1  C   UNL     1      32.721  49.289  41.569  1.00  0.00     0.096 A 
HETATM    2  N   UNL     1      33.809  48.535  41.363  1.00  0.00    -0.174 NA
HETATM    3  N   UNL     1      34.851  49.335  41.602  1.00  0.00    -0.288 N 
HETATM    4  H   UNL     1      35.787  48.963  41.465  1.00  0.00     0.188 HD
HETATM    5  C   UNL     1      34.480  50.573  42.033  1.00  0.00     0.120 A 
HETATM    6  C   UNL     1      33.097  50.593  42.031  1.00  0.00     0.016 A 
ENDROOT
BRANCH   6   7
HETATM    7  C   UNL     1      32.244  51.738  42.438  1.00  0.00     0.277 C 
BRANCH   7   8
HETATM    8  N   UNL     1      31.982  52.759  41.346  1.00  0.00    -0.067 N 
HETATM    9  H   UNL     1      32.445  53.617  41.680  1.00  0.00     0.280 HD
HETATM   10  C   UNL     1      30.517  53.108  41.198  1.00  0.00     0.242 C 
HETATM   11  C   UNL     1      29.772  51.970  40.511  1.00  0.00     0.041 C 
HETATM   12  C   UNL     1      30.408  51.652  39.154  1.00  0.00     0.128 C 
HETATM   13  C   UNL     1      28.284  52.279  40.312  1.00  0.00     0.011 C 
HETATM   14  O   UNL     1      29.756  50.522  38.579  1.00  0.00    -0.385 OA
HETATM   15  C   UNL     1      31.890  51.325  39.306  1.00  0.00     0.060 C 
HETATM   16  C   UNL     1      28.378  50.777  38.288  1.00  0.00     0.168 C 
HETATM   17  C   UNL     1      27.610  51.133  39.557  1.00  0.00     0.027 C 
HETATM   18  C   UNL     1      32.629  52.443  40.018  1.00  0.00     0.237 C 
ENDBRANCH   7   8
ENDBRANCH   6   7
BRANCH   1  19
HETATM   19  C   UNL     1      31.387  48.709  41.382  1.00  0.00    -0.002 A 
HETATM   20  C   UNL     1      30.352  49.051  42.269  1.00  0.00     0.017 A 
HETATM   21  C   UNL     1      29.064  48.537  42.103  1.00  0.00     0.040 A 
HETATM   22  C   UNL     1      28.792  47.683  41.041  1.00  0.00     0.102 A 
HETATM   23  C   UNL     1      29.820  47.308  40.173  1.00  0.00     0.103 A 
HETATM   24  O   UNL     1      27.504  47.236  40.924  1.00  0.00    -0.346 OA
HETATM   25  C   UNL     1      31.110  47.812  40.343  1.00  0.00     0.053 A 
HETATM   26  O   UNL     1      29.632  46.454  39.117  1.00  0.00    -0.346 OA
HETATM   27  C   UNL     1      28.423  45.695  39.277  1.00  0.00     0.202 C 
HETATM   28  C   UNL     1      27.266  46.604  39.660  1.00  0.00     0.202 C 
ENDBRANCH   1  19
TORSDOF 3
ENDMDL
