MODEL 1
REMARK VINA RESULT:      -8.3      0.000      0.000
REMARK  7 active torsions:
REMARK  status: ('A' for Active; 'I' for Inactive)
REMARK    1  A    between atoms: C_2  and  C_3 
REMARK    2  A    between atoms: C_3  and  N_4 
REMARK    3  A    between atoms: C_7  and  C_8 
REMARK       I    between atoms: C_8  and  N_9 
REMARK    4  A    between atoms: N_9  and  C_10 
REMARK    5  A    between atoms: C_11  and  O_12 
REMARK    6  A    between atoms: C_16  and  C_17 
REMARK       I    between atoms: C_17  and  N_18 
REMARK    7  A    between atoms: C_23  and  C_24 
ROOT
HETATM    1  C   UNL     1      25.813  46.650  51.545  1.00  0.00     0.259 C 
HETATM    2  N   UNL     1      25.787  46.889  50.188  1.00  0.00    -0.320 N 
HETATM    3  O   UNL     1      25.427  47.424  52.415  1.00  0.00    -0.267 OA
HETATM    4  H   UNL     1      26.350  46.302  49.579  1.00  0.00     0.169 HD
ENDROOT
BRANCH   2   5
HETATM    5  C   UNL     1      25.068  47.921  49.541  1.00  0.00     0.069 A 
HETATM    6  C   UNL     1      25.784  48.834  48.743  1.00  0.00     0.095 A 
HETATM    7  C   UNL     1      25.092  49.846  48.070  1.00  0.00     0.040 A 
HETATM    8  C   UNL     1      23.702  49.948  48.187  1.00  0.00     0.020 A 
HETATM    9  C   UNL     1      22.989  49.042  48.978  1.00  0.00     0.034 A 
HETATM   10  C   UNL     1      23.675  48.014  49.626  1.00  0.00     0.049 A 
BRANCH   6  11
HETATM   11  O   UNL     1      27.144  48.640  48.691  1.00  0.00    -0.354 OA
HETATM   12  C   UNL     1      27.964  49.717  49.128  1.00  0.00     0.210 C 
ENDBRANCH   6  11
BRANCH   9  13
HETATM   13  C   UNL     1      21.510  49.137  49.014  1.00  0.00     0.251 C 
HETATM   14  N   UNL     1      20.870  49.972  49.897  1.00  0.00    -0.361 N 
HETATM   15  C   UNL     1      21.418  51.028  50.722  1.00  0.00     0.149 C 
HETATM   16  H   UNL     1      19.861  49.901  49.841  1.00  0.00     0.162 HD
HETATM   17  O   UNL     1      20.846  48.454  48.237  1.00  0.00    -0.268 OA
ENDBRANCH   9  13
ENDBRANCH   2   5
BRANCH   1  18
HETATM   18  C   UNL     1      26.381  45.368  51.892  1.00  0.00     0.076 C 
HETATM   19  C   UNL     1      26.599  44.280  51.023  1.00  0.00     0.158 C 
HETATM   20  N   UNL     1      27.204  43.255  51.624  1.00  0.00    -0.183 NA
HETATM   21  N   UNL     1      27.457  43.718  52.868  1.00  0.00    -0.268 N 
HETATM   22  C   UNL     1      26.876  44.943  53.116  1.00  0.00     0.052 C 
BRANCH  21  23
HETATM   23  C   UNL     1      28.320  42.939  53.754  1.00  0.00     0.106 C 
HETATM   24  C   UNL     1      27.988  41.450  53.657  1.00  0.00     0.034 C 
BRANCH  23  25
HETATM   25  C   UNL     1      29.822  43.191  53.507  1.00  0.00     0.022 C 
HETATM   26  C   UNL     1      30.641  43.202  54.792  1.00  0.00     0.007 C 
ENDBRANCH  23  25
ENDBRANCH  21  23
BRANCH  22  27
HETATM   27  C   UNL     1      26.835  45.634  54.481  1.00  0.00     0.038 A 
HETATM   28  C   UNL     1      27.981  45.514  55.457  1.00  0.00     0.011 A 
HETATM   29  C   UNL     1      27.757  46.805  54.749  1.00  0.00     0.011 A 
ENDBRANCH  22  27
ENDBRANCH   1  18
TORSDOF 7
ENDMDL
MODEL 2
REMARK VINA RESULT:      -7.9      2.504      8.635
REMARK  7 active torsions:
REMARK  status: ('A' for Active; 'I' for Inactive)
REMARK    1  A    between atoms: C_2  and  C_3 
REMARK    2  A    between atoms: C_3  and  N_4 
REMARK    3  A    between atoms: C_7  and  C_8 
REMARK       I    between atoms: C_8  and  N_9 
REMARK    4  A    between atoms: N_9  and  C_10 
REMARK    5  A    between atoms: C_11  and  O_12 
REMARK    6  A    between atoms: C_16  and  C_17 
REMARK       I    between atoms: C_17  and  N_18 
REMARK    7  A    between atoms: C_23  and  C_24 
ROOT
HETATM    1  C   UNL     1      22.363  47.772  48.652  1.00  0.00     0.259 C 
HETATM    2  N   UNL     1      23.206  47.802  49.742  1.00  0.00    -0.320 N 
HETATM    3  O   UNL     1      22.582  47.189  47.595  1.00  0.00    -0.267 OA
HETATM    4  H   UNL     1      23.050  48.505  50.459  1.00  0.00     0.169 HD
ENDROOT
BRANCH   2   5
HETATM    5  C   UNL     1      24.320  46.958  49.952  1.00  0.00     0.069 A 
HETATM    6  C   UNL     1      25.603  47.464  49.666  1.00  0.00     0.095 A 
HETATM    7  C   UNL     1      26.724  46.659  49.893  1.00  0.00     0.040 A 
HETATM    8  C   UNL     1      26.572  45.364  50.401  1.00  0.00     0.020 A 
HETATM    9  C   UNL     1      25.299  44.861  50.687  1.00  0.00     0.034 A 
HETATM   10  C   UNL     1      24.183  45.674  50.489  1.00  0.00     0.049 A 
BRANCH   6  11
HETATM   11  O   UNL     1      25.642  48.749  49.178  1.00  0.00    -0.354 OA
HETATM   12  C   UNL     1      26.905  49.231  48.737  1.00  0.00     0.210 C 
ENDBRANCH   6  11
BRANCH   9  13
HETATM   13  C   UNL     1      25.185  43.514  51.296  1.00  0.00     0.251 C 
HETATM   14  N   UNL     1      25.367  43.323  52.644  1.00  0.00    -0.361 N 
HETATM   15  C   UNL     1      25.444  44.302  53.707  1.00  0.00     0.149 C 
HETATM   16  H   UNL     1      25.304  42.348  52.912  1.00  0.00     0.162 HD
HETATM   17  O   UNL     1      24.920  42.552  50.579  1.00  0.00    -0.268 OA
ENDBRANCH   9  13
ENDBRANCH   2   5
BRANCH   1  18
HETATM   18  C   UNL     1      21.151  48.534  48.841  1.00  0.00     0.076 C 
HETATM   19  C   UNL     1      19.886  48.031  49.207  1.00  0.00     0.158 C 
HETATM   20  N   UNL     1      18.978  48.992  49.372  1.00  0.00    -0.183 NA
HETATM   21  N   UNL     1      19.682  50.131  49.196  1.00  0.00    -0.268 N 
HETATM   22  C   UNL     1      20.970  49.908  48.758  1.00  0.00     0.052 C 
BRANCH  21  23
HETATM   23  C   UNL     1      19.058  51.411  49.525  1.00  0.00     0.106 C 
HETATM   24  C   UNL     1      19.193  52.391  48.359  1.00  0.00     0.034 C 
BRANCH  23  25
HETATM   25  C   UNL     1      17.585  51.269  49.963  1.00  0.00     0.022 C 
HETATM   26  C   UNL     1      16.819  52.586  49.906  1.00  0.00     0.007 C 
ENDBRANCH  23  25
ENDBRANCH  21  23
BRANCH  22  27
HETATM   27  C   UNL     1      21.945  50.997  48.304  1.00  0.00     0.038 A 
HETATM   28  C   UNL     1      23.270  51.204  48.997  1.00  0.00     0.011 A 
HETATM   29  C   UNL     1      23.244  50.600  47.636  1.00  0.00     0.011 A 
ENDBRANCH  22  27
ENDBRANCH   1  18
TORSDOF 7
ENDMDL
MODEL 3
REMARK VINA RESULT:      -7.9      2.097      3.444
REMARK  7 active torsions:
REMARK  status: ('A' for Active; 'I' for Inactive)
REMARK    1  A    between atoms: C_2  and  C_3 
REMARK    2  A    between atoms: C_3  and  N_4 
REMARK    3  A    between atoms: C_7  and  C_8 
REMARK       I    between atoms: C_8  and  N_9 
REMARK    4  A    between atoms: N_9  and  C_10 
REMARK    5  A    between atoms: C_11  and  O_12 
REMARK    6  A    between atoms: C_16  and  C_17 
REMARK       I    between atoms: C_17  and  N_18 
REMARK    7  A    between atoms: C_23  and  C_24 
ROOT
HETATM    1  C   UNL     1      25.768  44.987  53.095  1.00  0.00     0.259 C 
HETATM    2  N   UNL     1      26.115  45.516  51.870  1.00  0.00    -0.320 N 
HETATM    3  O   UNL     1      24.624  44.839  53.512  1.00  0.00    -0.267 OA
HETATM    4  H   UNL     1      27.072  45.823  51.726  1.00  0.00     0.169 HD
ENDROOT
BRANCH   2   5
HETATM    5  C   UNL     1      25.242  45.718  50.777  1.00  0.00     0.069 A 
HETATM    6  C   UNL     1      24.935  44.615  49.956  1.00  0.00     0.095 A 
HETATM    7  C   UNL     1      24.051  44.783  48.885  1.00  0.00     0.040 A 
HETATM    8  C   UNL     1      23.477  46.033  48.633  1.00  0.00     0.020 A 
HETATM    9  C   UNL     1      23.780  47.129  49.447  1.00  0.00     0.034 A 
HETATM   10  C   UNL     1      24.638  46.956  50.533  1.00  0.00     0.049 A 
BRANCH   6  11
HETATM   11  O   UNL     1      25.547  43.432  50.296  1.00  0.00    -0.354 OA
HETATM   12  C   UNL     1      26.515  42.925  49.385  1.00  0.00     0.210 C 
ENDBRANCH   6  11
BRANCH   9  13
HETATM   13  C   UNL     1      23.092  48.418  49.194  1.00  0.00     0.251 C 
HETATM   14  N   UNL     1      23.794  49.543  48.837  1.00  0.00    -0.361 N 
HETATM   15  C   UNL     1      25.172  49.669  48.416  1.00  0.00     0.149 C 
HETATM   16  H   UNL     1      23.201  50.359  48.740  1.00  0.00     0.162 HD
HETATM   17  O   UNL     1      21.869  48.477  49.304  1.00  0.00    -0.268 OA
ENDBRANCH   9  13
ENDBRANCH   2   5
BRANCH   1  18
HETATM   18  C   UNL     1      26.905  44.623  53.907  1.00  0.00     0.076 C 
HETATM   19  C   UNL     1      27.384  43.320  54.153  1.00  0.00     0.158 C 
HETATM   20  N   UNL     1      28.496  43.310  54.887  1.00  0.00    -0.183 NA
HETATM   21  N   UNL     1      28.788  44.620  55.043  1.00  0.00    -0.268 N 
HETATM   22  C   UNL     1      27.796  45.454  54.572  1.00  0.00     0.052 C 
BRANCH  21  23
HETATM   23  C   UNL     1      30.079  44.998  55.614  1.00  0.00     0.106 C 
HETATM   24  C   UNL     1      29.894  45.627  56.995  1.00  0.00     0.034 C 
BRANCH  23  25
HETATM   25  C   UNL     1      31.082  43.827  55.667  1.00  0.00     0.022 C 
HETATM   26  C   UNL     1      31.533  43.494  57.084  1.00  0.00     0.007 C 
ENDBRANCH  23  25
ENDBRANCH  21  23
BRANCH  22  27
HETATM   27  C   UNL     1      27.758  46.971  54.767  1.00  0.00     0.038 A 
HETATM   28  C   UNL     1      26.478  47.753  54.602  1.00  0.00     0.011 A 
HETATM   29  C   UNL     1      27.037  47.549  55.967  1.00  0.00     0.011 A 
ENDBRANCH  22  27
ENDBRANCH   1  18
TORSDOF 7
ENDMDL
MODEL 4
REMARK VINA RESULT:      -7.8      1.148      1.456
REMARK  7 active torsions:
REMARK  status: ('A' for Active; 'I' for Inactive)
REMARK    1  A    between atoms: C_2  and  C_3 
REMARK    2  A    between atoms: C_3  and  N_4 
REMARK    3  A    between atoms: C_7  and  C_8 
REMARK       I    between atoms: C_8  and  N_9 
REMARK    4  A    between atoms: N_9  and  C_10 
REMARK    5  A    between atoms: C_11  and  O_12 
REMARK    6  A    between atoms: C_16  and  C_17 
REMARK       I    between atoms: C_17  and  N_18 
REMARK    7  A    between atoms: C_23  and  C_24 
ROOT
HETATM    1  C   UNL     1      25.805  46.940  50.815  1.00  0.00     0.259 C 
HETATM    2  N   UNL     1      25.343  47.179  49.538  1.00  0.00    -0.320 N 
HETATM    3  O   UNL     1      25.794  47.744  51.742  1.00  0.00    -0.267 OA
HETATM    4  H   UNL     1      25.622  46.548  48.794  1.00  0.00     0.169 HD
ENDROOT
BRANCH   2   5
HETATM    5  C   UNL     1      24.530  48.265  49.140  1.00  0.00     0.069 A 
HETATM    6  C   UNL     1      25.120  49.299  48.387  1.00  0.00     0.095 A 
HETATM    7  C   UNL     1      24.330  50.370  47.956  1.00  0.00     0.040 A 
HETATM    8  C   UNL     1      22.967  50.413  48.271  1.00  0.00     0.020 A 
HETATM    9  C   UNL     1      22.380  49.386  49.017  1.00  0.00     0.034 A 
HETATM   10  C   UNL     1      23.160  48.303  49.421  1.00  0.00     0.049 A 
BRANCH   6  11
HETATM   11  O   UNL     1      26.462  49.156  48.129  1.00  0.00    -0.354 OA
HETATM   12  C   UNL     1      27.351  49.988  48.865  1.00  0.00     0.210 C 
ENDBRANCH   6  11
BRANCH   9  13
HETATM   13  C   UNL     1      20.918  49.429  49.262  1.00  0.00     0.251 C 
HETATM   14  N   UNL     1      20.041  48.736  48.465  1.00  0.00    -0.361 N 
HETATM   15  C   UNL     1      20.311  47.711  47.479  1.00  0.00     0.149 C 
HETATM   16  H   UNL     1      19.073  48.893  48.721  1.00  0.00     0.162 HD
HETATM   17  O   UNL     1      20.486  50.098  50.198  1.00  0.00    -0.268 OA
ENDBRANCH   9  13
ENDBRANCH   2   5
BRANCH   1  18
HETATM   18  C   UNL     1      26.356  45.617  50.989  1.00  0.00     0.076 C 
HETATM   19  C   UNL     1      26.775  44.737  49.969  1.00  0.00     0.158 C 
HETATM   20  N   UNL     1      27.305  43.612  50.447  1.00  0.00    -0.183 NA
HETATM   21  N   UNL     1      27.310  43.803  51.784  1.00  0.00    -0.268 N 
HETATM   22  C   UNL     1      26.641  44.945  52.169  1.00  0.00     0.052 C 
BRANCH  21  23
HETATM   23  C   UNL     1      28.033  42.859  52.635  1.00  0.00     0.106 C 
HETATM   24  C   UNL     1      27.712  41.419  52.234  1.00  0.00     0.034 C 
BRANCH  23  25
HETATM   25  C   UNL     1      29.556  43.105  52.651  1.00  0.00     0.022 C 
HETATM   26  C   UNL     1      30.164  42.970  54.042  1.00  0.00     0.007 C 
ENDBRANCH  23  25
ENDBRANCH  21  23
BRANCH  22  27
HETATM   27  C   UNL     1      26.326  45.333  53.616  1.00  0.00     0.038 A 
HETATM   28  C   UNL     1      26.898  44.559  54.779  1.00  0.00     0.011 A 
HETATM   29  C   UNL     1      27.418  45.923  54.482  1.00  0.00     0.011 A 
ENDBRANCH  22  27
ENDBRANCH   1  18
TORSDOF 7
ENDMDL
MODEL 5
REMARK VINA RESULT:      -7.6      2.541      8.823
REMARK  7 active torsions:
REMARK  status: ('A' for Active; 'I' for Inactive)
REMARK    1  A    between atoms: C_2  and  C_3 
REMARK    2  A    between atoms: C_3  and  N_4 
REMARK    3  A    between atoms: C_7  and  C_8 
REMARK       I    between atoms: C_8  and  N_9 
REMARK    4  A    between atoms: N_9  and  C_10 
REMARK    5  A    between atoms: C_11  and  O_12 
REMARK    6  A    between atoms: C_16  and  C_17 
REMARK       I    between atoms: C_17  and  N_18 
REMARK    7  A    between atoms: C_23  and  C_24 
ROOT
HETATM    1  C   UNL     1      22.740  48.522  48.826  1.00  0.00     0.259 C 
HETATM    2  N   UNL     1      23.535  48.237  49.915  1.00  0.00    -0.320 N 
HETATM    3  O   UNL     1      22.925  48.120  47.681  1.00  0.00    -0.267 OA
HETATM    4  H   UNL     1      23.442  48.810  50.749  1.00  0.00     0.169 HD
ENDROOT
BRANCH   2   5
HETATM    5  C   UNL     1      24.522  47.226  49.981  1.00  0.00     0.069 A 
HETATM    6  C   UNL     1      25.839  47.556  49.608  1.00  0.00     0.095 A 
HETATM    7  C   UNL     1      26.840  46.581  49.692  1.00  0.00     0.040 A 
HETATM    8  C   UNL     1      26.533  45.293  50.142  1.00  0.00     0.020 A 
HETATM    9  C   UNL     1      25.226  44.965  50.514  1.00  0.00     0.034 A 
HETATM   10  C   UNL     1      24.234  45.944  50.460  1.00  0.00     0.049 A 
BRANCH   6  11
HETATM   11  O   UNL     1      26.033  48.850  49.186  1.00  0.00    -0.354 OA
HETATM   12  C   UNL     1      27.377  49.254  48.951  1.00  0.00     0.210 C 
ENDBRANCH   6  11
BRANCH   9  13
HETATM   13  C   UNL     1      24.958  43.612  51.060  1.00  0.00     0.251 C 
HETATM   14  N   UNL     1      25.221  43.308  52.373  1.00  0.00    -0.361 N 
HETATM   15  C   UNL     1      25.536  44.193  53.474  1.00  0.00     0.149 C 
HETATM   16  H   UNL     1      25.032  42.338  52.595  1.00  0.00     0.162 HD
HETATM   17  O   UNL     1      24.489  42.749  50.321  1.00  0.00    -0.268 OA
ENDBRANCH   9  13
ENDBRANCH   2   5
BRANCH   1  18
HETATM   18  C   UNL     1      21.631  49.392  49.136  1.00  0.00     0.076 C 
HETATM   19  C   UNL     1      21.689  50.618  49.830  1.00  0.00     0.158 C 
HETATM   20  N   UNL     1      20.505  51.227  49.899  1.00  0.00    -0.183 NA
HETATM   21  N   UNL     1      19.693  50.431  49.169  1.00  0.00    -0.268 N 
HETATM   22  C   UNL     1      20.295  49.252  48.786  1.00  0.00     0.052 C 
BRANCH  21  23
HETATM   23  C   UNL     1      18.351  50.902  48.833  1.00  0.00     0.106 C 
HETATM   24  C   UNL     1      17.907  51.998  49.802  1.00  0.00     0.034 C 
BRANCH  23  25
HETATM   25  C   UNL     1      18.226  51.371  47.368  1.00  0.00     0.022 C 
HETATM   26  C   UNL     1      16.996  50.807  46.667  1.00  0.00     0.007 C 
ENDBRANCH  23  25
ENDBRANCH  21  23
BRANCH  22  27
HETATM   27  C   UNL     1      19.580  48.080  48.108  1.00  0.00     0.038 A 
HETATM   28  C   UNL     1      19.770  46.661  48.586  1.00  0.00     0.011 A 
HETATM   29  C   UNL     1      18.478  47.353  48.850  1.00  0.00     0.011 A 
ENDBRANCH  22  27
ENDBRANCH   1  18
TORSDOF 7
ENDMDL
MODEL 6
REMARK VINA RESULT:      -7.3      2.165      8.068
REMARK  7 active torsions:
REMARK  status: ('A' for Active; 'I' for Inactive)
REMARK    1  A    between atoms: C_2  and  C_3 
REMARK    2  A    between atoms: C_3  and  N_4 
REMARK    3  A    between atoms: C_7  and  C_8 
REMARK       I    between atoms: C_8  and  N_9 
REMARK    4  A    between atoms: N_9  and  C_10 
REMARK    5  A    between atoms: C_11  and  O_12 
REMARK    6  A    between atoms: C_16  and  C_17 
REMARK       I    between atoms: C_17  and  N_18 
REMARK    7  A    between atoms: C_23  and  C_24 
ROOT
HETATM    1  C   UNL     1      25.960  46.184  50.320  1.00  0.00     0.259 C 
HETATM    2  N   UNL     1      25.735  45.965  51.663  1.00  0.00    -0.320 N 
HETATM    3  O   UNL     1      26.992  45.914  49.715  1.00  0.00    -0.267 OA
HETATM    4  H   UNL     1      24.960  46.444  52.111  1.00  0.00     0.169 HD
ENDROOT
BRANCH   2   5
HETATM    5  C   UNL     1      26.517  45.149  52.512  1.00  0.00     0.069 A 
HETATM    6  C   UNL     1      27.031  45.717  53.694  1.00  0.00     0.095 A 
HETATM    7  C   UNL     1      27.784  44.922  54.566  1.00  0.00     0.040 A 
HETATM    8  C   UNL     1      28.023  43.577  54.266  1.00  0.00     0.020 A 
HETATM    9  C   UNL     1      27.512  43.012  53.093  1.00  0.00     0.034 A 
HETATM   10  C   UNL     1      26.736  43.795  52.239  1.00  0.00     0.049 A 
BRANCH   6  11
HETATM   11  O   UNL     1      26.733  47.043  53.896  1.00  0.00    -0.354 OA
HETATM   12  C   UNL     1      26.856  47.534  55.226  1.00  0.00     0.210 C 
ENDBRANCH   6  11
BRANCH   9  13
HETATM   13  C   UNL     1      27.721  41.564  52.850  1.00  0.00     0.251 C 
HETATM   14  N   UNL     1      26.980  40.883  51.915  1.00  0.00    -0.361 N 
HETATM   15  C   UNL     1      26.109  41.401  50.881  1.00  0.00     0.149 C 
HETATM   16  H   UNL     1      27.198  39.895  51.888  1.00  0.00     0.162 HD
HETATM   17  O   UNL     1      28.576  40.964  53.498  1.00  0.00    -0.268 OA
ENDBRANCH   9  13
ENDBRANCH   2   5
BRANCH   1  18
HETATM   18  C   UNL     1      24.848  46.811  49.646  1.00  0.00     0.076 C 
HETATM   19  C   UNL     1      23.627  46.203  49.289  1.00  0.00     0.158 C 
HETATM   20  N   UNL     1      22.767  47.059  48.739  1.00  0.00    -0.183 NA
HETATM   21  N   UNL     1      23.403  48.249  48.820  1.00  0.00    -0.268 N 
HETATM   22  C   UNL     1      24.708  48.134  49.252  1.00  0.00     0.052 C 
BRANCH  21  23
HETATM   23  C   UNL     1      22.666  49.473  48.513  1.00  0.00     0.106 C 
HETATM   24  C   UNL     1      21.370  49.148  47.770  1.00  0.00     0.034 C 
BRANCH  23  25
HETATM   25  C   UNL     1      22.390  50.340  49.759  1.00  0.00     0.022 C 
HETATM   26  C   UNL     1      20.921  50.722  49.903  1.00  0.00     0.007 C 
ENDBRANCH  23  25
ENDBRANCH  21  23
BRANCH  22  27
HETATM   27  C   UNL     1      25.728  49.275  49.275  1.00  0.00     0.038 A 
HETATM   28  C   UNL     1      27.145  49.071  48.795  1.00  0.00     0.011 A 
HETATM   29  C   UNL     1      26.202  49.875  47.968  1.00  0.00     0.011 A 
ENDBRANCH  22  27
ENDBRANCH   1  18
TORSDOF 7
ENDMDL
MODEL 7
REMARK VINA RESULT:      -7.2      2.027      3.332
REMARK  7 active torsions:
REMARK  status: ('A' for Active; 'I' for Inactive)
REMARK    1  A    between atoms: C_2  and  C_3 
REMARK    2  A    between atoms: C_3  and  N_4 
REMARK    3  A    between atoms: C_7  and  C_8 
REMARK       I    between atoms: C_8  and  N_9 
REMARK    4  A    between atoms: N_9  and  C_10 
REMARK    5  A    between atoms: C_11  and  O_12 
REMARK    6  A    between atoms: C_16  and  C_17 
REMARK       I    between atoms: C_17  and  N_18 
REMARK    7  A    between atoms: C_23  and  C_24 
ROOT
HETATM    1  C   UNL     1      24.180  46.488  49.877  1.00  0.00     0.259 C 
HETATM    2  N   UNL     1      23.760  47.761  50.196  1.00  0.00    -0.320 N 
HETATM    3  O   UNL     1      23.781  45.820  48.929  1.00  0.00    -0.267 OA
HETATM    4  H   UNL     1      23.960  48.122  51.124  1.00  0.00     0.169 HD
ENDROOT
BRANCH   2   5
HETATM    5  C   UNL     1      23.025  48.628  49.354  1.00  0.00     0.069 A 
HETATM    6  C   UNL     1      23.709  49.690  48.730  1.00  0.00     0.095 A 
HETATM    7  C   UNL     1      23.011  50.543  47.869  1.00  0.00     0.040 A 
HETATM    8  C   UNL     1      21.647  50.343  47.630  1.00  0.00     0.020 A 
HETATM    9  C   UNL     1      20.968  49.288  48.247  1.00  0.00     0.034 A 
HETATM   10  C   UNL     1      21.669  48.418  49.082  1.00  0.00     0.049 A 
BRANCH   6  11
HETATM   11  O   UNL     1      25.047  49.793  49.028  1.00  0.00    -0.354 OA
HETATM   12  C   UNL     1      25.939  49.946  47.931  1.00  0.00     0.210 C 
ENDBRANCH   6  11
BRANCH   9  13
HETATM   13  C   UNL     1      19.542  49.062  47.907  1.00  0.00     0.251 C 
HETATM   14  N   UNL     1      18.537  49.417  48.773  1.00  0.00    -0.361 N 
HETATM   15  C   UNL     1      18.600  50.237  49.964  1.00  0.00     0.149 C 
HETATM   16  H   UNL     1      17.618  49.164  48.431  1.00  0.00     0.162 HD
HETATM   17  O   UNL     1      19.257  48.549  46.828  1.00  0.00    -0.268 OA
ENDBRANCH   9  13
ENDBRANCH   2   5
BRANCH   1  18
HETATM   18  C   UNL     1      25.153  45.956  50.801  1.00  0.00     0.076 C 
HETATM   19  C   UNL     1      26.060  46.694  51.590  1.00  0.00     0.158 C 
HETATM   20  N   UNL     1      26.786  45.922  52.397  1.00  0.00    -0.183 NA
HETATM   21  N   UNL     1      26.285  44.684  52.193  1.00  0.00    -0.268 N 
HETATM   22  C   UNL     1      25.380  44.633  51.155  1.00  0.00     0.052 C 
BRANCH  21  23
HETATM   23  C   UNL     1      26.691  43.597  53.082  1.00  0.00     0.106 C 
HETATM   24  C   UNL     1      28.174  43.277  52.898  1.00  0.00     0.034 C 
BRANCH  23  25
HETATM   25  C   UNL     1      26.362  43.875  54.563  1.00  0.00     0.022 C 
HETATM   26  C   UNL     1      24.903  44.254  54.787  1.00  0.00     0.007 C 
ENDBRANCH  23  25
ENDBRANCH  21  23
BRANCH  22  27
HETATM   27  C   UNL     1      24.782  43.349  50.574  1.00  0.00     0.038 A 
HETATM   28  C   UNL     1      25.103  42.898  49.169  1.00  0.00     0.011 A 
HETATM   29  C   UNL     1      25.681  42.157  50.325  1.00  0.00     0.011 A 
ENDBRANCH  22  27
ENDBRANCH   1  18
TORSDOF 7
ENDMDL
MODEL 8
REMARK VINA RESULT:      -7.2      2.811      8.174
REMARK  7 active torsions:
REMARK  status: ('A' for Active; 'I' for Inactive)
REMARK    1  A    between atoms: C_2  and  C_3 
REMARK    2  A    between atoms: C_3  and  N_4 
REMARK    3  A    between atoms: C_7  and  C_8 
REMARK       I    between atoms: C_8  and  N_9 
REMARK    4  A    between atoms: N_9  and  C_10 
REMARK    5  A    between atoms: C_11  and  O_12 
REMARK    6  A    between atoms: C_16  and  C_17 
REMARK       I    between atoms: C_17  and  N_18 
REMARK    7  A    between atoms: C_23  and  C_24 
ROOT
HETATM    1  C   UNL     1      25.901  45.284  50.021  1.00  0.00     0.259 C 
HETATM    2  N   UNL     1      25.715  45.171  51.382  1.00  0.00    -0.320 N 
HETATM    3  O   UNL     1      26.984  45.394  49.455  1.00  0.00    -0.267 OA
HETATM    4  H   UNL     1      24.787  45.336  51.762  1.00  0.00     0.169 HD
ENDROOT
BRANCH   2   5
HETATM    5  C   UNL     1      26.717  44.879  52.336  1.00  0.00     0.069 A 
HETATM    6  C   UNL     1      26.689  45.566  53.565  1.00  0.00     0.095 A 
HETATM    7  C   UNL     1      27.653  45.274  54.536  1.00  0.00     0.040 A 
HETATM    8  C   UNL     1      28.635  44.308  54.287  1.00  0.00     0.020 A 
HETATM    9  C   UNL     1      28.663  43.625  53.068  1.00  0.00     0.034 A 
HETATM   10  C   UNL     1      27.685  43.894  52.111  1.00  0.00     0.049 A 
BRANCH   6  11
HETATM   11  O   UNL     1      25.680  46.488  53.709  1.00  0.00    -0.354 OA
HETATM   12  C   UNL     1      26.026  47.730  54.311  1.00  0.00     0.210 C 
ENDBRANCH   6  11
BRANCH   9  13
HETATM   13  C   UNL     1      29.671  42.555  52.874  1.00  0.00     0.251 C 
HETATM   14  N   UNL     1      29.325  41.338  52.339  1.00  0.00    -0.361 N 
HETATM   15  C   UNL     1      28.103  40.943  51.674  1.00  0.00     0.149 C 
HETATM   16  H   UNL     1      30.104  40.690  52.307  1.00  0.00     0.162 HD
HETATM   17  O   UNL     1      30.838  42.765  53.196  1.00  0.00    -0.268 OA
ENDBRANCH   9  13
ENDBRANCH   2   5
BRANCH   1  18
HETATM   18  C   UNL     1      24.668  45.292  49.271  1.00  0.00     0.076 C 
HETATM   19  C   UNL     1      24.116  44.217  48.544  1.00  0.00     0.158 C 
HETATM   20  N   UNL     1      22.930  44.510  48.013  1.00  0.00    -0.183 NA
HETATM   21  N   UNL     1      22.672  45.754  48.473  1.00  0.00    -0.268 N 
HETATM   22  C   UNL     1      23.740  46.315  49.139  1.00  0.00     0.052 C 
BRANCH  21  23
HETATM   23  C   UNL     1      21.340  46.323  48.276  1.00  0.00     0.106 C 
HETATM   24  C   UNL     1      21.171  46.812  46.838  1.00  0.00     0.034 C 
BRANCH  23  25
HETATM   25  C   UNL     1      20.206  45.354  48.670  1.00  0.00     0.022 C 
HETATM   26  C   UNL     1      19.285  45.012  47.504  1.00  0.00     0.007 C 
ENDBRANCH  23  25
ENDBRANCH  21  23
BRANCH  22  27
HETATM   27  C   UNL     1      23.813  47.768  49.614  1.00  0.00     0.038 A 
HETATM   28  C   UNL     1      25.025  48.626  49.339  1.00  0.00     0.011 A 
HETATM   29  C   UNL     1      23.761  48.888  48.596  1.00  0.00     0.011 A 
ENDBRANCH  22  27
ENDBRANCH   1  18
TORSDOF 7
ENDMDL
MODEL 9
REMARK VINA RESULT:      -7.1      2.873      8.301
REMARK  7 active torsions:
REMARK  status: ('A' for Active; 'I' for Inactive)
REMARK    1  A    between atoms: C_2  and  C_3 
REMARK    2  A    between atoms: C_3  and  N_4 
REMARK    3  A    between atoms: C_7  and  C_8 
REMARK       I    between atoms: C_8  and  N_9 
REMARK    4  A    between atoms: N_9  and  C_10 
REMARK    5  A    between atoms: C_11  and  O_12 
REMARK    6  A    between atoms: C_16  and  C_17 
REMARK       I    between atoms: C_17  and  N_18 
REMARK    7  A    between atoms: C_23  and  C_24 
ROOT
HETATM    1  C   UNL     1      26.192  44.553  50.013  1.00  0.00     0.259 C 
HETATM    2  N   UNL     1      25.977  44.077  51.289  1.00  0.00    -0.320 N 
HETATM    3  O   UNL     1      27.278  44.616  49.447  1.00  0.00    -0.267 OA
HETATM    4  H   UNL     1      25.099  44.296  51.749  1.00  0.00     0.169 HD
ENDROOT
BRANCH   2   5
HETATM    5  C   UNL     1      26.896  43.328  52.060  1.00  0.00     0.069 A 
HETATM    6  C   UNL     1      26.957  41.935  51.857  1.00  0.00     0.095 A 
HETATM    7  C   UNL     1      27.877  41.176  52.587  1.00  0.00     0.040 A 
HETATM    8  C   UNL     1      28.729  41.795  53.509  1.00  0.00     0.020 A 
HETATM    9  C   UNL     1      28.670  43.177  53.710  1.00  0.00     0.034 A 
HETATM   10  C   UNL     1      27.774  43.939  52.961  1.00  0.00     0.049 A 
BRANCH   6  11
HETATM   11  O   UNL     1      26.082  41.430  50.925  1.00  0.00    -0.354 OA
HETATM   12  C   UNL     1      26.388  40.150  50.384  1.00  0.00     0.210 C 
ENDBRANCH   6  11
BRANCH   9  13
HETATM   13  C   UNL     1      29.643  43.805  54.638  1.00  0.00     0.251 C 
HETATM   14  N   UNL     1      29.320  44.932  55.353  1.00  0.00    -0.361 N 
HETATM   15  C   UNL     1      28.028  45.552  55.554  1.00  0.00     0.149 C 
HETATM   16  H   UNL     1      30.093  45.275  55.911  1.00  0.00     0.162 HD
HETATM   17  O   UNL     1      30.757  43.303  54.768  1.00  0.00    -0.268 OA
ENDBRANCH   9  13
ENDBRANCH   2   5
BRANCH   1  18
HETATM   18  C   UNL     1      24.990  45.019  49.364  1.00  0.00     0.076 C 
HETATM   19  C   UNL     1      24.138  44.269  48.526  1.00  0.00     0.158 C 
HETATM   20  N   UNL     1      23.067  44.958  48.133  1.00  0.00    -0.183 NA
HETATM   21  N   UNL     1      23.182  46.133  48.791  1.00  0.00    -0.268 N 
HETATM   22  C   UNL     1      24.384  46.264  49.454  1.00  0.00     0.052 C 
BRANCH  21  23
HETATM   23  C   UNL     1      22.059  47.068  48.779  1.00  0.00     0.106 C 
HETATM   24  C   UNL     1      22.329  48.221  47.813  1.00  0.00     0.034 C 
BRANCH  23  25
HETATM   25  C   UNL     1      20.710  46.386  48.468  1.00  0.00     0.022 C 
HETATM   26  C   UNL     1      20.074  46.891  47.178  1.00  0.00     0.007 C 
ENDBRANCH  23  25
ENDBRANCH  21  23
BRANCH  22  27
HETATM   27  C   UNL     1      24.875  47.544  50.135  1.00  0.00     0.038 A 
HETATM   28  C   UNL     1      26.345  47.793  50.372  1.00  0.00     0.011 A 
HETATM   29  C   UNL     1      25.632  48.574  49.323  1.00  0.00     0.011 A 
ENDBRANCH  22  27
ENDBRANCH   1  18
TORSDOF 7
ENDMDL
MODEL 10
REMARK VINA RESULT:      -7.0     10.030     12.357
REMARK  7 active torsions:
REMARK  status: ('A' for Active; 'I' for Inactive)
REMARK    1  A    between atoms: C_2  and  C_3 
REMARK    2  A    between atoms: C_3  and  N_4 
REMARK    3  A    between atoms: C_7  and  C_8 
REMARK       I    between atoms: C_8  and  N_9 
REMARK    4  A    between atoms: N_9  and  C_10 
REMARK    5  A    between atoms: C_11  and  O_12 
REMARK    6  A    between atoms: C_16  and  C_17 
REMARK       I    between atoms: C_17  and  N_18 
REMARK    7  A    between atoms: C_23  and  C_24 
ROOT
HETATM    1  C   UNL     1      29.188  49.834  41.269  1.00  0.00     0.259 C 
HETATM    2  N   UNL     1      29.257  48.976  40.192  1.00  0.00    -0.320 N 
HETATM    3  O   UNL     1      28.198  50.028  41.966  1.00  0.00    -0.267 OA
HETATM    4  H   UNL     1      30.030  49.074  39.541  1.00  0.00     0.169 HD
ENDROOT
BRANCH   2   5
HETATM    5  C   UNL     1      28.315  47.972  39.870  1.00  0.00     0.069 A 
HETATM    6  C   UNL     1      27.426  48.209  38.803  1.00  0.00     0.095 A 
HETATM    7  C   UNL     1      26.504  47.219  38.446  1.00  0.00     0.040 A 
HETATM    8  C   UNL     1      26.467  46.006  39.142  1.00  0.00     0.020 A 
HETATM    9  C   UNL     1      27.349  45.769  40.200  1.00  0.00     0.034 A 
HETATM   10  C   UNL     1      28.289  46.743  40.537  1.00  0.00     0.049 A 
BRANCH   6  11
HETATM   11  O   UNL     1      27.552  49.429  38.183  1.00  0.00    -0.354 OA
HETATM   12  C   UNL     1      26.373  50.218  38.073  1.00  0.00     0.210 C 
ENDBRANCH   6  11
BRANCH   9  13
HETATM   13  C   UNL     1      27.331  44.441  40.861  1.00  0.00     0.251 C 
HETATM   14  N   UNL     1      26.517  44.193  41.938  1.00  0.00    -0.361 N 
HETATM   15  C   UNL     1      25.423  44.982  42.463  1.00  0.00     0.149 C 
HETATM   16  H   UNL     1      26.640  43.260  42.315  1.00  0.00     0.162 HD
HETATM   17  O   UNL     1      28.057  43.548  40.432  1.00  0.00    -0.268 OA
ENDBRANCH   9  13
ENDBRANCH   2   5
BRANCH   1  18
HETATM   18  C   UNL     1      30.420  50.545  41.517  1.00  0.00     0.076 C 
HETATM   19  C   UNL     1      30.615  51.940  41.460  1.00  0.00     0.158 C 
HETATM   20  N   UNL     1      31.849  52.302  41.808  1.00  0.00    -0.183 NA
HETATM   21  N   UNL     1      32.431  51.140  42.177  1.00  0.00    -0.268 N 
HETATM   22  C   UNL     1      31.650  50.036  41.908  1.00  0.00     0.052 C 
BRANCH  21  23
HETATM   23  C   UNL     1      33.734  51.175  42.837  1.00  0.00     0.106 C 
HETATM   24  C   UNL     1      34.827  51.588  41.851  1.00  0.00     0.034 C 
BRANCH  23  25
HETATM   25  C   UNL     1      33.751  52.073  44.092  1.00  0.00     0.022 C 
HETATM   26  C   UNL     1      32.528  51.874  44.980  1.00  0.00     0.007 C 
ENDBRANCH  23  25
ENDBRANCH  21  23
BRANCH  22  27
HETATM   27  C   UNL     1      32.107  48.582  42.048  1.00  0.00     0.038 A 
HETATM   28  C   UNL     1      32.125  47.647  40.863  1.00  0.00     0.011 A 
HETATM   29  C   UNL     1      33.413  48.149  41.415  1.00  0.00     0.011 A 
ENDBRANCH  22  27
ENDBRANCH   1  18
TORSDOF 7
ENDMDL
