MODEL 1
REMARK VINA RESULT:      -8.2      0.000      0.000
REMARK  5 active torsions:
REMARK  status: ('A' for Active; 'I' for Inactive)
REMARK    1  A    between atoms: C_3  and  N_4 
REMARK       I    between atoms: N_4  and  C_5 
REMARK       I    between atoms: C_5  and  N_6 
REMARK    2  A    between atoms: N_6  and  C_7 
REMARK    3  A    between atoms: C_7  and  C_8 
REMARK    4  A    between atoms: C_8  and  O_9 
REMARK    5  A    between atoms: O_9  and  C_10 
ROOT
HETATM    1  N   UNL     1      26.018  46.731  50.880  1.00  0.00    -0.307 N 
HETATM    2  C   UNL     1      26.512  45.466  50.650  1.00  0.00     0.320 C 
HETATM    3  N   UNL     1      26.308  44.660  51.751  1.00  0.00    -0.340 N 
HETATM    4  O   UNL     1      27.012  45.052  49.615  1.00  0.00    -0.247 OA
HETATM    5  H   UNL     1      25.237  46.723  51.520  1.00  0.00     0.170 HD
HETATM    6  H   UNL     1      26.256  45.114  52.653  1.00  0.00     0.164 HD
ENDROOT
BRANCH   3   7
HETATM    7  C   UNL     1      26.715  43.264  51.753  1.00  0.00     0.156 C 
BRANCH   7   8
HETATM    8  C   UNL     1      27.586  42.875  52.963  1.00  0.00     0.142 C 
HETATM    9  C   UNL     1      28.001  41.405  52.937  1.00  0.00     0.042 C 
BRANCH   8  10
HETATM   10  O   UNL     1      28.796  43.652  52.970  1.00  0.00    -0.345 OA
BRANCH  10  11
HETATM   11  C   UNL     1      29.314  44.067  54.165  1.00  0.00     0.069 A 
HETATM   12  C   UNL     1      30.345  43.458  54.881  1.00  0.00     0.038 A 
HETATM   13  C   UNL     1      30.765  43.990  56.106  1.00  0.00     0.026 A 
HETATM   14  C   UNL     1      30.155  45.135  56.614  1.00  0.00     0.034 A 
HETATM   15 CL   UNL     1      30.674  45.785  58.119  1.00  0.00    -0.084 Cl
HETATM   16  C   UNL     1      29.124  45.749  55.910  1.00  0.00     0.026 A 
HETATM   17  C   UNL     1      28.706  45.213  54.690  1.00  0.00     0.038 A 
ENDBRANCH  10  11
ENDBRANCH   8  10
ENDBRANCH   7   8
ENDBRANCH   3   7
BRANCH   1  18
HETATM   18  C   UNL     1      26.060  47.817  49.973  1.00  0.00     0.059 A 
HETATM   19  C   UNL     1      24.958  48.406  49.336  1.00  0.00    -0.032 A 
HETATM   20  C   UNL     1      23.543  47.917  49.445  1.00  0.00     0.050 C 
HETATM   21  C   UNL     1      25.187  49.523  48.510  1.00  0.00     0.028 A 
HETATM   22  C   UNL     1      26.484  49.964  48.297  1.00  0.00     0.117 A 
HETATM   23  N   UNL     1      27.567  49.376  48.835  1.00  0.00    -0.271 NA
HETATM   24  C   UNL     1      27.326  48.324  49.653  1.00  0.00     0.146 A 
ENDBRANCH   1  18
TORSDOF 5
ENDMDL
MODEL 2
REMARK VINA RESULT:      -8.1      1.039      1.902
REMARK  5 active torsions:
REMARK  status: ('A' for Active; 'I' for Inactive)
REMARK    1  A    between atoms: C_3  and  N_4 
REMARK       I    between atoms: N_4  and  C_5 
REMARK       I    between atoms: C_5  and  N_6 
REMARK    2  A    between atoms: N_6  and  C_7 
REMARK    3  A    between atoms: C_7  and  C_8 
REMARK    4  A    between atoms: C_8  and  O_9 
REMARK    5  A    between atoms: O_9  and  C_10 
ROOT
HETATM    1  N   UNL     1      25.753  46.985  50.680  1.00  0.00    -0.307 N 
HETATM    2  C   UNL     1      26.209  45.728  50.348  1.00  0.00     0.320 C 
HETATM    3  N   UNL     1      26.483  44.998  51.484  1.00  0.00    -0.340 N 
HETATM    4  O   UNL     1      26.314  45.262  49.224  1.00  0.00    -0.247 OA
HETATM    5  H   UNL     1      25.268  46.991  51.567  1.00  0.00     0.170 HD
HETATM    6  H   UNL     1      26.740  45.513  52.315  1.00  0.00     0.164 HD
ENDROOT
BRANCH   3   7
HETATM    7  C   UNL     1      26.953  43.623  51.406  1.00  0.00     0.156 C 
BRANCH   7   8
HETATM    8  C   UNL     1      27.585  43.109  52.714  1.00  0.00     0.142 C 
HETATM    9  C   UNL     1      27.763  41.592  52.720  1.00  0.00     0.042 C 
BRANCH   8  10
HETATM   10  O   UNL     1      28.891  43.685  52.889  1.00  0.00    -0.345 OA
BRANCH  10  11
HETATM   11  C   UNL     1      29.244  44.170  54.117  1.00  0.00     0.069 A 
HETATM   12  C   UNL     1      28.677  45.264  54.773  1.00  0.00     0.038 A 
HETATM   13  C   UNL     1      29.154  45.658  56.030  1.00  0.00     0.026 A 
HETATM   14  C   UNL     1      30.197  44.957  56.631  1.00  0.00     0.034 A 
HETATM   15 CL   UNL     1      30.778  45.446  58.174  1.00  0.00    -0.084 Cl
HETATM   16  C   UNL     1      30.771  43.867  55.985  1.00  0.00     0.026 A 
HETATM   17  C   UNL     1      30.295  43.479  54.731  1.00  0.00     0.038 A 
ENDBRANCH  10  11
ENDBRANCH   8  10
ENDBRANCH   7   8
ENDBRANCH   3   7
BRANCH   1  18
HETATM   18  C   UNL     1      25.383  48.003  49.769  1.00  0.00     0.059 A 
HETATM   19  C   UNL     1      26.257  48.866  49.092  1.00  0.00    -0.032 A 
HETATM   20  C   UNL     1      27.744  48.912  49.295  1.00  0.00     0.050 C 
HETATM   21  C   UNL     1      25.709  49.779  48.172  1.00  0.00     0.028 A 
HETATM   22  C   UNL     1      24.334  49.848  48.010  1.00  0.00     0.117 A 
HETATM   23  N   UNL     1      23.465  49.085  48.696  1.00  0.00    -0.271 NA
HETATM   24  C   UNL     1      24.012  48.189  49.552  1.00  0.00     0.146 A 
ENDBRANCH   1  18
TORSDOF 5
ENDMDL
MODEL 3
REMARK VINA RESULT:      -7.9      1.539      2.325
REMARK  5 active torsions:
REMARK  status: ('A' for Active; 'I' for Inactive)
REMARK    1  A    between atoms: C_3  and  N_4 
REMARK       I    between atoms: N_4  and  C_5 
REMARK       I    between atoms: C_5  and  N_6 
REMARK    2  A    between atoms: N_6  and  C_7 
REMARK    3  A    between atoms: C_7  and  C_8 
REMARK    4  A    between atoms: C_8  and  O_9 
REMARK    5  A    between atoms: O_9  and  C_10 
ROOT
HETATM    1  N   UNL     1      25.428  47.039  50.470  1.00  0.00    -0.307 N 
HETATM    2  C   UNL     1      25.351  45.704  50.139  1.00  0.00     0.320 C 
HETATM    3  N   UNL     1      25.609  44.917  51.242  1.00  0.00    -0.340 N 
HETATM    4  O   UNL     1      25.040  45.236  49.054  1.00  0.00    -0.247 OA
HETATM    5  H   UNL     1      25.184  47.205  51.436  1.00  0.00     0.170 HD
HETATM    6  H   UNL     1      26.202  45.308  51.960  1.00  0.00     0.164 HD
ENDROOT
BRANCH   3   7
HETATM    7  C   UNL     1      25.561  43.465  51.163  1.00  0.00     0.156 C 
BRANCH   7   8
HETATM    8  C   UNL     1      26.824  42.774  51.713  1.00  0.00     0.142 C 
HETATM    9  C   UNL     1      27.297  41.627  50.822  1.00  0.00     0.042 C 
BRANCH   8  10
HETATM   10  O   UNL     1      27.906  43.716  51.792  1.00  0.00    -0.345 OA
BRANCH  10  11
HETATM   11  C   UNL     1      28.650  43.781  52.938  1.00  0.00     0.069 A 
HETATM   12  C   UNL     1      28.412  44.607  54.038  1.00  0.00     0.038 A 
HETATM   13  C   UNL     1      29.271  44.576  55.143  1.00  0.00     0.026 A 
HETATM   14  C   UNL     1      30.367  43.716  55.150  1.00  0.00     0.034 A 
HETATM   15 CL   UNL     1      31.419  43.682  56.510  1.00  0.00    -0.084 Cl
HETATM   16  C   UNL     1      30.615  42.890  54.058  1.00  0.00     0.026 A 
HETATM   17  C   UNL     1      29.758  42.926  52.956  1.00  0.00     0.038 A 
ENDBRANCH  10  11
ENDBRANCH   8  10
ENDBRANCH   7   8
ENDBRANCH   3   7
BRANCH   1  18
HETATM   18  C   UNL     1      25.228  48.127  49.587  1.00  0.00     0.059 A 
HETATM   19  C   UNL     1      26.231  48.875  48.955  1.00  0.00    -0.032 A 
HETATM   20  C   UNL     1      27.705  48.700  49.186  1.00  0.00     0.050 C 
HETATM   21  C   UNL     1      25.841  49.886  48.057  1.00  0.00     0.028 A 
HETATM   22  C   UNL     1      24.494  50.158  47.874  1.00  0.00     0.117 A 
HETATM   23  N   UNL     1      23.510  49.507  48.519  1.00  0.00    -0.271 NA
HETATM   24  C   UNL     1      23.903  48.515  49.354  1.00  0.00     0.146 A 
ENDBRANCH   1  18
TORSDOF 5
ENDMDL
MODEL 4
REMARK VINA RESULT:      -7.9      3.679      6.833
REMARK  5 active torsions:
REMARK  status: ('A' for Active; 'I' for Inactive)
REMARK    1  A    between atoms: C_3  and  N_4 
REMARK       I    between atoms: N_4  and  C_5 
REMARK       I    between atoms: C_5  and  N_6 
REMARK    2  A    between atoms: N_6  and  C_7 
REMARK    3  A    between atoms: C_7  and  C_8 
REMARK    4  A    between atoms: C_8  and  O_9 
REMARK    5  A    between atoms: O_9  and  C_10 
ROOT
HETATM    1  N   UNL     1      30.434  43.452  54.345  1.00  0.00    -0.307 N 
HETATM    2  C   UNL     1      29.317  42.782  53.896  1.00  0.00     0.320 C 
HETATM    3  N   UNL     1      29.485  42.386  52.586  1.00  0.00    -0.340 N 
HETATM    4  O   UNL     1      28.322  42.501  54.546  1.00  0.00    -0.247 OA
HETATM    5  H   UNL     1      31.276  43.138  53.883  1.00  0.00     0.170 HD
HETATM    6  H   UNL     1      30.106  42.940  52.011  1.00  0.00     0.164 HD
ENDROOT
BRANCH   3   7
HETATM    7  C   UNL     1      28.456  41.633  51.885  1.00  0.00     0.156 C 
BRANCH   7   8
HETATM    8  C   UNL     1      27.544  42.505  51.001  1.00  0.00     0.142 C 
HETATM    9  C   UNL     1      27.212  41.839  49.667  1.00  0.00     0.042 C 
BRANCH   8  10
HETATM   10  O   UNL     1      26.296  42.749  51.670  1.00  0.00    -0.345 OA
BRANCH  10  11
HETATM   11  C   UNL     1      26.139  43.901  52.389  1.00  0.00     0.069 A 
HETATM   12  C   UNL     1      25.564  44.020  53.655  1.00  0.00     0.038 A 
HETATM   13  C   UNL     1      25.458  45.274  54.267  1.00  0.00     0.026 A 
HETATM   14  C   UNL     1      25.928  46.412  53.614  1.00  0.00     0.034 A 
HETATM   15 CL   UNL     1      25.794  47.950  54.370  1.00  0.00    -0.084 Cl
HETATM   16  C   UNL     1      26.500  46.305  52.350  1.00  0.00     0.026 A 
HETATM   17  C   UNL     1      26.602  45.052  51.741  1.00  0.00     0.038 A 
ENDBRANCH  10  11
ENDBRANCH   8  10
ENDBRANCH   7   8
ENDBRANCH   3   7
BRANCH   1  18
HETATM   18  C   UNL     1      30.609  44.004  55.636  1.00  0.00     0.059 A 
HETATM   19  C   UNL     1      29.992  45.162  56.132  1.00  0.00    -0.032 A 
HETATM   20  C   UNL     1      29.102  46.068  55.331  1.00  0.00     0.050 C 
HETATM   21  C   UNL     1      30.239  45.527  57.468  1.00  0.00     0.028 A 
HETATM   22  C   UNL     1      31.125  44.781  58.230  1.00  0.00     0.117 A 
HETATM   23  N   UNL     1      31.787  43.708  57.762  1.00  0.00    -0.271 NA
HETATM   24  C   UNL     1      31.512  43.353  56.485  1.00  0.00     0.146 A 
ENDBRANCH   1  18
TORSDOF 5
ENDMDL
MODEL 5
REMARK VINA RESULT:      -7.8      3.778      7.307
REMARK  5 active torsions:
REMARK  status: ('A' for Active; 'I' for Inactive)
REMARK    1  A    between atoms: C_3  and  N_4 
REMARK       I    between atoms: N_4  and  C_5 
REMARK       I    between atoms: C_5  and  N_6 
REMARK    2  A    between atoms: N_6  and  C_7 
REMARK    3  A    between atoms: C_7  and  C_8 
REMARK    4  A    between atoms: C_8  and  O_9 
REMARK    5  A    between atoms: O_9  and  C_10 
ROOT
HETATM    1  N   UNL     1      28.771  45.588  54.766  1.00  0.00    -0.307 N 
HETATM    2  C   UNL     1      27.468  45.189  54.564  1.00  0.00     0.320 C 
HETATM    3  N   UNL     1      26.900  45.900  53.527  1.00  0.00    -0.340 N 
HETATM    4  O   UNL     1      26.877  44.295  55.151  1.00  0.00    -0.247 OA
HETATM    5  H   UNL     1      29.203  45.918  53.914  1.00  0.00     0.170 HD
HETATM    6  H   UNL     1      27.263  46.826  53.349  1.00  0.00     0.164 HD
ENDROOT
BRANCH   3   7
HETATM    7  C   UNL     1      25.534  45.646  53.095  1.00  0.00     0.156 C 
BRANCH   7   8
HETATM    8  C   UNL     1      25.421  44.557  52.010  1.00  0.00     0.142 C 
HETATM    9  C   UNL     1      24.323  44.859  50.992  1.00  0.00     0.042 C 
BRANCH   8  10
HETATM   10  O   UNL     1      26.655  44.460  51.279  1.00  0.00    -0.345 OA
BRANCH  10  11
HETATM   11  C   UNL     1      27.119  43.225  50.920  1.00  0.00     0.069 A 
HETATM   12  C   UNL     1      26.971  42.611  49.675  1.00  0.00     0.038 A 
HETATM   13  C   UNL     1      27.490  41.330  49.454  1.00  0.00     0.026 A 
HETATM   14  C   UNL     1      28.161  40.663  50.477  1.00  0.00     0.034 A 
HETATM   15 CL   UNL     1      28.797  39.089  50.200  1.00  0.00    -0.084 Cl
HETATM   16  C   UNL     1      28.312  41.264  51.722  1.00  0.00     0.026 A 
HETATM   17  C   UNL     1      27.790  42.541  51.940  1.00  0.00     0.038 A 
ENDBRANCH  10  11
ENDBRANCH   8  10
ENDBRANCH   7   8
ENDBRANCH   3   7
BRANCH   1  18
HETATM   18  C   UNL     1      29.653  45.079  55.748  1.00  0.00     0.059 A 
HETATM   19  C   UNL     1      30.473  43.948  55.618  1.00  0.00    -0.032 A 
HETATM   20  C   UNL     1      30.480  43.028  54.431  1.00  0.00     0.050 C 
HETATM   21  C   UNL     1      31.335  43.626  56.682  1.00  0.00     0.028 A 
HETATM   22  C   UNL     1      31.305  44.384  57.842  1.00  0.00     0.117 A 
HETATM   23  N   UNL     1      30.481  45.430  58.026  1.00  0.00    -0.271 NA
HETATM   24  C   UNL     1      29.681  45.745  56.979  1.00  0.00     0.146 A 
ENDBRANCH   1  18
TORSDOF 5
ENDMDL
MODEL 6
REMARK VINA RESULT:      -7.8      3.375      7.864
REMARK  5 active torsions:
REMARK  status: ('A' for Active; 'I' for Inactive)
REMARK    1  A    between atoms: C_3  and  N_4 
REMARK       I    between atoms: N_4  and  C_5 
REMARK       I    between atoms: C_5  and  N_6 
REMARK    2  A    between atoms: N_6  and  C_7 
REMARK    3  A    between atoms: C_7  and  C_8 
REMARK    4  A    between atoms: C_8  and  O_9 
REMARK    5  A    between atoms: O_9  and  C_10 
ROOT
HETATM    1  N   UNL     1      28.351  45.435  54.781  1.00  0.00    -0.307 N 
HETATM    2  C   UNL     1      27.216  44.707  54.498  1.00  0.00     0.320 C 
HETATM    3  N   UNL     1      26.543  45.259  53.429  1.00  0.00    -0.340 N 
HETATM    4  O   UNL     1      26.851  43.679  55.048  1.00  0.00    -0.247 OA
HETATM    5  H   UNL     1      28.731  45.882  53.958  1.00  0.00     0.170 HD
HETATM    6  H   UNL     1      26.656  46.251  53.273  1.00  0.00     0.164 HD
ENDROOT
BRANCH   3   7
HETATM    7  C   UNL     1      25.322  44.658  52.912  1.00  0.00     0.156 C 
BRANCH   7   8
HETATM    8  C   UNL     1      25.223  44.684  51.375  1.00  0.00     0.142 C 
HETATM    9  C   UNL     1      24.732  43.358  50.799  1.00  0.00     0.042 C 
BRANCH   8  10
HETATM   10  O   UNL     1      24.287  45.693  50.959  1.00  0.00    -0.345 OA
BRANCH  10  11
HETATM   11  C   UNL     1      24.749  46.800  50.303  1.00  0.00     0.069 A 
HETATM   12  C   UNL     1      23.975  47.786  49.689  1.00  0.00     0.038 A 
HETATM   13  C   UNL     1      24.590  48.862  49.038  1.00  0.00     0.026 A 
HETATM   14  C   UNL     1      25.980  48.954  49.003  1.00  0.00     0.034 A 
HETATM   15 CL   UNL     1      26.730  50.278  48.202  1.00  0.00    -0.084 Cl
HETATM   16  C   UNL     1      26.761  47.975  49.609  1.00  0.00     0.026 A 
HETATM   17  C   UNL     1      26.144  46.902  50.255  1.00  0.00     0.038 A 
ENDBRANCH  10  11
ENDBRANCH   8  10
ENDBRANCH   7   8
ENDBRANCH   3   7
BRANCH   1  18
HETATM   18  C   UNL     1      29.277  45.162  55.816  1.00  0.00     0.059 A 
HETATM   19  C   UNL     1      30.293  44.195  55.784  1.00  0.00    -0.032 A 
HETATM   20  C   UNL     1      30.508  43.215  54.667  1.00  0.00     0.050 C 
HETATM   21  C   UNL     1      31.162  44.107  56.887  1.00  0.00     0.028 A 
HETATM   22  C   UNL     1      30.955  44.922  57.990  1.00  0.00     0.117 A 
HETATM   23  N   UNL     1      29.949  45.809  58.081  1.00  0.00    -0.271 NA
HETATM   24  C   UNL     1      29.141  45.902  56.997  1.00  0.00     0.146 A 
ENDBRANCH   1  18
TORSDOF 5
ENDMDL
MODEL 7
REMARK VINA RESULT:      -7.7      3.770      7.098
REMARK  5 active torsions:
REMARK  status: ('A' for Active; 'I' for Inactive)
REMARK    1  A    between atoms: C_3  and  N_4 
REMARK       I    between atoms: N_4  and  C_5 
REMARK       I    between atoms: C_5  and  N_6 
REMARK    2  A    between atoms: N_6  and  C_7 
REMARK    3  A    between atoms: C_7  and  C_8 
REMARK    4  A    between atoms: C_8  and  O_9 
REMARK    5  A    between atoms: O_9  and  C_10 
ROOT
HETATM    1  N   UNL     1      30.153  43.362  54.327  1.00  0.00    -0.307 N 
HETATM    2  C   UNL     1      29.181  42.494  53.880  1.00  0.00     0.320 C 
HETATM    3  N   UNL     1      29.617  41.815  52.762  1.00  0.00    -0.340 N 
HETATM    4  O   UNL     1      28.098  42.277  54.402  1.00  0.00    -0.247 OA
HETATM    5  H   UNL     1      31.084  43.034  54.109  1.00  0.00     0.170 HD
HETATM    6  H   UNL     1      30.303  42.275  52.179  1.00  0.00     0.164 HD
ENDROOT
BRANCH   3   7
HETATM    7  C   UNL     1      28.784  40.815  52.111  1.00  0.00     0.156 C 
BRANCH   7   8
HETATM    8  C   UNL     1      28.017  41.351  50.886  1.00  0.00     0.142 C 
HETATM    9  C   UNL     1      27.723  40.260  49.858  1.00  0.00     0.042 C 
BRANCH   8  10
HETATM   10  O   UNL     1      26.750  41.892  51.297  1.00  0.00    -0.345 OA
BRANCH  10  11
HETATM   11  C   UNL     1      26.553  43.244  51.238  1.00  0.00     0.069 A 
HETATM   12  C   UNL     1      25.939  44.038  52.208  1.00  0.00     0.038 A 
HETATM   13  C   UNL     1      25.794  45.415  52.004  1.00  0.00     0.026 A 
HETATM   14  C   UNL     1      26.265  46.000  50.831  1.00  0.00     0.034 A 
HETATM   15 CL   UNL     1      26.084  47.693  50.586  1.00  0.00    -0.084 Cl
HETATM   16  C   UNL     1      26.877  45.218  49.856  1.00  0.00     0.026 A 
HETATM   17  C   UNL     1      27.017  43.844  50.062  1.00  0.00     0.038 A 
ENDBRANCH  10  11
ENDBRANCH   8  10
ENDBRANCH   7   8
ENDBRANCH   3   7
BRANCH   1  18
HETATM   18  C   UNL     1      30.049  44.222  55.446  1.00  0.00     0.059 A 
HETATM   19  C   UNL     1      30.800  44.138  56.627  1.00  0.00    -0.032 A 
HETATM   20  C   UNL     1      31.788  43.051  56.939  1.00  0.00     0.050 C 
HETATM   21  C   UNL     1      30.601  45.123  57.613  1.00  0.00     0.028 A 
HETATM   22  C   UNL     1      29.636  46.099  57.422  1.00  0.00     0.117 A 
HETATM   23  N   UNL     1      28.850  46.165  56.333  1.00  0.00    -0.271 NA
HETATM   24  C   UNL     1      29.077  45.228  55.381  1.00  0.00     0.146 A 
ENDBRANCH   1  18
TORSDOF 5
ENDMDL
MODEL 8
REMARK VINA RESULT:      -7.6      4.292      5.893
REMARK  5 active torsions:
REMARK  status: ('A' for Active; 'I' for Inactive)
REMARK    1  A    between atoms: C_3  and  N_4 
REMARK       I    between atoms: N_4  and  C_5 
REMARK       I    between atoms: C_5  and  N_6 
REMARK    2  A    between atoms: N_6  and  C_7 
REMARK    3  A    between atoms: C_7  and  C_8 
REMARK    4  A    between atoms: C_8  and  O_9 
REMARK    5  A    between atoms: O_9  and  C_10 
ROOT
HETATM    1  N   UNL     1      21.447  49.837  50.076  1.00  0.00    -0.307 N 
HETATM    2  C   UNL     1      22.070  48.878  49.308  1.00  0.00     0.320 C 
HETATM    3  N   UNL     1      23.220  48.436  49.927  1.00  0.00    -0.340 N 
HETATM    4  O   UNL     1      21.667  48.410  48.254  1.00  0.00    -0.247 OA
HETATM    5  H   UNL     1      21.624  49.707  51.063  1.00  0.00     0.170 HD
HETATM    6  H   UNL     1      23.687  49.081  50.551  1.00  0.00     0.164 HD
ENDROOT
BRANCH   3   7
HETATM    7  C   UNL     1      24.049  47.399  49.331  1.00  0.00     0.156 C 
BRANCH   7   8
HETATM    8  C   UNL     1      25.319  47.079  50.144  1.00  0.00     0.142 C 
HETATM    9  C   UNL     1      26.470  48.032  49.829  1.00  0.00     0.042 C 
BRANCH   8  10
HETATM   10  O   UNL     1      25.047  47.201  51.550  1.00  0.00    -0.345 OA
BRANCH  10  11
HETATM   11  C   UNL     1      25.913  46.639  52.447  1.00  0.00     0.069 A 
HETATM   12  C   UNL     1      26.470  45.361  52.376  1.00  0.00     0.038 A 
HETATM   13  C   UNL     1      27.336  44.912  53.380  1.00  0.00     0.026 A 
HETATM   14  C   UNL     1      27.649  45.743  54.454  1.00  0.00     0.034 A 
HETATM   15 CL   UNL     1      28.713  45.186  55.684  1.00  0.00    -0.084 Cl
HETATM   16  C   UNL     1      27.098  47.017  54.536  1.00  0.00     0.026 A 
HETATM   17  C   UNL     1      26.231  47.461  53.534  1.00  0.00     0.038 A 
ENDBRANCH  10  11
ENDBRANCH   8  10
ENDBRANCH   7   8
ENDBRANCH   3   7
BRANCH   1  18
HETATM   18  C   UNL     1      20.247  50.513  49.749  1.00  0.00     0.059 A 
HETATM   19  C   UNL     1      18.961  50.182  50.200  1.00  0.00    -0.032 A 
HETATM   20  C   UNL     1      18.631  48.984  51.042  1.00  0.00     0.050 C 
HETATM   21  C   UNL     1      17.889  51.010  49.818  1.00  0.00     0.028 A 
HETATM   22  C   UNL     1      18.118  52.078  48.964  1.00  0.00     0.117 A 
HETATM   23  N   UNL     1      19.326  52.379  48.458  1.00  0.00    -0.271 NA
HETATM   24  C   UNL     1      20.352  51.592  48.862  1.00  0.00     0.146 A 
ENDBRANCH   1  18
TORSDOF 5
ENDMDL
MODEL 9
REMARK VINA RESULT:      -7.6      2.021      2.732
REMARK  5 active torsions:
REMARK  status: ('A' for Active; 'I' for Inactive)
REMARK    1  A    between atoms: C_3  and  N_4 
REMARK       I    between atoms: N_4  and  C_5 
REMARK       I    between atoms: C_5  and  N_6 
REMARK    2  A    between atoms: N_6  and  C_7 
REMARK    3  A    between atoms: C_7  and  C_8 
REMARK    4  A    between atoms: C_8  and  O_9 
REMARK    5  A    between atoms: O_9  and  C_10 
ROOT
HETATM    1  N   UNL     1      24.909  44.237  51.144  1.00  0.00    -0.307 N 
HETATM    2  C   UNL     1      25.958  43.444  50.734  1.00  0.00     0.320 C 
HETATM    3  N   UNL     1      26.080  42.342  51.553  1.00  0.00    -0.340 N 
HETATM    4  O   UNL     1      26.667  43.618  49.754  1.00  0.00    -0.247 OA
HETATM    5  H   UNL     1      24.181  43.700  51.594  1.00  0.00     0.170 HD
HETATM    6  H   UNL     1      25.755  42.436  52.506  1.00  0.00     0.164 HD
ENDROOT
BRANCH   3   7
HETATM    7  C   UNL     1      27.098  41.330  51.315  1.00  0.00     0.156 C 
BRANCH   7   8
HETATM    8  C   UNL     1      28.189  41.282  52.401  1.00  0.00     0.142 C 
HETATM    9  C   UNL     1      29.089  40.055  52.272  1.00  0.00     0.042 C 
BRANCH   8  10
HETATM   10  O   UNL     1      29.039  42.437  52.298  1.00  0.00    -0.345 OA
BRANCH  10  11
HETATM   11  C   UNL     1      29.138  43.288  53.364  1.00  0.00     0.069 A 
HETATM   12  C   UNL     1      28.277  44.343  53.668  1.00  0.00     0.038 A 
HETATM   13  C   UNL     1      28.512  45.145  54.792  1.00  0.00     0.026 A 
HETATM   14  C   UNL     1      29.608  44.889  55.613  1.00  0.00     0.034 A 
HETATM   15 CL   UNL     1      29.892  45.876  56.992  1.00  0.00    -0.084 Cl
HETATM   16  C   UNL     1      30.474  43.841  55.318  1.00  0.00     0.026 A 
HETATM   17  C   UNL     1      30.238  43.046  54.195  1.00  0.00     0.038 A 
ENDBRANCH  10  11
ENDBRANCH   8  10
ENDBRANCH   7   8
ENDBRANCH   3   7
BRANCH   1  18
HETATM   18  C   UNL     1      24.498  45.449  50.541  1.00  0.00     0.059 A 
HETATM   19  C   UNL     1      24.925  46.737  50.896  1.00  0.00    -0.032 A 
HETATM   20  C   UNL     1      25.831  47.051  52.052  1.00  0.00     0.050 C 
HETATM   21  C   UNL     1      24.454  47.826  50.140  1.00  0.00     0.028 A 
HETATM   22  C   UNL     1      23.541  47.609  49.119  1.00  0.00     0.117 A 
HETATM   23  N   UNL     1      23.058  46.395  48.800  1.00  0.00    -0.271 NA
HETATM   24  C   UNL     1      23.547  45.355  49.517  1.00  0.00     0.146 A 
ENDBRANCH   1  18
TORSDOF 5
ENDMDL
MODEL 10
REMARK VINA RESULT:      -7.5      1.831      2.439
REMARK  5 active torsions:
REMARK  status: ('A' for Active; 'I' for Inactive)
REMARK    1  A    between atoms: C_3  and  N_4 
REMARK       I    between atoms: N_4  and  C_5 
REMARK       I    between atoms: C_5  and  N_6 
REMARK    2  A    between atoms: N_6  and  C_7 
REMARK    3  A    between atoms: C_7  and  C_8 
REMARK    4  A    between atoms: C_8  and  O_9 
REMARK    5  A    between atoms: O_9  and  C_10 
ROOT
HETATM    1  N   UNL     1      25.769  45.180  50.635  1.00  0.00    -0.307 N 
HETATM    2  C   UNL     1      25.610  44.432  51.780  1.00  0.00     0.320 C 
HETATM    3  N   UNL     1      26.755  43.714  52.051  1.00  0.00    -0.340 N 
HETATM    4  O   UNL     1      24.636  44.422  52.518  1.00  0.00    -0.247 OA
HETATM    5  H   UNL     1      26.732  45.448  50.486  1.00  0.00     0.170 HD
HETATM    6  H   UNL     1      27.342  43.465  51.266  1.00  0.00     0.164 HD
ENDROOT
BRANCH   3   7
HETATM    7  C   UNL     1      26.855  42.863  53.227  1.00  0.00     0.156 C 
BRANCH   7   8
HETATM    8  C   UNL     1      28.256  42.257  53.435  1.00  0.00     0.142 C 
HETATM    9  C   UNL     1      28.621  41.243  52.353  1.00  0.00     0.042 C 
BRANCH   8  10
HETATM   10  O   UNL     1      29.252  43.292  53.392  1.00  0.00    -0.345 OA
BRANCH  10  11
HETATM   11  C   UNL     1      29.527  43.999  54.529  1.00  0.00     0.069 A 
HETATM   12  C   UNL     1      28.899  45.172  54.951  1.00  0.00     0.038 A 
HETATM   13  C   UNL     1      29.297  45.798  56.138  1.00  0.00     0.026 A 
HETATM   14  C   UNL     1      30.322  45.251  56.906  1.00  0.00     0.034 A 
HETATM   15 CL   UNL     1      30.807  46.024  58.363  1.00  0.00    -0.084 Cl
HETATM   16  C   UNL     1      30.958  44.084  56.493  1.00  0.00     0.026 A 
HETATM   17  C   UNL     1      30.560  43.463  55.307  1.00  0.00     0.038 A 
ENDBRANCH  10  11
ENDBRANCH   8  10
ENDBRANCH   7   8
ENDBRANCH   3   7
BRANCH   1  18
HETATM   18  C   UNL     1      24.797  46.032  50.057  1.00  0.00     0.059 A 
HETATM   19  C   UNL     1      23.774  45.644  49.179  1.00  0.00    -0.032 A 
HETATM   20  C   UNL     1      23.596  44.258  48.630  1.00  0.00     0.050 C 
HETATM   21  C   UNL     1      22.858  46.623  48.752  1.00  0.00     0.028 A 
HETATM   22  C   UNL     1      23.026  47.940  49.151  1.00  0.00     0.117 A 
HETATM   23  N   UNL     1      24.037  48.357  49.933  1.00  0.00    -0.271 NA
HETATM   24  C   UNL     1      24.891  47.395  50.361  1.00  0.00     0.146 A 
ENDBRANCH   1  18
TORSDOF 5
ENDMDL
