MODEL 1
REMARK VINA RESULT:     -10.1      0.000      0.000
REMARK  8 active torsions:
REMARK  status: ('A' for Active; 'I' for Inactive)
REMARK    1  A    between atoms: C_4  and  N_5 
REMARK       I    between atoms: N_5  and  C_6 
REMARK    2  A    between atoms: C_6  and  C_7 
REMARK    3  A    between atoms: C_7  and  N_8 
REMARK    4  A    between atoms: C_7  and  C_24 
REMARK    5  A    between atoms: N_8  and  C_11 
REMARK    6  A    between atoms: C_11  and  C_12 
REMARK    7  A    between atoms: C_15  and  N_16 
REMARK    8  A    between atoms: C_31  and  O_32 
ROOT
HETATM    1  C   UNL     1      26.907  43.310  52.134  1.00  0.00     0.310 C 
ENDROOT
BRANCH   1   2
HETATM    2  C   UNL     1      27.652  43.285  53.493  1.00  0.00     0.257 C 
HETATM    3  N   UNL     1      28.723  44.122  53.662  1.00  0.00    -0.323 N 
HETATM    4  H   UNL     1      29.085  44.667  52.880  1.00  0.00     0.169 HD
HETATM    5  O   UNL     1      27.112  42.611  54.379  1.00  0.00    -0.270 OA
BRANCH   3   6
HETATM    6  C   UNL     1      29.367  44.459  54.880  1.00  0.00     0.069 A 
HETATM    7  C   UNL     1      30.424  43.729  55.432  1.00  0.00     0.039 A 
HETATM    8  C   UNL     1      30.973  44.095  56.669  1.00  0.00    -0.060 A 
HETATM    9  C   UNL     1      32.127  43.328  57.249  1.00  0.00     0.048 C 
HETATM   10  C   UNL     1      30.468  45.213  57.337  1.00  0.00     0.009 A 
HETATM   11  C   UNL     1      29.419  45.957  56.790  1.00  0.00     0.039 A 
HETATM   12  C   UNL     1      28.866  45.588  55.561  1.00  0.00     0.095 A 
BRANCH  12  13
HETATM   13  O   UNL     1      27.818  46.229  54.940  1.00  0.00    -0.354 OA
HETATM   14  C   UNL     1      27.934  47.639  54.783  1.00  0.00     0.210 C 
ENDBRANCH  12  13
ENDBRANCH   3   6
ENDBRANCH   1   2
BRANCH   1  15
HETATM   15  N   UNL     1      27.447  44.516  51.406  1.00  0.00    -0.054 N 
HETATM   16  H   UNL     1      27.110  45.328  51.954  1.00  0.00     0.278 HD
HETATM   17  H   UNL     1      28.466  44.565  51.515  1.00  0.00     0.278 HD
BRANCH  15  18
HETATM   18  C   UNL     1      27.083  44.729  49.988  1.00  0.00     0.272 C 
BRANCH  18  19
HETATM   19  C   UNL     1      26.128  45.889  49.936  1.00  0.00    -0.033 A 
HETATM   20  C   UNL     1      24.767  45.672  49.702  1.00  0.00     0.011 A 
HETATM   21  C   UNL     1      23.917  46.745  49.413  1.00  0.00     0.030 A 
HETATM   22  C   UNL     1      24.394  48.059  49.339  1.00  0.00     0.037 A 
HETATM   23  C   UNL     1      25.746  48.273  49.645  1.00  0.00     0.030 A 
HETATM   24  C   UNL     1      26.606  47.204  49.931  1.00  0.00     0.011 A 
BRANCH  22  25
HETATM   25  N   UNL     1      23.559  49.137  48.941  1.00  0.00    -0.318 N 
HETATM   26  C   UNL     1      23.872  50.105  47.969  1.00  0.00     0.224 C 
HETATM   27  O   UNL     1      24.860  50.185  47.257  1.00  0.00    -0.273 OA
HETATM   28  C   UNL     1      22.789  51.159  47.999  1.00  0.00     0.105 C 
HETATM   29  C   UNL     1      21.651  50.469  48.725  1.00  0.00     0.029 C 
HETATM   30  C   UNL     1      22.359  49.509  49.655  1.00  0.00     0.133 C 
ENDBRANCH  22  25
ENDBRANCH  18  19
ENDBRANCH  15  18
ENDBRANCH   1  15
BRANCH   1  31
HETATM   31  C   UNL     1      26.937  42.038  51.318  1.00  0.00    -0.019 A 
HETATM   32  C   UNL     1      28.143  41.323  51.208  1.00  0.00     0.010 A 
HETATM   33  C   UNL     1      28.213  40.157  50.445  1.00  0.00     0.001 A 
HETATM   34  C   UNL     1      27.083  39.690  49.781  1.00  0.00     0.000 A 
HETATM   35  C   UNL     1      25.883  40.391  49.871  1.00  0.00     0.001 A 
HETATM   36  C   UNL     1      25.807  41.560  50.631  1.00  0.00     0.010 A 
ENDBRANCH   1  31
TORSDOF 8
ENDMDL
MODEL 2
REMARK VINA RESULT:     -10.0      2.296      3.746
REMARK  8 active torsions:
REMARK  status: ('A' for Active; 'I' for Inactive)
REMARK    1  A    between atoms: C_4  and  N_5 
REMARK       I    between atoms: N_5  and  C_6 
REMARK    2  A    between atoms: C_6  and  C_7 
REMARK    3  A    between atoms: C_7  and  N_8 
REMARK    4  A    between atoms: C_7  and  C_24 
REMARK    5  A    between atoms: N_8  and  C_11 
REMARK    6  A    between atoms: C_11  and  C_12 
REMARK    7  A    between atoms: C_15  and  N_16 
REMARK    8  A    between atoms: C_31  and  O_32 
ROOT
HETATM    1  C   UNL     1      27.195  43.226  51.712  1.00  0.00     0.310 C 
ENDROOT
BRANCH   1   2
HETATM    2  C   UNL     1      27.915  43.162  53.083  1.00  0.00     0.257 C 
HETATM    3  N   UNL     1      28.873  44.102  53.358  1.00  0.00    -0.323 N 
HETATM    4  H   UNL     1      29.178  44.758  52.639  1.00  0.00     0.169 HD
HETATM    5  O   UNL     1      27.447  42.347  53.888  1.00  0.00    -0.270 OA
BRANCH   3   6
HETATM    6  C   UNL     1      29.451  44.397  54.619  1.00  0.00     0.069 A 
HETATM    7  C   UNL     1      30.429  43.608  55.233  1.00  0.00     0.039 A 
HETATM    8  C   UNL     1      30.913  43.936  56.507  1.00  0.00    -0.060 A 
HETATM    9  C   UNL     1      31.983  43.105  57.155  1.00  0.00     0.048 C 
HETATM   10  C   UNL     1      30.425  45.076  57.150  1.00  0.00     0.009 A 
HETATM   11  C   UNL     1      29.456  45.878  56.542  1.00  0.00     0.039 A 
HETATM   12  C   UNL     1      28.967  45.546  55.276  1.00  0.00     0.095 A 
BRANCH  12  13
HETATM   13  O   UNL     1      27.998  46.246  54.593  1.00  0.00    -0.354 OA
HETATM   14  C   UNL     1      27.627  47.513  55.128  1.00  0.00     0.210 C 
ENDBRANCH  12  13
ENDBRANCH   3   6
ENDBRANCH   1   2
BRANCH   1  15
HETATM   15  N   UNL     1      26.162  42.128  51.752  1.00  0.00    -0.054 N 
HETATM   16  H   UNL     1      26.571  41.404  52.369  1.00  0.00     0.278 HD
HETATM   17  H   UNL     1      25.336  42.442  52.274  1.00  0.00     0.278 HD
BRANCH  15  18
HETATM   18  C   UNL     1      25.741  41.482  50.490  1.00  0.00     0.272 C 
BRANCH  18  19
HETATM   19  C   UNL     1      24.664  42.337  49.882  1.00  0.00    -0.033 A 
HETATM   20  C   UNL     1      24.821  42.859  48.595  1.00  0.00     0.011 A 
HETATM   21  C   UNL     1      23.947  43.843  48.117  1.00  0.00     0.030 A 
HETATM   22  C   UNL     1      22.901  44.338  48.904  1.00  0.00     0.037 A 
HETATM   23  C   UNL     1      22.709  43.756  50.165  1.00  0.00     0.030 A 
HETATM   24  C   UNL     1      23.582  42.774  50.654  1.00  0.00     0.011 A 
BRANCH  22  25
HETATM   25  N   UNL     1      22.078  45.410  48.466  1.00  0.00    -0.318 N 
HETATM   26  C   UNL     1      20.775  45.290  47.949  1.00  0.00     0.224 C 
HETATM   27  O   UNL     1      20.088  44.288  47.827  1.00  0.00    -0.273 OA
HETATM   28  C   UNL     1      20.349  46.649  47.442  1.00  0.00     0.105 C 
HETATM   29  C   UNL     1      21.320  47.594  48.123  1.00  0.00     0.029 C 
HETATM   30  C   UNL     1      22.569  46.757  48.285  1.00  0.00     0.133 C 
ENDBRANCH  22  25
ENDBRANCH  18  19
ENDBRANCH  15  18
ENDBRANCH   1  15
BRANCH   1  31
HETATM   31  C   UNL     1      26.644  44.570  51.294  1.00  0.00    -0.019 A 
HETATM   32  C   UNL     1      27.099  45.155  50.098  1.00  0.00     0.010 A 
HETATM   33  C   UNL     1      26.630  46.404  49.692  1.00  0.00     0.001 A 
HETATM   34  C   UNL     1      25.703  47.087  50.472  1.00  0.00     0.000 A 
HETATM   35  C   UNL     1      25.249  46.528  51.664  1.00  0.00     0.001 A 
HETATM   36  C   UNL     1      25.716  45.279  52.078  1.00  0.00     0.010 A 
ENDBRANCH   1  31
TORSDOF 8
ENDMDL
MODEL 3
REMARK VINA RESULT:     -10.0      2.077      5.817
REMARK  8 active torsions:
REMARK  status: ('A' for Active; 'I' for Inactive)
REMARK    1  A    between atoms: C_4  and  N_5 
REMARK       I    between atoms: N_5  and  C_6 
REMARK    2  A    between atoms: C_6  and  C_7 
REMARK    3  A    between atoms: C_7  and  N_8 
REMARK    4  A    between atoms: C_7  and  C_24 
REMARK    5  A    between atoms: N_8  and  C_11 
REMARK    6  A    between atoms: C_11  and  C_12 
REMARK    7  A    between atoms: C_15  and  N_16 
REMARK    8  A    between atoms: C_31  and  O_32 
ROOT
HETATM    1  C   UNL     1      27.812  43.851  53.624  1.00  0.00     0.310 C 
ENDROOT
BRANCH   1   2
HETATM    2  C   UNL     1      28.187  42.961  52.412  1.00  0.00     0.257 C 
HETATM    3  N   UNL     1      27.767  41.656  52.410  1.00  0.00    -0.323 N 
HETATM    4  H   UNL     1      27.315  41.255  53.231  1.00  0.00     0.169 HD
HETATM    5  O   UNL     1      28.710  43.555  51.461  1.00  0.00    -0.270 OA
BRANCH   3   6
HETATM    6  C   UNL     1      27.758  40.758  51.313  1.00  0.00     0.069 A 
HETATM    7  C   UNL     1      28.795  39.865  51.026  1.00  0.00     0.039 A 
HETATM    8  C   UNL     1      28.736  39.046  49.890  1.00  0.00    -0.060 A 
HETATM    9  C   UNL     1      29.836  38.067  49.596  1.00  0.00     0.048 C 
HETATM   10  C   UNL     1      27.617  39.113  49.057  1.00  0.00     0.009 A 
HETATM   11  C   UNL     1      26.569  39.993  49.339  1.00  0.00     0.039 A 
HETATM   12  C   UNL     1      26.632  40.816  50.466  1.00  0.00     0.095 A 
BRANCH  12  13
HETATM   13  O   UNL     1      25.674  41.736  50.829  1.00  0.00    -0.354 OA
HETATM   14  C   UNL     1      24.688  42.053  49.851  1.00  0.00     0.210 C 
ENDBRANCH  12  13
ENDBRANCH   3   6
ENDBRANCH   1   2
BRANCH   1  15
HETATM   15  N   UNL     1      26.569  43.228  54.207  1.00  0.00    -0.054 N 
HETATM   16  H   UNL     1      26.261  42.539  53.498  1.00  0.00     0.278 HD
HETATM   17  H   UNL     1      26.814  42.642  55.012  1.00  0.00     0.278 HD
BRANCH  15  18
HETATM   18  C   UNL     1      25.417  44.092  54.547  1.00  0.00     0.272 C 
BRANCH  18  19
HETATM   19  C   UNL     1      25.323  45.157  53.490  1.00  0.00    -0.033 A 
HETATM   20  C   UNL     1      24.908  44.831  52.196  1.00  0.00     0.011 A 
HETATM   21  C   UNL     1      25.048  45.753  51.153  1.00  0.00     0.030 A 
HETATM   22  C   UNL     1      25.609  47.018  51.363  1.00  0.00     0.037 A 
HETATM   23  C   UNL     1      25.956  47.361  52.678  1.00  0.00     0.030 A 
HETATM   24  C   UNL     1      25.824  46.442  53.728  1.00  0.00     0.011 A 
BRANCH  22  25
HETATM   25  N   UNL     1      25.851  47.917  50.290  1.00  0.00    -0.318 N 
HETATM   26  C   UNL     1      24.872  48.638  49.581  1.00  0.00     0.224 C 
HETATM   27  O   UNL     1      23.667  48.681  49.770  1.00  0.00    -0.273 OA
HETATM   28  C   UNL     1      25.551  49.320  48.416  1.00  0.00     0.105 C 
HETATM   29  C   UNL     1      27.017  49.290  48.800  1.00  0.00     0.029 C 
HETATM   30  C   UNL     1      27.135  48.035  49.636  1.00  0.00     0.133 C 
ENDBRANCH  22  25
ENDBRANCH  18  19
ENDBRANCH  15  18
ENDBRANCH   1  15
BRANCH   1  31
HETATM   31  C   UNL     1      28.901  44.112  54.640  1.00  0.00    -0.019 A 
HETATM   32  C   UNL     1      29.897  43.140  54.840  1.00  0.00     0.010 A 
HETATM   33  C   UNL     1      30.905  43.337  55.785  1.00  0.00     0.001 A 
HETATM   34  C   UNL     1      30.931  44.503  56.543  1.00  0.00     0.000 A 
HETATM   35  C   UNL     1      29.947  45.472  56.364  1.00  0.00     0.001 A 
HETATM   36  C   UNL     1      28.934  45.281  55.422  1.00  0.00     0.010 A 
ENDBRANCH   1  31
TORSDOF 8
ENDMDL
MODEL 4
REMARK VINA RESULT:      -9.7      2.482      9.998
REMARK  8 active torsions:
REMARK  status: ('A' for Active; 'I' for Inactive)
REMARK    1  A    between atoms: C_4  and  N_5 
REMARK       I    between atoms: N_5  and  C_6 
REMARK    2  A    between atoms: C_6  and  C_7 
REMARK    3  A    between atoms: C_7  and  N_8 
REMARK    4  A    between atoms: C_7  and  C_24 
REMARK    5  A    between atoms: N_8  and  C_11 
REMARK    6  A    between atoms: C_11  and  C_12 
REMARK    7  A    between atoms: C_15  and  N_16 
REMARK    8  A    between atoms: C_31  and  O_32 
ROOT
HETATM    1  C   UNL     1      23.903  47.349  49.546  1.00  0.00     0.310 C 
ENDROOT
BRANCH   1   2
HETATM    2  C   UNL     1      22.562  47.736  48.871  1.00  0.00     0.257 C 
HETATM    3  N   UNL     1      21.621  48.389  49.623  1.00  0.00    -0.323 N 
HETATM    4  H   UNL     1      21.757  48.520  50.625  1.00  0.00     0.169 HD
HETATM    5  O   UNL     1      22.515  47.555  47.648  1.00  0.00    -0.270 OA
BRANCH   3   6
HETATM    6  C   UNL     1      20.465  49.065  49.155  1.00  0.00     0.069 A 
HETATM    7  C   UNL     1      20.400  50.446  48.945  1.00  0.00     0.039 A 
HETATM    8  C   UNL     1      19.204  51.049  48.533  1.00  0.00    -0.060 A 
HETATM    9  C   UNL     1      19.140  52.528  48.281  1.00  0.00     0.048 C 
HETATM   10  C   UNL     1      18.078  50.251  48.311  1.00  0.00     0.009 A 
HETATM   11  C   UNL     1      18.134  48.869  48.507  1.00  0.00     0.039 A 
HETATM   12  C   UNL     1      19.324  48.269  48.926  1.00  0.00     0.095 A 
BRANCH  12  13
HETATM   13  O   UNL     1      19.489  46.925  49.174  1.00  0.00    -0.354 OA
HETATM   14  C   UNL     1      19.070  46.029  48.149  1.00  0.00     0.210 C 
ENDBRANCH  12  13
ENDBRANCH   3   6
ENDBRANCH   1   2
BRANCH   1  15
HETATM   15  N   UNL     1      24.124  45.900  49.191  1.00  0.00    -0.054 N 
HETATM   16  H   UNL     1      23.458  45.713  48.420  1.00  0.00     0.278 HD
HETATM   17  H   UNL     1      25.040  45.784  48.743  1.00  0.00     0.278 HD
BRANCH  15  18
HETATM   18  C   UNL     1      23.939  44.863  50.229  1.00  0.00     0.272 C 
BRANCH  18  19
HETATM   19  C   UNL     1      25.153  44.889  51.116  1.00  0.00    -0.033 A 
HETATM   20  C   UNL     1      26.391  44.458  50.629  1.00  0.00     0.011 A 
HETATM   21  C   UNL     1      27.463  44.251  51.503  1.00  0.00     0.030 A 
HETATM   22  C   UNL     1      27.336  44.456  52.882  1.00  0.00     0.037 A 
HETATM   23  C   UNL     1      26.112  44.956  53.350  1.00  0.00     0.030 A 
HETATM   24  C   UNL     1      25.030  45.163  52.482  1.00  0.00     0.011 A 
BRANCH  22  25
HETATM   25  N   UNL     1      28.387  44.145  53.785  1.00  0.00    -0.318 N 
HETATM   26  C   UNL     1      28.876  44.986  54.801  1.00  0.00     0.224 C 
HETATM   27  O   UNL     1      28.479  46.091  55.139  1.00  0.00    -0.273 OA
HETATM   28  C   UNL     1      30.105  44.335  55.392  1.00  0.00     0.105 C 
HETATM   29  C   UNL     1      29.984  42.891  54.944  1.00  0.00     0.029 C 
HETATM   30  C   UNL     1      29.247  42.994  53.626  1.00  0.00     0.133 C 
ENDBRANCH  22  25
ENDBRANCH  18  19
ENDBRANCH  15  18
ENDBRANCH   1  15
BRANCH   1  31
HETATM   31  C   UNL     1      25.091  48.238  49.261  1.00  0.00    -0.019 A 
HETATM   32  C   UNL     1      24.901  49.417  48.518  1.00  0.00     0.010 A 
HETATM   33  C   UNL     1      25.978  50.251  48.217  1.00  0.00     0.001 A 
HETATM   34  C   UNL     1      27.257  49.920  48.650  1.00  0.00     0.000 A 
HETATM   35  C   UNL     1      27.466  48.751  49.378  1.00  0.00     0.001 A 
HETATM   36  C   UNL     1      26.392  47.911  49.681  1.00  0.00     0.010 A 
ENDBRANCH   1  31
TORSDOF 8
ENDMDL
MODEL 5
REMARK VINA RESULT:      -9.7      1.999      8.720
REMARK  8 active torsions:
REMARK  status: ('A' for Active; 'I' for Inactive)
REMARK    1  A    between atoms: C_4  and  N_5 
REMARK       I    between atoms: N_5  and  C_6 
REMARK    2  A    between atoms: C_6  and  C_7 
REMARK    3  A    between atoms: C_7  and  N_8 
REMARK    4  A    between atoms: C_7  and  C_24 
REMARK    5  A    between atoms: N_8  and  C_11 
REMARK    6  A    between atoms: C_11  and  C_12 
REMARK    7  A    between atoms: C_15  and  N_16 
REMARK    8  A    between atoms: C_31  and  O_32 
ROOT
HETATM    1  C   UNL     1      25.553  46.965  50.733  1.00  0.00     0.310 C 
ENDROOT
BRANCH   1   2
HETATM    2  C   UNL     1      26.046  45.585  50.226  1.00  0.00     0.257 C 
HETATM    3  N   UNL     1      25.528  44.457  50.805  1.00  0.00    -0.323 N 
HETATM    4  H   UNL     1      24.917  44.525  51.619  1.00  0.00     0.169 HD
HETATM    5  O   UNL     1      26.764  45.618  49.218  1.00  0.00    -0.270 OA
BRANCH   3   6
HETATM    6  C   UNL     1      25.624  43.124  50.329  1.00  0.00     0.069 A 
HETATM    7  C   UNL     1      24.908  42.634  49.232  1.00  0.00     0.039 A 
HETATM    8  C   UNL     1      25.016  41.288  48.855  1.00  0.00    -0.060 A 
HETATM    9  C   UNL     1      24.269  40.767  47.661  1.00  0.00     0.048 C 
HETATM   10  C   UNL     1      25.865  40.443  49.574  1.00  0.00     0.009 A 
HETATM   11  C   UNL     1      26.594  40.925  50.665  1.00  0.00     0.039 A 
HETATM   12  C   UNL     1      26.480  42.264  51.046  1.00  0.00     0.095 A 
BRANCH  12  13
HETATM   13  O   UNL     1      27.129  42.841  52.115  1.00  0.00    -0.354 OA
HETATM   14  C   UNL     1      28.549  42.737  52.133  1.00  0.00     0.210 C 
ENDBRANCH  12  13
ENDBRANCH   3   6
ENDBRANCH   1   2
BRANCH   1  15
HETATM   15  N   UNL     1      26.399  47.269  51.944  1.00  0.00    -0.054 N 
HETATM   16  H   UNL     1      27.131  46.537  51.946  1.00  0.00     0.278 HD
HETATM   17  H   UNL     1      26.932  48.133  51.792  1.00  0.00     0.278 HD
BRANCH  15  18
HETATM   18  C   UNL     1      25.766  47.299  53.281  1.00  0.00     0.272 C 
BRANCH  18  19
HETATM   19  C   UNL     1      26.727  46.668  54.250  1.00  0.00    -0.033 A 
HETATM   20  C   UNL     1      27.781  47.414  54.783  1.00  0.00     0.011 A 
HETATM   21  C   UNL     1      28.812  46.782  55.487  1.00  0.00     0.030 A 
HETATM   22  C   UNL     1      28.829  45.394  55.674  1.00  0.00     0.037 A 
HETATM   23  C   UNL     1      27.731  44.665  55.196  1.00  0.00     0.030 A 
HETATM   24  C   UNL     1      26.696  45.289  54.486  1.00  0.00     0.011 A 
BRANCH  22  25
HETATM   25  N   UNL     1      29.925  44.736  56.294  1.00  0.00    -0.318 N 
HETATM   26  C   UNL     1      30.541  45.118  57.499  1.00  0.00     0.224 C 
HETATM   27  O   UNL     1      30.241  46.025  58.259  1.00  0.00    -0.273 OA
HETATM   28  C   UNL     1      31.769  44.257  57.686  1.00  0.00     0.105 C 
HETATM   29  C   UNL     1      31.525  43.093  56.746  1.00  0.00     0.029 C 
HETATM   30  C   UNL     1      30.697  43.705  55.637  1.00  0.00     0.133 C 
ENDBRANCH  22  25
ENDBRANCH  18  19
ENDBRANCH  15  18
ENDBRANCH   1  15
BRANCH   1  31
HETATM   31  C   UNL     1      25.507  48.086  49.720  1.00  0.00    -0.019 A 
HETATM   32  C   UNL     1      24.265  48.478  49.190  1.00  0.00     0.010 A 
HETATM   33  C   UNL     1      24.185  49.494  48.237  1.00  0.00     0.001 A 
HETATM   34  C   UNL     1      25.342  50.130  47.800  1.00  0.00     0.000 A 
HETATM   35  C   UNL     1      26.582  49.748  48.307  1.00  0.00     0.001 A 
HETATM   36  C   UNL     1      26.668  48.730  49.259  1.00  0.00     0.010 A 
ENDBRANCH   1  31
TORSDOF 8
ENDMDL
MODEL 6
REMARK VINA RESULT:      -9.3      2.089      8.912
REMARK  8 active torsions:
REMARK  status: ('A' for Active; 'I' for Inactive)
REMARK    1  A    between atoms: C_4  and  N_5 
REMARK       I    between atoms: N_5  and  C_6 
REMARK    2  A    between atoms: C_6  and  C_7 
REMARK    3  A    between atoms: C_7  and  N_8 
REMARK    4  A    between atoms: C_7  and  C_24 
REMARK    5  A    between atoms: N_8  and  C_11 
REMARK    6  A    between atoms: C_11  and  C_12 
REMARK    7  A    between atoms: C_15  and  N_16 
REMARK    8  A    between atoms: C_31  and  O_32 
ROOT
HETATM    1  C   UNL     1      26.390  45.845  51.143  1.00  0.00     0.310 C 
ENDROOT
BRANCH   1   2
HETATM    2  C   UNL     1      25.679  46.592  49.985  1.00  0.00     0.257 C 
HETATM    3  N   UNL     1      24.314  46.702  50.024  1.00  0.00    -0.323 N 
HETATM    4  H   UNL     1      23.774  46.214  50.738  1.00  0.00     0.169 HD
HETATM    5  O   UNL     1      26.430  47.168  49.188  1.00  0.00    -0.270 OA
BRANCH   3   6
HETATM    6  C   UNL     1      23.498  47.554  49.238  1.00  0.00     0.069 A 
HETATM    7  C   UNL     1      23.604  48.948  49.232  1.00  0.00     0.039 A 
HETATM    8  C   UNL     1      22.723  49.727  48.469  1.00  0.00    -0.060 A 
HETATM    9  C   UNL     1      22.853  51.223  48.440  1.00  0.00     0.048 C 
HETATM   10  C   UNL     1      21.749  49.093  47.692  1.00  0.00     0.009 A 
HETATM   11  C   UNL     1      21.640  47.700  47.682  1.00  0.00     0.039 A 
HETATM   12  C   UNL     1      22.513  46.925  48.449  1.00  0.00     0.095 A 
BRANCH  12  13
HETATM   13  O   UNL     1      22.484  45.551  48.536  1.00  0.00    -0.354 OA
HETATM   14  C   UNL     1      21.426  44.889  47.848  1.00  0.00     0.210 C 
ENDBRANCH  12  13
ENDBRANCH   3   6
ENDBRANCH   1   2
BRANCH   1  15
HETATM   15  N   UNL     1      25.496  46.030  52.344  1.00  0.00    -0.054 N 
HETATM   16  H   UNL     1      24.552  46.190  51.948  1.00  0.00     0.278 HD
HETATM   17  H   UNL     1      25.392  45.141  52.845  1.00  0.00     0.278 HD
BRANCH  15  18
HETATM   18  C   UNL     1      25.790  47.116  53.305  1.00  0.00     0.272 C 
BRANCH  18  19
HETATM   19  C   UNL     1      26.793  46.586  54.292  1.00  0.00    -0.033 A 
HETATM   20  C   UNL     1      27.914  47.348  54.634  1.00  0.00     0.011 A 
HETATM   21  C   UNL     1      28.967  46.775  55.356  1.00  0.00     0.030 A 
HETATM   22  C   UNL     1      28.941  45.432  55.750  1.00  0.00     0.037 A 
HETATM   23  C   UNL     1      27.781  44.697  55.463  1.00  0.00     0.030 A 
HETATM   24  C   UNL     1      26.723  45.261  54.737  1.00  0.00     0.011 A 
BRANCH  22  25
HETATM   25  N   UNL     1      30.051  44.816  56.387  1.00  0.00    -0.318 N 
HETATM   26  C   UNL     1      30.816  43.757  55.867  1.00  0.00     0.224 C 
HETATM   27  O   UNL     1      30.724  43.206  54.781  1.00  0.00    -0.273 OA
HETATM   28  C   UNL     1      31.769  43.298  56.947  1.00  0.00     0.105 C 
HETATM   29  C   UNL     1      31.782  44.462  57.918  1.00  0.00     0.029 C 
HETATM   30  C   UNL     1      30.399  45.058  57.769  1.00  0.00     0.133 C 
ENDBRANCH  22  25
ENDBRANCH  18  19
ENDBRANCH  15  18
ENDBRANCH   1  15
BRANCH   1  31
HETATM   31  C   UNL     1      26.782  44.408  50.888  1.00  0.00    -0.019 A 
HETATM   32  C   UNL     1      27.653  43.766  51.786  1.00  0.00     0.010 A 
HETATM   33  C   UNL     1      28.055  42.447  51.570  1.00  0.00     0.001 A 
HETATM   34  C   UNL     1      27.596  41.753  50.456  1.00  0.00     0.000 A 
HETATM   35  C   UNL     1      26.740  42.376  49.551  1.00  0.00     0.001 A 
HETATM   36  C   UNL     1      26.336  43.697  49.759  1.00  0.00     0.010 A 
ENDBRANCH   1  31
TORSDOF 8
ENDMDL
MODEL 7
REMARK VINA RESULT:      -9.2      2.771      9.480
REMARK  8 active torsions:
REMARK  status: ('A' for Active; 'I' for Inactive)
REMARK    1  A    between atoms: C_4  and  N_5 
REMARK       I    between atoms: N_5  and  C_6 
REMARK    2  A    between atoms: C_6  and  C_7 
REMARK    3  A    between atoms: C_7  and  N_8 
REMARK    4  A    between atoms: C_7  and  C_24 
REMARK    5  A    between atoms: N_8  and  C_11 
REMARK    6  A    between atoms: C_11  and  C_12 
REMARK    7  A    between atoms: C_15  and  N_16 
REMARK    8  A    between atoms: C_31  and  O_32 
ROOT
HETATM    1  C   UNL     1      25.129  46.677  50.567  1.00  0.00     0.310 C 
ENDROOT
BRANCH   1   2
HETATM    2  C   UNL     1      24.951  45.349  49.787  1.00  0.00     0.257 C 
HETATM    3  N   UNL     1      23.690  44.826  49.674  1.00  0.00    -0.323 N 
HETATM    4  H   UNL     1      22.908  45.242  50.181  1.00  0.00     0.169 HD
HETATM    5  O   UNL     1      25.959  44.948  49.191  1.00  0.00    -0.270 OA
BRANCH   3   6
HETATM    6  C   UNL     1      23.262  43.796  48.798  1.00  0.00     0.069 A 
HETATM    7  C   UNL     1      22.580  44.025  47.599  1.00  0.00     0.039 A 
HETATM    8  C   UNL     1      22.141  42.952  46.812  1.00  0.00    -0.060 A 
HETATM    9  C   UNL     1      21.433  43.197  45.511  1.00  0.00     0.048 C 
HETATM   10  C   UNL     1      22.411  41.645  47.228  1.00  0.00     0.009 A 
HETATM   11  C   UNL     1      23.101  41.404  48.419  1.00  0.00     0.039 A 
HETATM   12  C   UNL     1      23.531  42.474  49.207  1.00  0.00     0.095 A 
BRANCH  12  13
HETATM   13  O   UNL     1      24.195  42.357  50.408  1.00  0.00    -0.354 OA
HETATM   14  C   UNL     1      25.397  41.592  50.401  1.00  0.00     0.210 C 
ENDBRANCH  12  13
ENDBRANCH   3   6
ENDBRANCH   1   2
BRANCH   1  15
HETATM   15  N   UNL     1      26.032  46.340  51.727  1.00  0.00    -0.054 N 
HETATM   16  H   UNL     1      25.772  45.373  51.991  1.00  0.00     0.278 HD
HETATM   17  H   UNL     1      27.000  46.242  51.401  1.00  0.00     0.278 HD
BRANCH  15  18
HETATM   18  C   UNL     1      25.995  47.182  52.942  1.00  0.00     0.272 C 
BRANCH  18  19
HETATM   19  C   UNL     1      26.876  46.528  53.972  1.00  0.00    -0.033 A 
HETATM   20  C   UNL     1      27.563  47.307  54.907  1.00  0.00     0.011 A 
HETATM   21  C   UNL     1      28.563  46.738  55.704  1.00  0.00     0.030 A 
HETATM   22  C   UNL     1      28.912  45.387  55.591  1.00  0.00     0.037 A 
HETATM   23  C   UNL     1      28.167  44.601  54.700  1.00  0.00     0.030 A 
HETATM   24  C   UNL     1      27.167  45.162  53.894  1.00  0.00     0.011 A 
BRANCH  22  25
HETATM   25  N   UNL     1      29.996  44.830  56.320  1.00  0.00    -0.318 N 
HETATM   26  C   UNL     1      30.819  43.772  55.893  1.00  0.00     0.224 C 
HETATM   27  O   UNL     1      30.807  43.174  54.828  1.00  0.00    -0.273 OA
HETATM   28  C   UNL     1      31.715  43.385  57.047  1.00  0.00     0.105 C 
HETATM   29  C   UNL     1      31.638  44.588  57.966  1.00  0.00     0.029 C 
HETATM   30  C   UNL     1      30.253  45.139  57.708  1.00  0.00     0.133 C 
ENDBRANCH  22  25
ENDBRANCH  18  19
ENDBRANCH  15  18
ENDBRANCH   1  15
BRANCH   1  31
HETATM   31  C   UNL     1      25.578  47.880  49.770  1.00  0.00    -0.019 A 
HETATM   32  C   UNL     1      24.615  48.659  49.105  1.00  0.00     0.010 A 
HETATM   33  C   UNL     1      24.995  49.764  48.342  1.00  0.00     0.001 A 
HETATM   34  C   UNL     1      26.339  50.105  48.231  1.00  0.00     0.000 A 
HETATM   35  C   UNL     1      27.307  49.340  48.876  1.00  0.00     0.001 A 
HETATM   36  C   UNL     1      26.934  48.231  49.639  1.00  0.00     0.010 A 
ENDBRANCH   1  31
TORSDOF 8
ENDMDL
MODEL 8
REMARK VINA RESULT:      -9.2      2.006      2.445
REMARK  8 active torsions:
REMARK  status: ('A' for Active; 'I' for Inactive)
REMARK    1  A    between atoms: C_4  and  N_5 
REMARK       I    between atoms: N_5  and  C_6 
REMARK    2  A    between atoms: C_6  and  C_7 
REMARK    3  A    between atoms: C_7  and  N_8 
REMARK    4  A    between atoms: C_7  and  C_24 
REMARK    5  A    between atoms: N_8  and  C_11 
REMARK    6  A    between atoms: C_11  and  C_12 
REMARK    7  A    between atoms: C_15  and  N_16 
REMARK    8  A    between atoms: C_31  and  O_32 
ROOT
HETATM    1  C   UNL     1      26.713  43.421  52.311  1.00  0.00     0.310 C 
ENDROOT
BRANCH   1   2
HETATM    2  C   UNL     1      27.514  43.369  53.638  1.00  0.00     0.257 C 
HETATM    3  N   UNL     1      28.588  44.208  53.781  1.00  0.00    -0.323 N 
HETATM    4  H   UNL     1      28.915  44.771  52.997  1.00  0.00     0.169 HD
HETATM    5  O   UNL     1      27.013  42.673  54.530  1.00  0.00    -0.270 OA
BRANCH   3   6
HETATM    6  C   UNL     1      29.280  44.521  54.979  1.00  0.00     0.069 A 
HETATM    7  C   UNL     1      30.363  43.785  55.469  1.00  0.00     0.039 A 
HETATM    8  C   UNL     1      30.962  44.125  56.690  1.00  0.00    -0.060 A 
HETATM    9  C   UNL     1      32.142  43.352  57.204  1.00  0.00     0.048 C 
HETATM   10  C   UNL     1      30.479  45.225  57.404  1.00  0.00     0.009 A 
HETATM   11  C   UNL     1      29.404  45.974  56.919  1.00  0.00     0.039 A 
HETATM   12  C   UNL     1      28.802  45.630  55.706  1.00  0.00     0.095 A 
BRANCH  12  13
HETATM   13  O   UNL     1      27.725  46.278  55.144  1.00  0.00    -0.354 OA
HETATM   14  C   UNL     1      27.908  47.652  54.813  1.00  0.00     0.210 C 
ENDBRANCH  12  13
ENDBRANCH   3   6
ENDBRANCH   1   2
BRANCH   1  15
HETATM   15  N   UNL     1      26.751  44.865  51.878  1.00  0.00    -0.054 N 
HETATM   16  H   UNL     1      27.590  45.258  52.343  1.00  0.00     0.278 HD
HETATM   17  H   UNL     1      26.985  44.927  50.881  1.00  0.00     0.278 HD
BRANCH  15  18
HETATM   18  C   UNL     1      25.599  45.742  52.178  1.00  0.00     0.272 C 
BRANCH  18  19
HETATM   19  C   UNL     1      24.796  45.881  50.914  1.00  0.00    -0.033 A 
HETATM   20  C   UNL     1      24.612  47.139  50.332  1.00  0.00     0.011 A 
HETATM   21  C   UNL     1      23.678  47.315  49.305  1.00  0.00     0.030 A 
HETATM   22  C   UNL     1      22.898  46.252  48.834  1.00  0.00     0.037 A 
HETATM   23  C   UNL     1      23.141  44.982  49.376  1.00  0.00     0.030 A 
HETATM   24  C   UNL     1      24.072  44.797  50.408  1.00  0.00     0.011 A 
BRANCH  22  25
HETATM   25  N   UNL     1      21.874  46.446  47.868  1.00  0.00    -0.318 N 
HETATM   26  C   UNL     1      20.681  47.166  48.065  1.00  0.00     0.224 C 
HETATM   27  O   UNL     1      20.319  47.794  49.047  1.00  0.00    -0.273 OA
HETATM   28  C   UNL     1      19.808  46.960  46.848  1.00  0.00     0.105 C 
HETATM   29  C   UNL     1      20.783  46.460  45.800  1.00  0.00     0.029 C 
HETATM   30  C   UNL     1      21.828  45.728  46.614  1.00  0.00     0.133 C 
ENDBRANCH  22  25
ENDBRANCH  18  19
ENDBRANCH  15  18
ENDBRANCH   1  15
BRANCH   1  31
HETATM   31  C   UNL     1      27.123  42.447  51.230  1.00  0.00    -0.019 A 
HETATM   32  C   UNL     1      27.863  41.304  51.583  1.00  0.00     0.010 A 
HETATM   33  C   UNL     1      28.277  40.394  50.610  1.00  0.00     0.001 A 
HETATM   34  C   UNL     1      27.961  40.613  49.273  1.00  0.00     0.000 A 
HETATM   35  C   UNL     1      27.238  41.744  48.904  1.00  0.00     0.001 A 
HETATM   36  C   UNL     1      26.822  42.660  49.873  1.00  0.00     0.010 A 
ENDBRANCH   1  31
TORSDOF 8
ENDMDL
MODEL 9
REMARK VINA RESULT:      -9.1      2.542      4.145
REMARK  8 active torsions:
REMARK  status: ('A' for Active; 'I' for Inactive)
REMARK    1  A    between atoms: C_4  and  N_5 
REMARK       I    between atoms: N_5  and  C_6 
REMARK    2  A    between atoms: C_6  and  C_7 
REMARK    3  A    between atoms: C_7  and  N_8 
REMARK    4  A    between atoms: C_7  and  C_24 
REMARK    5  A    between atoms: N_8  and  C_11 
REMARK    6  A    between atoms: C_11  and  C_12 
REMARK    7  A    between atoms: C_15  and  N_16 
REMARK    8  A    between atoms: C_31  and  O_32 
ROOT
HETATM    1  C   UNL     1      24.349  44.290  51.125  1.00  0.00     0.310 C 
ENDROOT
BRANCH   1   2
HETATM    2  C   UNL     1      25.700  44.522  51.851  1.00  0.00     0.257 C 
HETATM    3  N   UNL     1      26.050  43.665  52.861  1.00  0.00    -0.323 N 
HETATM    4  H   UNL     1      25.392  42.961  53.196  1.00  0.00     0.169 HD
HETATM    5  O   UNL     1      26.430  45.384  51.347  1.00  0.00    -0.270 OA
BRANCH   3   6
HETATM    6  C   UNL     1      27.325  43.522  53.464  1.00  0.00     0.069 A 
HETATM    7  C   UNL     1      27.876  44.450  54.353  1.00  0.00     0.039 A 
HETATM    8  C   UNL     1      29.168  44.265  54.866  1.00  0.00    -0.060 A 
HETATM    9  C   UNL     1      29.750  45.247  55.842  1.00  0.00     0.048 C 
HETATM   10  C   UNL     1      29.893  43.129  54.498  1.00  0.00     0.009 A 
HETATM   11  C   UNL     1      29.348  42.189  53.619  1.00  0.00     0.039 A 
HETATM   12  C   UNL     1      28.064  42.377  53.101  1.00  0.00     0.095 A 
BRANCH  12  13
HETATM   13  O   UNL     1      27.437  41.534  52.212  1.00  0.00    -0.354 OA
HETATM   14  C   UNL     1      28.277  40.808  51.319  1.00  0.00     0.210 C 
ENDBRANCH  12  13
ENDBRANCH   3   6
ENDBRANCH   1   2
BRANCH   1  15
HETATM   15  N   UNL     1      23.927  45.649  50.625  1.00  0.00    -0.054 N 
HETATM   16  H   UNL     1      22.983  45.795  51.025  1.00  0.00     0.278 HD
HETATM   17  H   UNL     1      24.488  46.379  51.076  1.00  0.00     0.278 HD
BRANCH  15  18
HETATM   18  C   UNL     1      23.861  45.896  49.168  1.00  0.00     0.272 C 
BRANCH  18  19
HETATM   19  C   UNL     1      22.960  47.081  48.952  1.00  0.00    -0.033 A 
HETATM   20  C   UNL     1      23.355  48.353  49.376  1.00  0.00     0.011 A 
HETATM   21  C   UNL     1      22.437  49.409  49.401  1.00  0.00     0.030 A 
HETATM   22  C   UNL     1      21.104  49.230  49.014  1.00  0.00     0.037 A 
HETATM   23  C   UNL     1      20.737  47.969  48.523  1.00  0.00     0.030 A 
HETATM   24  C   UNL     1      21.648  46.904  48.499  1.00  0.00     0.011 A 
BRANCH  22  25
HETATM   25  N   UNL     1      20.143  50.269  49.138  1.00  0.00    -0.318 N 
HETATM   26  C   UNL     1      19.174  50.378  50.153  1.00  0.00     0.224 C 
HETATM   27  O   UNL     1      19.001  49.663  51.127  1.00  0.00    -0.273 OA
HETATM   28  C   UNL     1      18.254  51.522  49.795  1.00  0.00     0.105 C 
HETATM   29  C   UNL     1      19.050  52.302  48.767  1.00  0.00     0.029 C 
HETATM   30  C   UNL     1      19.892  51.239  48.096  1.00  0.00     0.133 C 
ENDBRANCH  22  25
ENDBRANCH  18  19
ENDBRANCH  15  18
ENDBRANCH   1  15
BRANCH   1  31
HETATM   31  C   UNL     1      24.322  43.212  50.066  1.00  0.00    -0.019 A 
HETATM   32  C   UNL     1      23.085  42.670  49.674  1.00  0.00     0.010 A 
HETATM   33  C   UNL     1      23.023  41.657  48.715  1.00  0.00     0.001 A 
HETATM   34  C   UNL     1      24.191  41.172  48.138  1.00  0.00     0.000 A 
HETATM   35  C   UNL     1      25.426  41.691  48.522  1.00  0.00     0.001 A 
HETATM   36  C   UNL     1      25.495  42.702  49.482  1.00  0.00     0.010 A 
ENDBRANCH   1  31
TORSDOF 8
ENDMDL
MODEL 10
REMARK VINA RESULT:      -9.0      1.775      2.325
REMARK  8 active torsions:
REMARK  status: ('A' for Active; 'I' for Inactive)
REMARK    1  A    between atoms: C_4  and  N_5 
REMARK       I    between atoms: N_5  and  C_6 
REMARK    2  A    between atoms: C_6  and  C_7 
REMARK    3  A    between atoms: C_7  and  N_8 
REMARK    4  A    between atoms: C_7  and  C_24 
REMARK    5  A    between atoms: N_8  and  C_11 
REMARK    6  A    between atoms: C_11  and  C_12 
REMARK    7  A    between atoms: C_15  and  N_16 
REMARK    8  A    between atoms: C_31  and  O_32 
ROOT
HETATM    1  C   UNL     1      26.070  42.655  50.427  1.00  0.00     0.310 C 
ENDROOT
BRANCH   1   2
HETATM    2  C   UNL     1      26.887  43.630  51.314  1.00  0.00     0.257 C 
HETATM    3  N   UNL     1      26.827  43.476  52.674  1.00  0.00    -0.323 N 
HETATM    4  H   UNL     1      26.180  42.808  53.093  1.00  0.00     0.169 HD
HETATM    5  O   UNL     1      27.658  44.380  50.702  1.00  0.00    -0.270 OA
BRANCH   3   6
HETATM    6  C   UNL     1      27.682  44.059  53.643  1.00  0.00     0.069 A 
HETATM    7  C   UNL     1      28.856  43.460  54.111  1.00  0.00     0.039 A 
HETATM    8  C   UNL     1      29.620  44.076  55.112  1.00  0.00    -0.060 A 
HETATM    9  C   UNL     1      30.895  43.447  55.595  1.00  0.00     0.048 C 
HETATM   10  C   UNL     1      29.209  45.309  55.624  1.00  0.00     0.009 A 
HETATM   11  C   UNL     1      28.043  45.922  55.157  1.00  0.00     0.039 A 
HETATM   12  C   UNL     1      27.277  45.305  54.166  1.00  0.00     0.095 A 
BRANCH  12  13
HETATM   13  O   UNL     1      26.102  45.802  53.649  1.00  0.00    -0.354 OA
HETATM   14  C   UNL     1      26.083  47.189  53.323  1.00  0.00     0.210 C 
ENDBRANCH  12  13
ENDBRANCH   3   6
ENDBRANCH   1   2
BRANCH   1  15
HETATM   15  N   UNL     1      25.742  43.433  49.178  1.00  0.00    -0.054 N 
HETATM   16  H   UNL     1      25.996  44.412  49.402  1.00  0.00     0.278 HD
HETATM   17  H   UNL     1      26.397  43.187  48.428  1.00  0.00     0.278 HD
BRANCH  15  18
HETATM   18  C   UNL     1      24.357  43.419  48.658  1.00  0.00     0.272 C 
BRANCH  18  19
HETATM   19  C   UNL     1      23.790  44.799  48.845  1.00  0.00    -0.033 A 
HETATM   20  C   UNL     1      22.719  45.234  48.058  1.00  0.00     0.011 A 
HETATM   21  C   UNL     1      22.345  46.582  48.053  1.00  0.00     0.030 A 
HETATM   22  C   UNL     1      23.025  47.535  48.820  1.00  0.00     0.037 A 
HETATM   23  C   UNL     1      24.051  47.076  49.659  1.00  0.00     0.030 A 
HETATM   24  C   UNL     1      24.436  45.728  49.668  1.00  0.00     0.011 A 
BRANCH  22  25
HETATM   25  N   UNL     1      22.719  48.920  48.737  1.00  0.00    -0.318 N 
HETATM   26  C   UNL     1      21.489  49.513  49.075  1.00  0.00     0.224 C 
HETATM   27  O   UNL     1      20.489  48.991  49.543  1.00  0.00    -0.273 OA
HETATM   28  C   UNL     1      21.545  50.966  48.661  1.00  0.00     0.105 C 
HETATM   29  C   UNL     1      23.030  51.224  48.495  1.00  0.00     0.029 C 
HETATM   30  C   UNL     1      23.574  49.877  48.074  1.00  0.00     0.133 C 
ENDBRANCH  22  25
ENDBRANCH  18  19
ENDBRANCH  15  18
ENDBRANCH   1  15
BRANCH   1  31
HETATM   31  C   UNL     1      26.683  41.299  50.161  1.00  0.00    -0.019 A 
HETATM   32  C   UNL     1      27.971  41.023  50.652  1.00  0.00     0.010 A 
HETATM   33  C   UNL     1      28.577  39.790  50.407  1.00  0.00     0.001 A 
HETATM   34  C   UNL     1      27.908  38.819  49.669  1.00  0.00     0.000 A 
HETATM   35  C   UNL     1      26.636  39.080  49.167  1.00  0.00     0.001 A 
HETATM   36  C   UNL     1      26.024  40.313  49.406  1.00  0.00     0.010 A 
ENDBRANCH   1  31
TORSDOF 8
ENDMDL
