MODEL 1
REMARK VINA RESULT:      -8.3      0.000      0.000
REMARK  4 active torsions:
REMARK  status: ('A' for Active; 'I' for Inactive)
REMARK    1  A    between atoms: C_3  and  N_4 
REMARK       I    between atoms: N_4  and  C_5 
REMARK    2  A    between atoms: C_5  and  C_6 
REMARK    3  A    between atoms: C_7  and  C_8 
REMARK    4  A    between atoms: C_16  and  C_17 
ROOT
HETATM    1  C   UNL     1      27.712  47.129  55.221  1.00  0.00     0.003 A 
HETATM    2  C   UNL     1      27.108  46.463  54.153  1.00  0.00     0.029 A 
HETATM    3  C   UNL     1      27.526  45.181  53.794  1.00  0.00     0.035 A 
HETATM    4  C   UNL     1      28.565  44.578  54.519  1.00  0.00     0.042 A 
HETATM    5  C   UNL     1      29.182  45.236  55.595  1.00  0.00    -0.021 A 
HETATM    6  C   UNL     1      28.742  46.520  55.938  1.00  0.00     0.012 A 
ENDROOT
BRANCH   3   7
HETATM    7  N   UNL     1      26.984  44.454  52.714  1.00  0.00    -0.327 N 
HETATM    8  C   UNL     1      25.682  44.044  52.545  1.00  0.00     0.227 C 
HETATM    9  O   UNL     1      24.778  44.151  53.365  1.00  0.00    -0.273 OA
HETATM   10  H   UNL     1      27.650  44.105  52.033  1.00  0.00     0.169 HD
BRANCH   8  11
HETATM   11  C   UNL     1      25.329  43.442  51.225  1.00  0.00     0.089 A 
HETATM   12  C   UNL     1      25.182  44.203  49.924  1.00  0.00     0.057 A 
HETATM   13  C   UNL     1      23.988  43.521  50.570  1.00  0.00     0.027 A 
BRANCH  12  14
HETATM   14  C   UNL     1      25.119  45.716  49.829  1.00  0.00     0.057 A 
HETATM   15  O   UNL     1      23.989  46.448  49.618  1.00  0.00    -0.327 OA
HETATM   16  C   UNL     1      24.364  47.753  49.570  1.00  0.00     0.142 A 
HETATM   17  C   UNL     1      25.723  47.870  49.734  1.00  0.00     0.027 A 
HETATM   18  C   UNL     1      26.214  46.552  49.897  1.00  0.00     0.035 A 
ENDBRANCH  12  14
ENDBRANCH   8  11
ENDBRANCH   3   7
BRANCH   5  19
HETATM   19  C   UNL     1      30.249  44.584  56.338  1.00  0.00     0.010 A 
HETATM   20  C   UNL     1      30.806  44.876  57.606  1.00  0.00     0.152 A 
HETATM   21  N   UNL     1      31.776  44.027  57.956  1.00  0.00    -0.187 NA
HETATM   22  N   UNL     1      31.847  43.186  56.912  1.00  0.00    -0.289 N 
HETATM   23  H   UNL     1      32.527  42.435  56.944  1.00  0.00     0.188 HD
HETATM   24  C   UNL     1      30.953  43.475  55.921  1.00  0.00     0.123 A 
ENDBRANCH   5  19
TORSDOF 4
ENDMDL
MODEL 2
REMARK VINA RESULT:      -8.2      1.864      3.377
REMARK  4 active torsions:
REMARK  status: ('A' for Active; 'I' for Inactive)
REMARK    1  A    between atoms: C_3  and  N_4 
REMARK       I    between atoms: N_4  and  C_5 
REMARK    2  A    between atoms: C_5  and  C_6 
REMARK    3  A    between atoms: C_7  and  C_8 
REMARK    4  A    between atoms: C_16  and  C_17 
ROOT
HETATM    1  C   UNL     1      27.720  47.249  55.146  1.00  0.00     0.003 A 
HETATM    2  C   UNL     1      27.049  46.590  54.115  1.00  0.00     0.029 A 
HETATM    3  C   UNL     1      27.391  45.281  53.773  1.00  0.00     0.035 A 
HETATM    4  C   UNL     1      28.423  44.644  54.477  1.00  0.00     0.042 A 
HETATM    5  C   UNL     1      29.108  45.294  55.517  1.00  0.00    -0.021 A 
HETATM    6  C   UNL     1      28.742  46.606  55.843  1.00  0.00     0.012 A 
ENDROOT
BRANCH   3   7
HETATM    7  N   UNL     1      26.778  44.558  52.729  1.00  0.00    -0.327 N 
HETATM    8  C   UNL     1      25.489  44.079  52.681  1.00  0.00     0.227 C 
HETATM    9  O   UNL     1      24.673  44.108  53.593  1.00  0.00    -0.273 OA
HETATM   10  H   UNL     1      27.386  44.269  51.970  1.00  0.00     0.169 HD
BRANCH   8  11
HETATM   11  C   UNL     1      25.032  43.499  51.383  1.00  0.00     0.089 A 
HETATM   12  C   UNL     1      25.584  42.244  50.740  1.00  0.00     0.057 A 
HETATM   13  C   UNL     1      25.765  43.602  50.085  1.00  0.00     0.027 A 
BRANCH  12  14
HETATM   14  C   UNL     1      26.850  41.544  51.194  1.00  0.00     0.057 A 
HETATM   15  O   UNL     1      27.491  41.760  52.378  1.00  0.00    -0.327 OA
HETATM   16  C   UNL     1      28.591  40.962  52.386  1.00  0.00     0.142 A 
HETATM   17  C   UNL     1      28.673  40.245  51.217  1.00  0.00     0.027 A 
HETATM   18  C   UNL     1      27.551  40.623  50.443  1.00  0.00     0.035 A 
ENDBRANCH  12  14
ENDBRANCH   8  11
ENDBRANCH   3   7
BRANCH   5  19
HETATM   19  C   UNL     1      30.166  44.607  56.240  1.00  0.00     0.010 A 
HETATM   20  C   UNL     1      30.757  44.881  57.496  1.00  0.00     0.152 A 
HETATM   21  N   UNL     1      31.704  44.000  57.829  1.00  0.00    -0.187 NA
HETATM   22  N   UNL     1      31.726  43.156  56.785  1.00  0.00    -0.289 N 
HETATM   23  H   UNL     1      32.381  42.382  56.805  1.00  0.00     0.188 HD
HETATM   24  C   UNL     1      30.824  43.474  55.811  1.00  0.00     0.123 A 
ENDBRANCH   5  19
TORSDOF 4
ENDMDL
MODEL 3
REMARK VINA RESULT:      -8.0      1.839      3.252
REMARK  4 active torsions:
REMARK  status: ('A' for Active; 'I' for Inactive)
REMARK    1  A    between atoms: C_3  and  N_4 
REMARK       I    between atoms: N_4  and  C_5 
REMARK    2  A    between atoms: C_5  and  C_6 
REMARK    3  A    between atoms: C_7  and  C_8 
REMARK    4  A    between atoms: C_16  and  C_17 
ROOT
HETATM    1  C   UNL     1      30.414  42.537  53.496  1.00  0.00     0.003 A 
HETATM    2  C   UNL     1      29.292  42.986  52.798  1.00  0.00     0.029 A 
HETATM    3  C   UNL     1      28.500  44.011  53.319  1.00  0.00     0.035 A 
HETATM    4  C   UNL     1      28.848  44.576  54.554  1.00  0.00     0.042 A 
HETATM    5  C   UNL     1      29.975  44.135  55.268  1.00  0.00    -0.021 A 
HETATM    6  C   UNL     1      30.755  43.108  54.723  1.00  0.00     0.012 A 
ENDROOT
BRANCH   3   7
HETATM    7  N   UNL     1      27.339  44.501  52.687  1.00  0.00    -0.327 N 
HETATM    8  C   UNL     1      26.054  44.513  53.180  1.00  0.00     0.227 C 
HETATM    9  O   UNL     1      25.676  43.998  54.224  1.00  0.00    -0.273 OA
HETATM   10  H   UNL     1      27.444  44.785  51.719  1.00  0.00     0.169 HD
BRANCH   8  11
HETATM   11  C   UNL     1      25.032  45.254  52.382  1.00  0.00     0.089 A 
HETATM   12  C   UNL     1      24.247  44.686  51.218  1.00  0.00     0.057 A 
HETATM   13  C   UNL     1      25.243  45.813  51.013  1.00  0.00     0.027 A 
BRANCH  12  14
HETATM   14  C   UNL     1      24.572  43.371  50.536  1.00  0.00     0.057 A 
HETATM   15  O   UNL     1      25.450  42.437  51.000  1.00  0.00    -0.327 OA
HETATM   16  C   UNL     1      25.475  41.428  50.090  1.00  0.00     0.142 A 
HETATM   17  C   UNL     1      24.634  41.707  49.040  1.00  0.00     0.027 A 
HETATM   18  C   UNL     1      24.053  42.965  49.325  1.00  0.00     0.035 A 
ENDBRANCH  12  14
ENDBRANCH   8  11
ENDBRANCH   3   7
BRANCH   5  19
HETATM   19  C   UNL     1      30.321  44.746  56.541  1.00  0.00     0.010 A 
HETATM   20  C   UNL     1      29.866  45.942  57.147  1.00  0.00     0.152 A 
HETATM   21  N   UNL     1      30.417  46.160  58.344  1.00  0.00    -0.187 NA
HETATM   22  N   UNL     1      31.229  45.105  58.512  1.00  0.00    -0.289 N 
HETATM   23  H   UNL     1      31.769  45.044  59.368  1.00  0.00     0.188 HD
HETATM   24  C   UNL     1      31.205  44.230  57.464  1.00  0.00     0.123 A 
ENDBRANCH   5  19
TORSDOF 4
ENDMDL
MODEL 4
REMARK VINA RESULT:      -8.0      2.787      4.241
REMARK  4 active torsions:
REMARK  status: ('A' for Active; 'I' for Inactive)
REMARK    1  A    between atoms: C_3  and  N_4 
REMARK       I    between atoms: N_4  and  C_5 
REMARK    2  A    between atoms: C_5  and  C_6 
REMARK    3  A    between atoms: C_7  and  C_8 
REMARK    4  A    between atoms: C_16  and  C_17 
ROOT
HETATM    1  C   UNL     1      30.557  43.850  55.408  1.00  0.00     0.003 A 
HETATM    2  C   UNL     1      30.474  42.993  54.309  1.00  0.00     0.029 A 
HETATM    3  C   UNL     1      29.462  43.158  53.362  1.00  0.00     0.035 A 
HETATM    4  C   UNL     1      28.531  44.192  53.536  1.00  0.00     0.042 A 
HETATM    5  C   UNL     1      28.603  45.062  54.637  1.00  0.00    -0.021 A 
HETATM    6  C   UNL     1      29.629  44.878  55.571  1.00  0.00     0.012 A 
ENDROOT
BRANCH   3   7
HETATM    7  N   UNL     1      29.296  42.320  52.240  1.00  0.00    -0.327 N 
HETATM    8  C   UNL     1      28.311  41.383  52.028  1.00  0.00     0.227 C 
HETATM    9  O   UNL     1      27.458  41.036  52.835  1.00  0.00    -0.273 OA
HETATM   10  H   UNL     1      30.044  42.338  51.555  1.00  0.00     0.169 HD
BRANCH   8  11
HETATM   11  C   UNL     1      28.258  40.753  50.676  1.00  0.00     0.089 A 
HETATM   12  C   UNL     1      27.576  41.343  49.459  1.00  0.00     0.057 A 
HETATM   13  C   UNL     1      27.070  40.059  50.092  1.00  0.00     0.027 A 
BRANCH  12  14
HETATM   14  C   UNL     1      26.635  42.531  49.506  1.00  0.00     0.057 A 
HETATM   15  O   UNL     1      25.315  42.508  49.166  1.00  0.00    -0.327 OA
HETATM   16  C   UNL     1      24.842  43.772  49.320  1.00  0.00     0.142 A 
HETATM   17  C   UNL     1      25.844  44.612  49.741  1.00  0.00     0.027 A 
HETATM   18  C   UNL     1      27.005  43.812  49.858  1.00  0.00     0.035 A 
ENDBRANCH  12  14
ENDBRANCH   8  11
ENDBRANCH   3   7
BRANCH   5  19
HETATM   19  C   UNL     1      27.632  46.133  54.788  1.00  0.00     0.010 A 
HETATM   20  C   UNL     1      26.380  46.343  54.162  1.00  0.00     0.152 A 
HETATM   21  N   UNL     1      25.768  47.454  54.580  1.00  0.00    -0.187 NA
HETATM   22  N   UNL     1      26.626  47.964  55.477  1.00  0.00    -0.289 N 
HETATM   23  H   UNL     1      26.377  48.829  55.944  1.00  0.00     0.188 HD
HETATM   24  C   UNL     1      27.753  47.211  55.639  1.00  0.00     0.123 A 
ENDBRANCH   5  19
TORSDOF 4
ENDMDL
MODEL 5
REMARK VINA RESULT:      -7.9      3.006      8.061
REMARK  4 active torsions:
REMARK  status: ('A' for Active; 'I' for Inactive)
REMARK    1  A    between atoms: C_3  and  N_4 
REMARK       I    between atoms: N_4  and  C_5 
REMARK    2  A    between atoms: C_5  and  C_6 
REMARK    3  A    between atoms: C_7  and  C_8 
REMARK    4  A    between atoms: C_16  and  C_17 
ROOT
HETATM    1  C   UNL     1      24.308  45.076  50.669  1.00  0.00     0.003 A 
HETATM    2  C   UNL     1      25.248  45.333  51.669  1.00  0.00     0.029 A 
HETATM    3  C   UNL     1      25.811  46.603  51.798  1.00  0.00     0.035 A 
HETATM    4  C   UNL     1      25.423  47.612  50.903  1.00  0.00     0.042 A 
HETATM    5  C   UNL     1      24.478  47.368  49.893  1.00  0.00    -0.021 A 
HETATM    6  C   UNL     1      23.925  46.086  49.787  1.00  0.00     0.012 A 
ENDROOT
BRANCH   3   7
HETATM    7  N   UNL     1      26.783  46.935  52.764  1.00  0.00    -0.327 N 
HETATM    8  C   UNL     1      26.616  47.034  54.126  1.00  0.00     0.227 C 
HETATM    9  O   UNL     1      25.555  46.953  54.732  1.00  0.00    -0.273 OA
HETATM   10  H   UNL     1      27.684  47.234  52.406  1.00  0.00     0.169 HD
BRANCH   8  11
HETATM   11  C   UNL     1      27.849  47.226  54.945  1.00  0.00     0.089 A 
HETATM   12  C   UNL     1      28.955  46.205  55.121  1.00  0.00     0.057 A 
HETATM   13  C   UNL     1      28.091  46.632  56.295  1.00  0.00     0.027 A 
BRANCH  12  14
HETATM   14  C   UNL     1      28.843  44.753  54.699  1.00  0.00     0.057 A 
HETATM   15  O   UNL     1      27.755  44.183  54.107  1.00  0.00    -0.327 OA
HETATM   16  C   UNL     1      28.046  42.870  53.918  1.00  0.00     0.142 A 
HETATM   17  C   UNL     1      29.303  42.583  54.394  1.00  0.00     0.027 A 
HETATM   18  C   UNL     1      29.817  43.799  54.904  1.00  0.00     0.035 A 
ENDBRANCH  12  14
ENDBRANCH   8  11
ENDBRANCH   3   7
BRANCH   5  19
HETATM   19  C   UNL     1      24.084  48.434  48.986  1.00  0.00     0.010 A 
HETATM   20  C   UNL     1      24.852  49.435  48.345  1.00  0.00     0.152 A 
HETATM   21  N   UNL     1      24.119  50.235  47.567  1.00  0.00    -0.187 NA
HETATM   22  N   UNL     1      22.874  49.753  47.707  1.00  0.00    -0.289 N 
HETATM   23  H   UNL     1      22.122  50.206  47.200  1.00  0.00     0.188 HD
HETATM   24  C   UNL     1      22.801  48.675  48.542  1.00  0.00     0.123 A 
ENDBRANCH   5  19
TORSDOF 4
ENDMDL
MODEL 6
REMARK VINA RESULT:      -7.9      4.492      7.592
REMARK  4 active torsions:
REMARK  status: ('A' for Active; 'I' for Inactive)
REMARK    1  A    between atoms: C_3  and  N_4 
REMARK       I    between atoms: N_4  and  C_5 
REMARK    2  A    between atoms: C_5  and  C_6 
REMARK    3  A    between atoms: C_7  and  C_8 
REMARK    4  A    between atoms: C_16  and  C_17 
ROOT
HETATM    1  C   UNL     1      26.773  48.952  48.954  1.00  0.00     0.003 A 
HETATM    2  C   UNL     1      25.633  49.608  48.486  1.00  0.00     0.029 A 
HETATM    3  C   UNL     1      24.367  49.222  48.926  1.00  0.00     0.035 A 
HETATM    4  C   UNL     1      24.259  48.163  49.838  1.00  0.00     0.042 A 
HETATM    5  C   UNL     1      25.396  47.493  50.318  1.00  0.00    -0.021 A 
HETATM    6  C   UNL     1      26.656  47.902  49.865  1.00  0.00     0.012 A 
ENDROOT
BRANCH   3   7
HETATM    7  N   UNL     1      23.168  49.818  48.481  1.00  0.00    -0.327 N 
HETATM    8  C   UNL     1      22.351  50.681  49.174  1.00  0.00     0.227 C 
HETATM    9  O   UNL     1      22.470  51.004  50.349  1.00  0.00    -0.273 OA
HETATM   10  H   UNL     1      22.814  49.495  47.588  1.00  0.00     0.169 HD
BRANCH   8  11
HETATM   11  C   UNL     1      21.232  51.310  48.410  1.00  0.00     0.089 A 
HETATM   12  C   UNL     1      19.760  51.014  48.607  1.00  0.00     0.057 A 
HETATM   13  C   UNL     1      20.462  50.656  47.309  1.00  0.00     0.027 A 
BRANCH  12  14
HETATM   14  C   UNL     1      19.230  49.852  49.425  1.00  0.00     0.057 A 
HETATM   15  O   UNL     1      18.758  48.678  48.918  1.00  0.00    -0.327 OA
HETATM   16  C   UNL     1      18.356  47.922  49.972  1.00  0.00     0.142 A 
HETATM   17  C   UNL     1      18.550  48.600  51.152  1.00  0.00     0.027 A 
HETATM   18  C   UNL     1      19.111  49.850  50.799  1.00  0.00     0.035 A 
ENDBRANCH  12  14
ENDBRANCH   8  11
ENDBRANCH   3   7
BRANCH   5  19
HETATM   19  C   UNL     1      25.258  46.406  51.273  1.00  0.00     0.010 A 
HETATM   20  C   UNL     1      24.515  45.203  51.205  1.00  0.00     0.152 A 
HETATM   21  N   UNL     1      24.654  44.442  52.293  1.00  0.00    -0.187 NA
HETATM   22  N   UNL     1      25.488  45.154  53.068  1.00  0.00    -0.289 N 
HETATM   23  H   UNL     1      25.751  44.773  53.970  1.00  0.00     0.188 HD
HETATM   24  C   UNL     1      25.879  46.334  52.502  1.00  0.00     0.123 A 
ENDBRANCH   5  19
TORSDOF 4
ENDMDL
MODEL 7
REMARK VINA RESULT:      -7.7      3.019      7.239
REMARK  4 active torsions:
REMARK  status: ('A' for Active; 'I' for Inactive)
REMARK    1  A    between atoms: C_3  and  N_4 
REMARK       I    between atoms: N_4  and  C_5 
REMARK    2  A    between atoms: C_5  and  C_6 
REMARK    3  A    between atoms: C_7  and  C_8 
REMARK    4  A    between atoms: C_16  and  C_17 
ROOT
HETATM    1  C   UNL     1      23.327  43.316  49.742  1.00  0.00     0.003 A 
HETATM    2  C   UNL     1      24.156  42.867  50.772  1.00  0.00     0.029 A 
HETATM    3  C   UNL     1      24.992  43.759  51.445  1.00  0.00     0.035 A 
HETATM    4  C   UNL     1      24.989  45.110  51.065  1.00  0.00     0.042 A 
HETATM    5  C   UNL     1      24.160  45.576  50.031  1.00  0.00    -0.021 A 
HETATM    6  C   UNL     1      23.328  44.662  49.374  1.00  0.00     0.012 A 
ENDROOT
BRANCH   3   7
HETATM    7  N   UNL     1      25.874  43.379  52.477  1.00  0.00    -0.327 N 
HETATM    8  C   UNL     1      27.237  43.206  52.397  1.00  0.00     0.227 C 
HETATM    9  O   UNL     1      27.913  43.250  51.377  1.00  0.00    -0.273 OA
HETATM   10  H   UNL     1      25.444  43.103  53.353  1.00  0.00     0.169 HD
BRANCH   8  11
HETATM   11  C   UNL     1      27.964  42.974  53.680  1.00  0.00     0.089 A 
HETATM   12  C   UNL     1      28.094  43.975  54.809  1.00  0.00     0.057 A 
HETATM   13  C   UNL     1      29.312  43.523  54.022  1.00  0.00     0.027 A 
BRANCH  12  14
HETATM   14  C   UNL     1      27.725  45.441  54.689  1.00  0.00     0.057 A 
HETATM   15  O   UNL     1      26.589  45.925  54.110  1.00  0.00    -0.327 OA
HETATM   16  C   UNL     1      26.652  47.280  54.182  1.00  0.00     0.142 A 
HETATM   17  C   UNL     1      27.820  47.676  54.788  1.00  0.00     0.027 A 
HETATM   18  C   UNL     1      28.517  46.488  55.112  1.00  0.00     0.035 A 
ENDBRANCH  12  14
ENDBRANCH   8  11
ENDBRANCH   3   7
BRANCH   5  19
HETATM   19  C   UNL     1      24.168  46.983  49.666  1.00  0.00     0.010 A 
HETATM   20  C   UNL     1      25.215  47.936  49.674  1.00  0.00     0.152 A 
HETATM   21  N   UNL     1      24.825  49.141  49.250  1.00  0.00    -0.187 NA
HETATM   22  N   UNL     1      23.524  48.967  48.967  1.00  0.00    -0.289 N 
HETATM   23  H   UNL     1      22.997  49.760  48.618  1.00  0.00     0.188 HD
HETATM   24  C   UNL     1      23.085  47.695  49.196  1.00  0.00     0.123 A 
ENDBRANCH   5  19
TORSDOF 4
ENDMDL
MODEL 8
REMARK VINA RESULT:      -7.6      2.019      2.648
REMARK  4 active torsions:
REMARK  status: ('A' for Active; 'I' for Inactive)
REMARK    1  A    between atoms: C_3  and  N_4 
REMARK       I    between atoms: N_4  and  C_5 
REMARK    2  A    between atoms: C_5  and  C_6 
REMARK    3  A    between atoms: C_7  and  C_8 
REMARK    4  A    between atoms: C_16  and  C_17 
ROOT
HETATM    1  C   UNL     1      27.408  46.132  54.687  1.00  0.00     0.003 A 
HETATM    2  C   UNL     1      27.419  45.254  53.601  1.00  0.00     0.029 A 
HETATM    3  C   UNL     1      28.366  44.232  53.531  1.00  0.00     0.035 A 
HETATM    4  C   UNL     1      29.307  44.106  54.564  1.00  0.00     0.042 A 
HETATM    5  C   UNL     1      29.307  44.981  55.662  1.00  0.00    -0.021 A 
HETATM    6  C   UNL     1      28.344  45.996  55.711  1.00  0.00     0.012 A 
ENDROOT
BRANCH   3   7
HETATM    7  N   UNL     1      28.459  43.322  52.457  1.00  0.00    -0.327 N 
HETATM    8  C   UNL     1      28.091  41.996  52.444  1.00  0.00     0.227 C 
HETATM    9  O   UNL     1      27.712  41.341  53.406  1.00  0.00    -0.273 OA
HETATM   10  H   UNL     1      28.946  43.654  51.632  1.00  0.00     0.169 HD
BRANCH   8  11
HETATM   11  C   UNL     1      28.126  41.299  51.124  1.00  0.00     0.089 A 
HETATM   12  C   UNL     1      27.381  41.736  49.880  1.00  0.00     0.057 A 
HETATM   13  C   UNL     1      27.041  40.430  50.576  1.00  0.00     0.027 A 
BRANCH  12  14
HETATM   14  C   UNL     1      26.294  42.794  49.870  1.00  0.00     0.057 A 
HETATM   15  O   UNL     1      24.976  42.576  50.144  1.00  0.00    -0.327 OA
HETATM   16  C   UNL     1      24.337  43.766  50.000  1.00  0.00     0.142 A 
HETATM   17  C   UNL     1      25.224  44.746  49.623  1.00  0.00     0.027 A 
HETATM   18  C   UNL     1      26.489  44.117  49.534  1.00  0.00     0.035 A 
ENDBRANCH  12  14
ENDBRANCH   8  11
ENDBRANCH   3   7
BRANCH   5  19
HETATM   19  C   UNL     1      30.286  44.821  56.726  1.00  0.00     0.010 A 
HETATM   20  C   UNL     1      31.324  43.874  56.893  1.00  0.00     0.152 A 
HETATM   21  N   UNL     1      32.029  44.066  58.011  1.00  0.00    -0.187 NA
HETATM   22  N   UNL     1      31.444  45.139  58.568  1.00  0.00    -0.289 N 
HETATM   23  H   UNL     1      31.812  45.485  59.447  1.00  0.00     0.188 HD
HETATM   24  C   UNL     1      30.400  45.629  57.837  1.00  0.00     0.123 A 
ENDBRANCH   5  19
TORSDOF 4
ENDMDL
MODEL 9
REMARK VINA RESULT:      -7.6      4.513      9.314
REMARK  4 active torsions:
REMARK  status: ('A' for Active; 'I' for Inactive)
REMARK    1  A    between atoms: C_3  and  N_4 
REMARK       I    between atoms: N_4  and  C_5 
REMARK    2  A    between atoms: C_5  and  C_6 
REMARK    3  A    between atoms: C_7  and  C_8 
REMARK    4  A    between atoms: C_16  and  C_17 
ROOT
HETATM    1  C   UNL     1      24.378  50.400  48.041  1.00  0.00     0.003 A 
HETATM    2  C   UNL     1      24.689  49.175  48.632  1.00  0.00     0.029 A 
HETATM    3  C   UNL     1      23.748  48.512  49.421  1.00  0.00     0.035 A 
HETATM    4  C   UNL     1      22.489  49.101  49.614  1.00  0.00     0.042 A 
HETATM    5  C   UNL     1      22.162  50.334  49.025  1.00  0.00    -0.021 A 
HETATM    6  C   UNL     1      23.122  50.976  48.235  1.00  0.00     0.012 A 
ENDROOT
BRANCH   3   7
HETATM    7  N   UNL     1      23.994  47.286  50.071  1.00  0.00    -0.327 N 
HETATM    8  C   UNL     1      25.024  46.982  50.931  1.00  0.00     0.227 C 
HETATM    9  O   UNL     1      25.977  47.702  51.202  1.00  0.00    -0.273 OA
HETATM   10  H   UNL     1      23.404  46.508  49.796  1.00  0.00     0.169 HD
BRANCH   8  11
HETATM   11  C   UNL     1      24.957  45.661  51.625  1.00  0.00     0.089 A 
HETATM   12  C   UNL     1      25.326  45.410  53.073  1.00  0.00     0.057 A 
HETATM   13  C   UNL     1      26.130  44.791  51.943  1.00  0.00     0.027 A 
BRANCH  12  14
HETATM   14  C   UNL     1      26.057  46.410  53.948  1.00  0.00     0.057 A 
HETATM   15  O   UNL     1      25.547  47.594  54.392  1.00  0.00    -0.327 OA
HETATM   16  C   UNL     1      26.522  48.201  55.116  1.00  0.00     0.142 A 
HETATM   17  C   UNL     1      27.660  47.431  55.132  1.00  0.00     0.027 A 
HETATM   18  C   UNL     1      27.362  46.274  54.373  1.00  0.00     0.035 A 
ENDBRANCH  12  14
ENDBRANCH   8  11
ENDBRANCH   3   7
BRANCH   5  19
HETATM   19  C   UNL     1      20.845  50.917  49.231  1.00  0.00     0.010 A 
HETATM   20  C   UNL     1      20.138  51.891  48.487  1.00  0.00     0.152 A 
HETATM   21  N   UNL     1      18.933  52.160  48.995  1.00  0.00    -0.187 NA
HETATM   22  N   UNL     1      18.861  51.359  50.070  1.00  0.00    -0.289 N 
HETATM   23  H   UNL     1      18.018  51.384  50.633  1.00  0.00     0.188 HD
HETATM   24  C   UNL     1      19.977  50.595  50.253  1.00  0.00     0.123 A 
ENDBRANCH   5  19
TORSDOF 4
ENDMDL
MODEL 10
REMARK VINA RESULT:      -7.5      3.549      8.437
REMARK  4 active torsions:
REMARK  status: ('A' for Active; 'I' for Inactive)
REMARK    1  A    between atoms: C_3  and  N_4 
REMARK       I    between atoms: N_4  and  C_5 
REMARK    2  A    between atoms: C_5  and  C_6 
REMARK    3  A    between atoms: C_7  and  C_8 
REMARK    4  A    between atoms: C_16  and  C_17 
ROOT
HETATM    1  C   UNL     1      27.017  49.327  48.695  1.00  0.00     0.003 A 
HETATM    2  C   UNL     1      27.078  48.167  49.469  1.00  0.00     0.029 A 
HETATM    3  C   UNL     1      25.908  47.564  49.932  1.00  0.00     0.035 A 
HETATM    4  C   UNL     1      24.673  48.145  49.611  1.00  0.00     0.042 A 
HETATM    5  C   UNL     1      24.595  49.312  48.832  1.00  0.00    -0.021 A 
HETATM    6  C   UNL     1      25.783  49.895  48.377  1.00  0.00     0.012 A 
ENDROOT
BRANCH   3   7
HETATM    7  N   UNL     1      25.889  46.407  50.738  1.00  0.00    -0.327 N 
HETATM    8  C   UNL     1      25.514  46.308  52.058  1.00  0.00     0.227 C 
HETATM    9  O   UNL     1      25.229  47.240  52.801  1.00  0.00    -0.273 OA
HETATM   10  H   UNL     1      26.293  45.571  50.329  1.00  0.00     0.169 HD
BRANCH   8  11
HETATM   11  C   UNL     1      25.414  44.933  52.631  1.00  0.00     0.089 A 
HETATM   12  C   UNL     1      26.127  44.445  53.875  1.00  0.00     0.057 A 
HETATM   13  C   UNL     1      26.456  43.868  52.509  1.00  0.00     0.027 A 
BRANCH  12  14
HETATM   14  C   UNL     1      27.242  45.207  54.567  1.00  0.00     0.057 A 
HETATM   15  O   UNL     1      27.141  46.468  55.074  1.00  0.00    -0.327 OA
HETATM   16  C   UNL     1      28.358  46.793  55.580  1.00  0.00     0.142 A 
HETATM   17  C   UNL     1      29.247  45.761  55.393  1.00  0.00     0.027 A 
HETATM   18  C   UNL     1      28.527  44.737  54.734  1.00  0.00     0.035 A 
ENDBRANCH  12  14
ENDBRANCH   8  11
ENDBRANCH   3   7
BRANCH   5  19
HETATM   19  C   UNL     1      23.301  49.887  48.503  1.00  0.00     0.010 A 
HETATM   20  C   UNL     1      22.230  49.377  47.731  1.00  0.00     0.152 A 
HETATM   21  N   UNL     1      21.188  50.210  47.670  1.00  0.00    -0.187 NA
HETATM   22  N   UNL     1      21.587  51.262  48.403  1.00  0.00    -0.289 N 
HETATM   23  H   UNL     1      20.951  52.045  48.508  1.00  0.00     0.188 HD
HETATM   24  C   UNL     1      22.840  51.117  48.924  1.00  0.00     0.123 A 
ENDBRANCH   5  19
TORSDOF 4
ENDMDL
