MODEL 1
REMARK VINA RESULT:      -7.5      0.000      0.000
REMARK  5 active torsions:
REMARK  status: ('A' for Active; 'I' for Inactive)
REMARK    1  A    between atoms: C_8  and  C_9 
REMARK    2  A    between atoms: C_11  and  O_12 
REMARK    3  A    between atoms: C_14  and  O_15 
REMARK    4  A    between atoms: C_18  and  C_19 
REMARK    5  A    between atoms: C_22  and  O_23 
ROOT
HETATM    1  C   UNL     1      28.012  52.891  41.339  1.00  0.00     0.070 C 
HETATM    2  C   UNL     1      29.402  52.385  41.271  1.00  0.00     0.033 A 
HETATM    3  N   UNL     1      30.474  53.237  41.325  1.00  0.00    -0.282 N 
HETATM    4  H   UNL     1      30.465  54.248  41.391  1.00  0.00     0.189 HD
HETATM    5  N   UNL     1      31.663  52.617  41.329  1.00  0.00    -0.179 NA
HETATM    6  C   UNL     1      31.340  51.323  41.258  1.00  0.00     0.066 A 
HETATM    7  C   UNL     1      29.940  51.114  41.159  1.00  0.00     0.001 A 
HETATM    8  C   UNL     1      29.344  49.739  41.108  1.00  0.00     0.070 C 
HETATM    9  C   UNL     1      30.391  48.635  40.780  1.00  0.00     0.102 C 
HETATM   10  C   UNL     1      31.729  48.847  41.545  1.00  0.00     0.071 C 
HETATM   11  C   UNL     1      32.761  47.751  41.233  1.00  0.00     0.047 C 
HETATM   12  C   UNL     1      32.366  50.243  41.299  1.00  0.00     0.100 C 
ENDROOT
BRANCH   8  13
HETATM   13  C   UNL     1      28.128  49.714  40.192  1.00  0.00    -0.046 A 
HETATM   14  C   UNL     1      26.950  48.999  40.486  1.00  0.00     0.047 A 
HETATM   15  C   UNL     1      25.859  49.039  39.616  1.00  0.00     0.101 A 
HETATM   16  C   UNL     1      25.906  49.861  38.490  1.00  0.00     0.099 A 
HETATM   17  C   UNL     1      27.044  50.590  38.185  1.00  0.00     0.040 A 
HETATM   18  C   UNL     1      28.154  50.508  39.028  1.00  0.00     0.011 A 
BRANCH  15  19
HETATM   19  O   UNL     1      24.695  48.344  39.819  1.00  0.00    -0.353 OA
HETATM   20  C   UNL     1      24.830  47.324  40.810  1.00  0.00     0.210 C 
ENDBRANCH  15  19
BRANCH  16  21
HETATM   21  O   UNL     1      24.826  49.953  37.659  1.00  0.00    -0.358 OA
HETATM   22  H   UNL     1      24.397  49.077  37.702  1.00  0.00     0.218 HD
ENDBRANCH  16  21
ENDBRANCH   8  13
BRANCH   9  23
HETATM   23  C   UNL     1      30.635  48.472  39.280  1.00  0.00     0.131 C 
HETATM   24  C   UNL     1      30.145  47.193  38.646  1.00  0.00     0.091 C 
HETATM   25  O   UNL     1      31.238  49.310  38.612  1.00  0.00    -0.298 OA
ENDBRANCH   9  23
BRANCH  10  26
HETATM   26  O   UNL     1      31.436  48.729  42.956  1.00  0.00    -0.389 OA
HETATM   27  H   UNL     1      31.954  49.391  43.447  1.00  0.00     0.210 HD
ENDBRANCH  10  26
TORSDOF 5
ENDMDL
MODEL 2
REMARK VINA RESULT:      -7.5      2.922      6.780
REMARK  5 active torsions:
REMARK  status: ('A' for Active; 'I' for Inactive)
REMARK    1  A    between atoms: C_8  and  C_9 
REMARK    2  A    between atoms: C_11  and  O_12 
REMARK    3  A    between atoms: C_14  and  O_15 
REMARK    4  A    between atoms: C_18  and  C_19 
REMARK    5  A    between atoms: C_22  and  O_23 
ROOT
HETATM    1  C   UNL     1      32.762  47.499  41.483  1.00  0.00     0.070 C 
HETATM    2  C   UNL     1      31.564  48.000  40.771  1.00  0.00     0.033 A 
HETATM    3  N   UNL     1      31.068  47.353  39.670  1.00  0.00    -0.282 N 
HETATM    4  H   UNL     1      31.434  46.525  39.214  1.00  0.00     0.189 HD
HETATM    5  N   UNL     1      29.937  47.888  39.188  1.00  0.00    -0.179 NA
HETATM    6  C   UNL     1      29.711  48.923  40.000  1.00  0.00     0.066 A 
HETATM    7  C   UNL     1      30.728  49.083  40.977  1.00  0.00     0.001 A 
HETATM    8  C   UNL     1      30.662  50.157  42.022  1.00  0.00     0.070 C 
HETATM    9  C   UNL     1      29.627  51.270  41.687  1.00  0.00     0.102 C 
HETATM   10  C   UNL     1      28.299  50.687  41.124  1.00  0.00     0.071 C 
HETATM   11  C   UNL     1      27.270  51.783  40.803  1.00  0.00     0.047 C 
HETATM   12  C   UNL     1      28.501  49.786  39.874  1.00  0.00     0.100 C 
ENDROOT
BRANCH   8  13
HETATM   13  C   UNL     1      32.054  50.695  42.328  1.00  0.00    -0.046 A 
HETATM   14  C   UNL     1      33.058  50.849  41.351  1.00  0.00     0.047 A 
HETATM   15  C   UNL     1      34.305  51.374  41.692  1.00  0.00     0.101 A 
HETATM   16  C   UNL     1      34.530  51.828  42.991  1.00  0.00     0.099 A 
HETATM   17  C   UNL     1      33.556  51.706  43.969  1.00  0.00     0.040 A 
HETATM   18  C   UNL     1      32.326  51.132  43.640  1.00  0.00     0.011 A 
BRANCH  15  19
HETATM   19  O   UNL     1      35.339  51.522  40.804  1.00  0.00    -0.353 OA
HETATM   20  C   UNL     1      34.888  51.737  39.466  1.00  0.00     0.210 C 
ENDBRANCH  15  19
BRANCH  16  21
HETATM   21  O   UNL     1      35.727  52.394  43.326  1.00  0.00    -0.358 OA
HETATM   22  H   UNL     1      35.917  52.071  44.228  1.00  0.00     0.218 HD
ENDBRANCH  16  21
ENDBRANCH   8  13
BRANCH   9  23
HETATM   23  C   UNL     1      30.190  52.348  40.762  1.00  0.00     0.131 C 
HETATM   24  C   UNL     1      30.542  53.672  41.396  1.00  0.00     0.091 C 
HETATM   25  O   UNL     1      30.319  52.181  39.551  1.00  0.00    -0.298 OA
ENDBRANCH   9  23
BRANCH  10  26
HETATM   26  O   UNL     1      27.711  49.880  42.170  1.00  0.00    -0.389 OA
HETATM   27  H   UNL     1      28.237  49.069  42.282  1.00  0.00     0.210 HD
ENDBRANCH  10  26
TORSDOF 5
ENDMDL
MODEL 3
REMARK VINA RESULT:      -7.4     12.207     13.406
REMARK  5 active torsions:
REMARK  status: ('A' for Active; 'I' for Inactive)
REMARK    1  A    between atoms: C_8  and  C_9 
REMARK    2  A    between atoms: C_11  and  O_12 
REMARK    3  A    between atoms: C_14  and  O_15 
REMARK    4  A    between atoms: C_18  and  C_19 
REMARK    5  A    between atoms: C_22  and  O_23 
ROOT
HETATM    1  C   UNL     1      26.120  47.846  54.398  1.00  0.00     0.070 C 
HETATM    2  C   UNL     1      27.097  46.737  54.492  1.00  0.00     0.033 A 
HETATM    3  N   UNL     1      28.247  46.862  55.226  1.00  0.00    -0.282 N 
HETATM    4  H   UNL     1      28.573  47.669  55.745  1.00  0.00     0.189 HD
HETATM    5  N   UNL     1      28.986  45.744  55.273  1.00  0.00    -0.179 NA
HETATM    6  C   UNL     1      28.292  44.880  54.530  1.00  0.00     0.066 A 
HETATM    7  C   UNL     1      27.128  45.459  53.962  1.00  0.00     0.001 A 
HETATM    8  C   UNL     1      26.174  44.663  53.122  1.00  0.00     0.070 C 
HETATM    9  C   UNL     1      26.778  43.316  52.627  1.00  0.00     0.102 C 
HETATM   10  C   UNL     1      27.586  42.589  53.740  1.00  0.00     0.071 C 
HETATM   11  C   UNL     1      28.173  41.253  53.259  1.00  0.00     0.047 C 
HETATM   12  C   UNL     1      28.718  43.461  54.351  1.00  0.00     0.100 C 
ENDROOT
BRANCH   8  13
HETATM   13  C   UNL     1      25.602  45.520  52.000  1.00  0.00    -0.046 A 
HETATM   14  C   UNL     1      26.230  46.684  51.517  1.00  0.00     0.047 A 
HETATM   15  C   UNL     1      25.667  47.411  50.466  1.00  0.00     0.101 A 
HETATM   16  C   UNL     1      24.519  46.933  49.836  1.00  0.00     0.099 A 
HETATM   17  C   UNL     1      23.889  45.780  50.278  1.00  0.00     0.040 A 
HETATM   18  C   UNL     1      24.424  45.082  51.362  1.00  0.00     0.011 A 
BRANCH  15  19
HETATM   19  O   UNL     1      26.202  48.570  49.966  1.00  0.00    -0.353 OA
HETATM   20  C   UNL     1      27.376  48.340  49.185  1.00  0.00     0.210 C 
ENDBRANCH  15  19
BRANCH  16  21
HETATM   21  O   UNL     1      23.986  47.603  48.772  1.00  0.00    -0.358 OA
HETATM   22  H   UNL     1      23.150  47.985  49.105  1.00  0.00     0.218 HD
ENDBRANCH  16  21
ENDBRANCH   8  13
BRANCH   9  23
HETATM   23  C   UNL     1      27.610  43.468  51.354  1.00  0.00     0.131 C 
HETATM   24  C   UNL     1      27.069  42.815  50.106  1.00  0.00     0.091 C 
HETATM   25  O   UNL     1      28.692  44.054  51.335  1.00  0.00    -0.298 OA
ENDBRANCH   9  23
BRANCH  10  26
HETATM   26  O   UNL     1      26.654  42.259  54.796  1.00  0.00    -0.389 OA
HETATM   27  H   UNL     1      25.795  42.027  54.403  1.00  0.00     0.210 HD
ENDBRANCH  10  26
TORSDOF 5
ENDMDL
MODEL 4
REMARK VINA RESULT:      -7.3      2.729      5.397
REMARK  5 active torsions:
REMARK  status: ('A' for Active; 'I' for Inactive)
REMARK    1  A    between atoms: C_8  and  C_9 
REMARK    2  A    between atoms: C_11  and  O_12 
REMARK    3  A    between atoms: C_14  and  O_15 
REMARK    4  A    between atoms: C_18  and  C_19 
REMARK    5  A    between atoms: C_22  and  O_23 
ROOT
HETATM    1  C   UNL     1      28.376  52.436  38.322  1.00  0.00     0.070 C 
HETATM    2  C   UNL     1      27.964  51.098  38.805  1.00  0.00     0.033 A 
HETATM    3  N   UNL     1      26.682  50.857  39.225  1.00  0.00    -0.282 N 
HETATM    4  H   UNL     1      25.909  51.510  39.280  1.00  0.00     0.189 HD
HETATM    5  N   UNL     1      26.451  49.579  39.558  1.00  0.00    -0.179 NA
HETATM    6  C   UNL     1      27.630  48.986  39.360  1.00  0.00     0.066 A 
HETATM    7  C   UNL     1      28.636  49.897  38.946  1.00  0.00     0.001 A 
HETATM    8  C   UNL     1      30.031  49.447  38.625  1.00  0.00     0.070 C 
HETATM    9  C   UNL     1      30.348  48.021  39.161  1.00  0.00     0.102 C 
HETATM   10  C   UNL     1      29.168  47.031  38.935  1.00  0.00     0.071 C 
HETATM   11  C   UNL     1      29.483  45.618  39.452  1.00  0.00     0.047 C 
HETATM   12  C   UNL     1      27.827  47.520  39.549  1.00  0.00     0.100 C 
ENDROOT
BRANCH   8  13
HETATM   13  C   UNL     1      31.046  50.497  39.055  1.00  0.00    -0.046 A 
HETATM   14  C   UNL     1      31.030  51.119  40.319  1.00  0.00     0.047 A 
HETATM   15  C   UNL     1      32.007  52.055  40.663  1.00  0.00     0.101 A 
HETATM   16  C   UNL     1      33.055  52.312  39.779  1.00  0.00     0.099 A 
HETATM   17  C   UNL     1      33.107  51.702  38.536  1.00  0.00     0.040 A 
HETATM   18  C   UNL     1      32.101  50.805  38.173  1.00  0.00     0.011 A 
BRANCH  15  19
HETATM   19  O   UNL     1      32.037  52.724  41.859  1.00  0.00    -0.353 OA
HETATM   20  C   UNL     1      31.900  51.850  42.981  1.00  0.00     0.210 C 
ENDBRANCH  15  19
BRANCH  16  21
HETATM   21  O   UNL     1      34.048  53.185  40.123  1.00  0.00    -0.358 OA
HETATM   22  H   UNL     1      33.586  53.998  40.403  1.00  0.00     0.218 HD
ENDBRANCH  16  21
ENDBRANCH   8  13
BRANCH   9  23
HETATM   23  C   UNL     1      30.794  48.019  40.623  1.00  0.00     0.131 C 
HETATM   24  C   UNL     1      32.243  47.691  40.891  1.00  0.00     0.091 C 
HETATM   25  O   UNL     1      30.018  48.230  41.553  1.00  0.00    -0.298 OA
ENDBRANCH   9  23
BRANCH  10  26
HETATM   26  O   UNL     1      28.988  46.903  37.506  1.00  0.00    -0.389 OA
HETATM   27  H   UNL     1      28.125  46.492  37.328  1.00  0.00     0.210 HD
ENDBRANCH  10  26
TORSDOF 5
ENDMDL
MODEL 5
REMARK VINA RESULT:      -7.3      2.398      5.800
REMARK  5 active torsions:
REMARK  status: ('A' for Active; 'I' for Inactive)
REMARK    1  A    between atoms: C_8  and  C_9 
REMARK    2  A    between atoms: C_11  and  O_12 
REMARK    3  A    between atoms: C_14  and  O_15 
REMARK    4  A    between atoms: C_18  and  C_19 
REMARK    5  A    between atoms: C_22  and  O_23 
ROOT
HETATM    1  C   UNL     1      30.274  53.855  40.576  1.00  0.00     0.070 C 
HETATM    2  C   UNL     1      29.480  52.642  40.879  1.00  0.00     0.033 A 
HETATM    3  N   UNL     1      28.286  52.721  41.547  1.00  0.00    -0.282 N 
HETATM    4  H   UNL     1      27.830  53.548  41.915  1.00  0.00     0.189 HD
HETATM    5  N   UNL     1      27.655  51.545  41.674  1.00  0.00    -0.179 NA
HETATM    6  C   UNL     1      28.482  50.681  41.082  1.00  0.00     0.066 A 
HETATM    7  C   UNL     1      29.672  51.297  40.615  1.00  0.00     0.001 A 
HETATM    8  C   UNL     1      30.729  50.527  39.881  1.00  0.00     0.070 C 
HETATM    9  C   UNL     1      30.578  48.986  40.037  1.00  0.00     0.102 C 
HETATM   10  C   UNL     1      29.097  48.525  39.922  1.00  0.00     0.071 C 
HETATM   11  C   UNL     1      28.945  47.002  40.064  1.00  0.00     0.047 C 
HETATM   12  C   UNL     1      28.150  49.235  40.930  1.00  0.00     0.100 C 
ENDROOT
BRANCH   8  13
HETATM   13  C   UNL     1      32.117  51.041  40.242  1.00  0.00    -0.046 A 
HETATM   14  C   UNL     1      32.555  51.225  41.568  1.00  0.00     0.047 A 
HETATM   15  C   UNL     1      33.850  51.673  41.833  1.00  0.00     0.101 A 
HETATM   16  C   UNL     1      34.743  51.859  40.778  1.00  0.00     0.099 A 
HETATM   17  C   UNL     1      34.346  51.668  39.464  1.00  0.00     0.040 A 
HETATM   18  C   UNL     1      33.035  51.270  39.197  1.00  0.00     0.011 A 
BRANCH  15  19
HETATM   19  O   UNL     1      34.334  51.907  43.094  1.00  0.00    -0.353 OA
HETATM   20  C   UNL     1      33.318  51.828  44.095  1.00  0.00     0.210 C 
ENDBRANCH  15  19
BRANCH  16  21
HETATM   21  O   UNL     1      36.030  52.245  41.024  1.00  0.00    -0.358 OA
HETATM   22  H   UNL     1      35.955  53.118  41.455  1.00  0.00     0.218 HD
ENDBRANCH  16  21
ENDBRANCH   8  13
BRANCH   9  23
HETATM   23  C   UNL     1      31.223  48.451  41.315  1.00  0.00     0.131 C 
HETATM   24  C   UNL     1      32.503  47.666  41.155  1.00  0.00     0.091 C 
HETATM   25  O   UNL     1      30.718  48.604  42.426  1.00  0.00    -0.298 OA
ENDBRANCH   9  23
BRANCH  10  26
HETATM   26  O   UNL     1      28.653  48.848  38.585  1.00  0.00    -0.389 OA
HETATM   27  H   UNL     1      29.265  48.452  37.941  1.00  0.00     0.210 HD
ENDBRANCH  10  26
TORSDOF 5
ENDMDL
MODEL 6
REMARK VINA RESULT:      -6.9      2.363      4.071
REMARK  5 active torsions:
REMARK  status: ('A' for Active; 'I' for Inactive)
REMARK    1  A    between atoms: C_8  and  C_9 
REMARK    2  A    between atoms: C_11  and  O_12 
REMARK    3  A    between atoms: C_14  and  O_15 
REMARK    4  A    between atoms: C_18  and  C_19 
REMARK    5  A    between atoms: C_22  and  O_23 
ROOT
HETATM    1  C   UNL     1      30.540  47.298  40.141  1.00  0.00     0.070 C 
HETATM    2  C   UNL     1      31.613  48.239  40.537  1.00  0.00     0.033 A 
HETATM    3  N   UNL     1      32.609  47.861  41.398  1.00  0.00    -0.282 N 
HETATM    4  H   UNL     1      32.728  46.969  41.864  1.00  0.00     0.189 HD
HETATM    5  N   UNL     1      33.544  48.802  41.595  1.00  0.00    -0.179 NA
HETATM    6  C   UNL     1      33.122  49.823  40.845  1.00  0.00     0.066 A 
HETATM    7  C   UNL     1      31.885  49.554  40.203  1.00  0.00     0.001 A 
HETATM    8  C   UNL     1      31.240  50.543  39.278  1.00  0.00     0.070 C 
HETATM    9  C   UNL     1      31.832  51.976  39.411  1.00  0.00     0.102 C 
HETATM   10  C   UNL     1      33.383  51.963  39.534  1.00  0.00     0.071 C 
HETATM   11  C   UNL     1      33.972  53.378  39.653  1.00  0.00     0.047 C 
HETATM   12  C   UNL     1      33.901  51.086  40.708  1.00  0.00     0.100 C 
ENDROOT
BRANCH   8  13
HETATM   13  C   UNL     1      29.724  50.497  39.415  1.00  0.00    -0.046 A 
HETATM   14  C   UNL     1      28.849  50.377  38.317  1.00  0.00     0.047 A 
HETATM   15  C   UNL     1      27.469  50.312  38.513  1.00  0.00     0.101 A 
HETATM   16  C   UNL     1      26.958  50.282  39.810  1.00  0.00     0.099 A 
HETATM   17  C   UNL     1      27.795  50.380  40.910  1.00  0.00     0.040 A 
HETATM   18  C   UNL     1      29.172  50.497  40.712  1.00  0.00     0.011 A 
BRANCH  15  19
HETATM   19  O   UNL     1      26.556  50.229  37.493  1.00  0.00    -0.353 OA
HETATM   20  C   UNL     1      26.296  48.880  37.098  1.00  0.00     0.210 C 
ENDBRANCH  15  19
BRANCH  16  21
HETATM   21  O   UNL     1      25.613  50.164  40.019  1.00  0.00    -0.358 OA
HETATM   22  H   UNL     1      25.330  51.038  40.351  1.00  0.00     0.218 HD
ENDBRANCH  16  21
ENDBRANCH   8  13
BRANCH   9  23
HETATM   23  C   UNL     1      31.197  52.780  40.545  1.00  0.00     0.131 C 
HETATM   24  C   UNL     1      30.133  53.778  40.158  1.00  0.00     0.091 C 
HETATM   25  O   UNL     1      31.551  52.666  41.717  1.00  0.00    -0.298 OA
ENDBRANCH   9  23
BRANCH  10  26
HETATM   26  O   UNL     1      33.904  51.416  38.301  1.00  0.00    -0.389 OA
HETATM   27  H   UNL     1      34.780  51.801  38.125  1.00  0.00     0.210 HD
ENDBRANCH  10  26
TORSDOF 5
ENDMDL
MODEL 7
REMARK VINA RESULT:      -6.8     25.775     27.497
REMARK  5 active torsions:
REMARK  status: ('A' for Active; 'I' for Inactive)
REMARK    1  A    between atoms: C_8  and  C_9 
REMARK    2  A    between atoms: C_11  and  O_12 
REMARK    3  A    between atoms: C_14  and  O_15 
REMARK    4  A    between atoms: C_18  and  C_19 
REMARK    5  A    between atoms: C_22  and  O_23 
ROOT
HETATM    1  C   UNL     1      42.205  44.330  63.659  1.00  0.00     0.070 C 
HETATM    2  C   UNL     1      41.097  45.018  64.359  1.00  0.00     0.033 A 
HETATM    3  N   UNL     1      41.332  46.078  65.195  1.00  0.00    -0.282 N 
HETATM    4  H   UNL     1      42.223  46.489  65.448  1.00  0.00     0.189 HD
HETATM    5  N   UNL     1      40.219  46.637  65.691  1.00  0.00    -0.179 NA
HETATM    6  C   UNL     1      39.238  45.899  65.165  1.00  0.00     0.066 A 
HETATM    7  C   UNL     1      39.725  44.831  64.369  1.00  0.00     0.001 A 
HETATM    8  C   UNL     1      38.803  43.895  63.646  1.00  0.00     0.070 C 
HETATM    9  C   UNL     1      37.337  43.965  64.164  1.00  0.00     0.102 C 
HETATM   10  C   UNL     1      36.873  45.428  64.421  1.00  0.00     0.071 C 
HETATM   11  C   UNL     1      35.422  45.502  64.921  1.00  0.00     0.047 C 
HETATM   12  C   UNL     1      37.798  46.206  65.399  1.00  0.00     0.100 C 
ENDROOT
BRANCH   8  13
HETATM   13  C   UNL     1      39.374  42.483  63.631  1.00  0.00    -0.046 A 
HETATM   14  C   UNL     1      40.236  41.984  64.627  1.00  0.00     0.047 A 
HETATM   15  C   UNL     1      40.703  40.670  64.569  1.00  0.00     0.101 A 
HETATM   16  C   UNL     1      40.246  39.820  63.562  1.00  0.00     0.099 A 
HETATM   17  C   UNL     1      39.384  40.278  62.579  1.00  0.00     0.040 A 
HETATM   18  C   UNL     1      38.958  41.607  62.608  1.00  0.00     0.011 A 
BRANCH  15  19
HETATM   19  O   UNL     1      41.568  40.126  65.483  1.00  0.00    -0.353 OA
HETATM   20  C   UNL     1      40.965  39.934  66.764  1.00  0.00     0.210 C 
ENDBRANCH  15  19
BRANCH  16  21
HETATM   21  O   UNL     1      40.651  38.517  63.523  1.00  0.00    -0.358 OA
HETATM   22  H   UNL     1      40.630  38.216  64.452  1.00  0.00     0.218 HD
ENDBRANCH  16  21
ENDBRANCH   8  13
BRANCH   9  23
HETATM   23  C   UNL     1      37.096  43.089  65.392  1.00  0.00     0.131 C 
HETATM   24  C   UNL     1      36.180  41.902  65.213  1.00  0.00     0.091 C 
HETATM   25  O   UNL     1      37.581  43.343  66.493  1.00  0.00    -0.298 OA
ENDBRANCH   9  23
BRANCH  10  26
HETATM   26  O   UNL     1      36.893  46.111  63.146  1.00  0.00    -0.389 OA
HETATM   27  H   UNL     1      37.812  46.186  62.838  1.00  0.00     0.210 HD
ENDBRANCH  10  26
TORSDOF 5
ENDMDL
MODEL 8
REMARK VINA RESULT:      -6.7     12.509     14.672
REMARK  5 active torsions:
REMARK  status: ('A' for Active; 'I' for Inactive)
REMARK    1  A    between atoms: C_8  and  C_9 
REMARK    2  A    between atoms: C_11  and  O_12 
REMARK    3  A    between atoms: C_14  and  O_15 
REMARK    4  A    between atoms: C_18  and  C_19 
REMARK    5  A    between atoms: C_22  and  O_23 
ROOT
HETATM    1  C   UNL     1      28.419  40.831  53.341  1.00  0.00     0.070 C 
HETATM    2  C   UNL     1      28.051  41.140  51.940  1.00  0.00     0.033 A 
HETATM    3  N   UNL     1      28.604  40.454  50.891  1.00  0.00    -0.282 N 
HETATM    4  H   UNL     1      29.300  39.718  50.923  1.00  0.00     0.189 HD
HETATM    5  N   UNL     1      28.111  40.801  49.693  1.00  0.00    -0.179 NA
HETATM    6  C   UNL     1      27.222  41.753  49.986  1.00  0.00     0.066 A 
HETATM    7  C   UNL     1      27.181  42.055  51.372  1.00  0.00     0.001 A 
HETATM    8  C   UNL     1      26.228  43.065  51.937  1.00  0.00     0.070 C 
HETATM    9  C   UNL     1      25.611  43.992  50.850  1.00  0.00     0.102 C 
HETATM   10  C   UNL     1      25.202  43.208  49.570  1.00  0.00     0.071 C 
HETATM   11  C   UNL     1      24.581  44.118  48.499  1.00  0.00     0.047 C 
HETATM   12  C   UNL     1      26.371  42.397  48.944  1.00  0.00     0.100 C 
ENDROOT
BRANCH   8  13
HETATM   13  C   UNL     1      26.871  43.826  53.089  1.00  0.00    -0.046 A 
HETATM   14  C   UNL     1      28.259  43.834  53.333  1.00  0.00     0.047 A 
HETATM   15  C   UNL     1      28.789  44.575  54.391  1.00  0.00     0.101 A 
HETATM   16  C   UNL     1      27.947  45.379  55.159  1.00  0.00     0.099 A 
HETATM   17  C   UNL     1      26.580  45.405  54.930  1.00  0.00     0.040 A 
HETATM   18  C   UNL     1      26.044  44.623  53.905  1.00  0.00     0.011 A 
BRANCH  15  19
HETATM   19  O   UNL     1      30.122  44.605  54.710  1.00  0.00    -0.353 OA
HETATM   20  C   UNL     1      30.574  43.381  55.292  1.00  0.00     0.210 C 
ENDBRANCH  15  19
BRANCH  16  21
HETATM   21  O   UNL     1      28.457  46.151  56.163  1.00  0.00    -0.358 OA
HETATM   22  H   UNL     1      28.443  45.580  56.956  1.00  0.00     0.218 HD
ENDBRANCH  16  21
ENDBRANCH   8  13
BRANCH   9  23
HETATM   23  C   UNL     1      26.505  45.182  50.504  1.00  0.00     0.131 C 
HETATM   24  C   UNL     1      25.991  46.551  50.878  1.00  0.00     0.091 C 
HETATM   25  O   UNL     1      27.575  45.057  49.910  1.00  0.00    -0.298 OA
ENDBRANCH   9  23
BRANCH  10  26
HETATM   26  O   UNL     1      24.165  42.276  49.954  1.00  0.00    -0.389 OA
HETATM   27  H   UNL     1      24.099  41.576  49.282  1.00  0.00     0.210 HD
ENDBRANCH  10  26
TORSDOF 5
ENDMDL
MODEL 9
REMARK VINA RESULT:      -6.7      3.383      5.022
REMARK  5 active torsions:
REMARK  status: ('A' for Active; 'I' for Inactive)
REMARK    1  A    between atoms: C_8  and  C_9 
REMARK    2  A    between atoms: C_11  and  O_12 
REMARK    3  A    between atoms: C_14  and  O_15 
REMARK    4  A    between atoms: C_18  and  C_19 
REMARK    5  A    between atoms: C_22  and  O_23 
ROOT
HETATM    1  C   UNL     1      25.773  47.135  37.417  1.00  0.00     0.070 C 
HETATM    2  C   UNL     1      26.377  48.407  37.874  1.00  0.00     0.033 A 
HETATM    3  N   UNL     1      26.066  49.599  37.273  1.00  0.00    -0.282 N 
HETATM    4  H   UNL     1      25.450  49.759  36.485  1.00  0.00     0.189 HD
HETATM    5  N   UNL     1      26.636  50.665  37.853  1.00  0.00    -0.179 NA
HETATM    6  C   UNL     1      27.350  50.135  38.849  1.00  0.00     0.066 A 
HETATM    7  C   UNL     1      27.277  48.718  38.879  1.00  0.00     0.001 A 
HETATM    8  C   UNL     1      27.967  47.910  39.937  1.00  0.00     0.070 C 
HETATM    9  C   UNL     1      29.047  48.719  40.712  1.00  0.00     0.102 C 
HETATM   10  C   UNL     1      28.568  50.159  41.059  1.00  0.00     0.071 C 
HETATM   11  C   UNL     1      29.628  50.957  41.835  1.00  0.00     0.047 C 
HETATM   12  C   UNL     1      28.114  50.974  39.816  1.00  0.00     0.100 C 
ENDROOT
BRANCH   8  13
HETATM   13  C   UNL     1      28.488  46.601  39.359  1.00  0.00    -0.046 A 
HETATM   14  C   UNL     1      28.298  45.350  39.978  1.00  0.00     0.047 A 
HETATM   15  C   UNL     1      28.777  44.183  39.381  1.00  0.00     0.101 A 
HETATM   16  C   UNL     1      29.375  44.247  38.123  1.00  0.00     0.099 A 
HETATM   17  C   UNL     1      29.559  45.462  37.482  1.00  0.00     0.040 A 
HETATM   18  C   UNL     1      29.126  46.635  38.102  1.00  0.00     0.011 A 
BRANCH  15  19
HETATM   19  O   UNL     1      28.659  42.936  39.940  1.00  0.00    -0.353 OA
HETATM   20  C   UNL     1      27.596  42.859  40.890  1.00  0.00     0.210 C 
ENDBRANCH  15  19
BRANCH  16  21
HETATM   21  O   UNL     1      29.800  43.108  37.502  1.00  0.00    -0.358 OA
HETATM   22  H   UNL     1      30.463  43.406  36.850  1.00  0.00     0.218 HD
ENDBRANCH  16  21
ENDBRANCH   8  13
BRANCH   9  23
HETATM   23  C   UNL     1      30.398  48.747  39.998  1.00  0.00     0.131 C 
HETATM   24  C   UNL     1      31.519  47.960  40.633  1.00  0.00     0.091 C 
HETATM   25  O   UNL     1      30.595  49.405  38.978  1.00  0.00    -0.298 OA
ENDBRANCH   9  23
BRANCH  10  26
HETATM   26  O   UNL     1      27.435  50.028  41.948  1.00  0.00    -0.389 OA
HETATM   27  H   UNL     1      27.715  49.564  42.756  1.00  0.00     0.210 HD
ENDBRANCH  10  26
TORSDOF 5
ENDMDL
MODEL 10
REMARK VINA RESULT:      -6.7     11.367     13.307
REMARK  5 active torsions:
REMARK  status: ('A' for Active; 'I' for Inactive)
REMARK    1  A    between atoms: C_8  and  C_9 
REMARK    2  A    between atoms: C_11  and  O_12 
REMARK    3  A    between atoms: C_14  and  O_15 
REMARK    4  A    between atoms: C_18  and  C_19 
REMARK    5  A    between atoms: C_22  and  O_23 
ROOT
HETATM    1  C   UNL     1      29.151  42.659  52.474  1.00  0.00     0.070 C 
HETATM    2  C   UNL     1      28.197  43.783  52.613  1.00  0.00     0.033 A 
HETATM    3  N   UNL     1      28.121  44.513  53.770  1.00  0.00    -0.282 N 
HETATM    4  H   UNL     1      28.646  44.382  54.627  1.00  0.00     0.189 HD
HETATM    5  N   UNL     1      27.264  45.542  53.709  1.00  0.00    -0.179 NA
HETATM    6  C   UNL     1      26.763  45.457  52.475  1.00  0.00     0.066 A 
HETATM    7  C   UNL     1      27.262  44.340  51.757  1.00  0.00     0.001 A 
HETATM    8  C   UNL     1      26.869  44.068  50.336  1.00  0.00     0.070 C 
HETATM    9  C   UNL     1      25.607  44.864  49.892  1.00  0.00     0.102 C 
HETATM   10  C   UNL     1      25.633  46.336  50.396  1.00  0.00     0.071 C 
HETATM   11  C   UNL     1      24.394  47.129  49.949  1.00  0.00     0.047 C 
HETATM   12  C   UNL     1      25.796  46.457  51.937  1.00  0.00     0.100 C 
ENDROOT
BRANCH   8  13
HETATM   13  C   UNL     1      26.760  42.570  50.086  1.00  0.00    -0.046 A 
HETATM   14  C   UNL     1      27.257  41.939  48.929  1.00  0.00     0.047 A 
HETATM   15  C   UNL     1      27.150  40.556  48.773  1.00  0.00     0.101 A 
HETATM   16  C   UNL     1      26.623  39.784  49.808  1.00  0.00     0.099 A 
HETATM   17  C   UNL     1      26.143  40.376  50.966  1.00  0.00     0.040 A 
HETATM   18  C   UNL     1      26.202  41.764  51.099  1.00  0.00     0.011 A 
BRANCH  15  19
HETATM   19  O   UNL     1      27.580  39.877  47.662  1.00  0.00    -0.353 OA
HETATM   20  C   UNL     1      28.018  40.751  46.620  1.00  0.00     0.210 C 
ENDBRANCH  15  19
BRANCH  16  21
HETATM   21  O   UNL     1      26.562  38.425  49.693  1.00  0.00    -0.358 OA
HETATM   22  H   UNL     1      27.091  38.213  48.900  1.00  0.00     0.218 HD
ENDBRANCH  16  21
ENDBRANCH   8  13
BRANCH   9  23
HETATM   23  C   UNL     1      24.300  44.173  50.278  1.00  0.00     0.131 C 
HETATM   24  C   UNL     1      23.484  43.585  49.152  1.00  0.00     0.091 C 
HETATM   25  O   UNL     1      23.893  44.125  51.437  1.00  0.00    -0.298 OA
ENDBRANCH   9  23
BRANCH  10  26
HETATM   26  O   UNL     1      26.767  46.981  49.772  1.00  0.00    -0.389 OA
HETATM   27  H   UNL     1      26.487  47.839  49.410  1.00  0.00     0.210 HD
ENDBRANCH  10  26
TORSDOF 5
ENDMDL
