MODEL 1
REMARK VINA RESULT:      -8.5      0.000      0.000
REMARK  4 active torsions:
REMARK  status: ('A' for Active; 'I' for Inactive)
REMARK    1  A    between atoms: C_4  and  N_5 
REMARK       I    between atoms: N_5  and  C_6 
REMARK    2  A    between atoms: C_6  and  C_7 
REMARK    3  A    between atoms: C_7  and  O_8 
REMARK    4  A    between atoms: O_8  and  C_9 
ROOT
HETATM    1  N   UNL     1      25.916  46.228  51.887  1.00  0.00    -0.309 N 
HETATM    2  C   UNL     1      26.225  44.885  51.742  1.00  0.00     0.252 C 
HETATM    3  O   UNL     1      26.209  44.228  50.707  1.00  0.00    -0.270 OA
HETATM    4  H   UNL     1      25.919  46.594  52.827  1.00  0.00     0.170 HD
ENDROOT
BRANCH   2   5
HETATM    5  C   UNL     1      26.747  44.293  53.071  1.00  0.00     0.217 C 
HETATM    6  C   UNL     1      25.625  44.100  54.080  1.00  0.00     0.050 C 
BRANCH   5   7
HETATM    7  O   UNL     1      27.706  45.193  53.635  1.00  0.00    -0.335 OA
BRANCH   7   8
HETATM    8  C   UNL     1      28.734  44.700  54.391  1.00  0.00     0.091 A 
HETATM    9  C   UNL     1      29.049  45.406  55.567  1.00  0.00     0.069 A 
HETATM   10 CL   UNL     1      28.196  46.847  55.998  1.00  0.00    -0.081 Cl
HETATM   11  C   UNL     1      30.085  44.985  56.402  1.00  0.00     0.050 A 
HETATM   12  C   UNL     1      30.808  43.847  56.068  1.00  0.00     0.035 A 
HETATM   13 CL   UNL     1      32.099  43.328  57.078  1.00  0.00    -0.084 Cl
HETATM   14  C   UNL     1      30.494  43.122  54.919  1.00  0.00     0.026 A 
HETATM   15  C   UNL     1      29.449  43.539  54.088  1.00  0.00     0.040 A 
ENDBRANCH   7   8
ENDBRANCH   5   7
ENDBRANCH   2   5
BRANCH   1  16
HETATM   16  C   UNL     1      25.538  47.108  50.869  1.00  0.00     0.130 A 
HETATM   17  C   UNL     1      26.533  47.931  50.347  1.00  0.00     0.057 A 
HETATM   18  C   UNL     1      26.224  48.807  49.306  1.00  0.00    -0.057 A 
HETATM   19  C   UNL     1      27.274  49.675  48.681  1.00  0.00     0.048 C 
HETATM   20  C   UNL     1      24.913  48.837  48.835  1.00  0.00     0.033 A 
HETATM   21  C   UNL     1      23.970  47.995  49.415  1.00  0.00     0.033 A 
HETATM   22  N   UNL     1      24.278  47.132  50.410  1.00  0.00    -0.236 NA
HETATM   23  C   UNL     1      22.549  48.013  48.941  1.00  0.00     0.070 C 
ENDBRANCH   1  16
TORSDOF 4
ENDMDL
MODEL 2
REMARK VINA RESULT:      -8.2      3.112      3.927
REMARK  4 active torsions:
REMARK  status: ('A' for Active; 'I' for Inactive)
REMARK    1  A    between atoms: C_4  and  N_5 
REMARK       I    between atoms: N_5  and  C_6 
REMARK    2  A    between atoms: C_6  and  C_7 
REMARK    3  A    between atoms: C_7  and  O_8 
REMARK    4  A    between atoms: O_8  and  C_9 
ROOT
HETATM    1  N   UNL     1      25.718  44.967  52.480  1.00  0.00    -0.309 N 
HETATM    2  C   UNL     1      25.504  44.954  53.849  1.00  0.00     0.252 C 
HETATM    3  O   UNL     1      24.728  44.237  54.471  1.00  0.00    -0.270 OA
HETATM    4  H   UNL     1      26.351  45.669  52.128  1.00  0.00     0.170 HD
ENDROOT
BRANCH   2   5
HETATM    5  C   UNL     1      26.491  45.898  54.570  1.00  0.00     0.217 C 
HETATM    6  C   UNL     1      26.103  47.359  54.394  1.00  0.00     0.050 C 
BRANCH   5   7
HETATM    7  O   UNL     1      27.799  45.713  54.019  1.00  0.00    -0.335 OA
BRANCH   7   8
HETATM    8  C   UNL     1      28.798  45.205  54.804  1.00  0.00     0.091 A 
HETATM    9  C   UNL     1      29.358  43.979  54.398  1.00  0.00     0.069 A 
HETATM   10 CL   UNL     1      28.773  43.151  52.997  1.00  0.00    -0.081 Cl
HETATM   11  C   UNL     1      30.379  43.377  55.135  1.00  0.00     0.050 A 
HETATM   12  C   UNL     1      30.851  44.003  56.282  1.00  0.00     0.035 A 
HETATM   13 CL   UNL     1      32.095  43.262  57.209  1.00  0.00    -0.084 Cl
HETATM   14  C   UNL     1      30.323  45.230  56.685  1.00  0.00     0.026 A 
HETATM   15  C   UNL     1      29.307  45.837  55.940  1.00  0.00     0.040 A 
ENDBRANCH   7   8
ENDBRANCH   5   7
ENDBRANCH   2   5
BRANCH   1  16
HETATM   16  C   UNL     1      25.099  44.146  51.533  1.00  0.00     0.130 A 
HETATM   17  C   UNL     1      25.741  42.950  51.220  1.00  0.00     0.057 A 
HETATM   18  C   UNL     1      25.153  42.074  50.307  1.00  0.00    -0.057 A 
HETATM   19  C   UNL     1      25.785  40.755  49.977  1.00  0.00     0.048 C 
HETATM   20  C   UNL     1      23.941  42.440  49.726  1.00  0.00     0.033 A 
HETATM   21  C   UNL     1      23.366  43.657  50.078  1.00  0.00     0.033 A 
HETATM   22  N   UNL     1      23.928  44.494  50.979  1.00  0.00    -0.236 NA
HETATM   23  C   UNL     1      22.070  44.086  49.461  1.00  0.00     0.070 C 
ENDBRANCH   1  16
TORSDOF 4
ENDMDL
MODEL 3
REMARK VINA RESULT:      -7.9      1.453      2.459
REMARK  4 active torsions:
REMARK  status: ('A' for Active; 'I' for Inactive)
REMARK    1  A    between atoms: C_4  and  N_5 
REMARK       I    between atoms: N_5  and  C_6 
REMARK    2  A    between atoms: C_6  and  C_7 
REMARK    3  A    between atoms: C_7  and  O_8 
REMARK    4  A    between atoms: O_8  and  C_9 
ROOT
HETATM    1  N   UNL     1      25.349  45.813  50.590  1.00  0.00    -0.309 N 
HETATM    2  C   UNL     1      26.143  44.713  50.306  1.00  0.00     0.252 C 
HETATM    3  O   UNL     1      27.006  44.625  49.440  1.00  0.00    -0.270 OA
HETATM    4  H   UNL     1      24.641  45.689  51.298  1.00  0.00     0.170 HD
ENDROOT
BRANCH   2   5
HETATM    5  C   UNL     1      25.908  43.583  51.334  1.00  0.00     0.217 C 
HETATM    6  C   UNL     1      24.517  42.980  51.198  1.00  0.00     0.050 C 
BRANCH   5   7
HETATM    7  O   UNL     1      26.035  44.122  52.654  1.00  0.00    -0.335 OA
BRANCH   7   8
HETATM    8  C   UNL     1      27.187  43.916  53.361  1.00  0.00     0.091 A 
HETATM    9  C   UNL     1      27.693  45.016  54.079  1.00  0.00     0.069 A 
HETATM   10 CL   UNL     1      26.905  46.554  54.026  1.00  0.00    -0.081 Cl
HETATM   11  C   UNL     1      28.867  44.907  54.826  1.00  0.00     0.050 A 
HETATM   12  C   UNL     1      29.539  43.692  54.865  1.00  0.00     0.035 A 
HETATM   13 CL   UNL     1      30.996  43.551  55.766  1.00  0.00    -0.084 Cl
HETATM   14  C   UNL     1      29.039  42.586  54.179  1.00  0.00     0.026 A 
HETATM   15  C   UNL     1      27.857  42.693  53.438  1.00  0.00     0.040 A 
ENDBRANCH   7   8
ENDBRANCH   5   7
ENDBRANCH   2   5
BRANCH   1  16
HETATM   16  C   UNL     1      25.390  47.055  49.950  1.00  0.00     0.130 A 
HETATM   17  C   UNL     1      24.174  47.580  49.518  1.00  0.00     0.057 A 
HETATM   18  C   UNL     1      24.147  48.832  48.902  1.00  0.00    -0.057 A 
HETATM   19  C   UNL     1      22.857  49.456  48.464  1.00  0.00     0.048 C 
HETATM   20  C   UNL     1      25.353  49.508  48.727  1.00  0.00     0.033 A 
HETATM   21  C   UNL     1      26.528  48.914  49.174  1.00  0.00     0.033 A 
HETATM   22  N   UNL     1      26.549  47.710  49.788  1.00  0.00    -0.236 NA
HETATM   23  C   UNL     1      27.843  49.610  48.989  1.00  0.00     0.070 C 
ENDBRANCH   1  16
TORSDOF 4
ENDMDL
MODEL 4
REMARK VINA RESULT:      -7.8      4.147      8.565
REMARK  4 active torsions:
REMARK  status: ('A' for Active; 'I' for Inactive)
REMARK    1  A    between atoms: C_4  and  N_5 
REMARK       I    between atoms: N_5  and  C_6 
REMARK    2  A    between atoms: C_6  and  C_7 
REMARK    3  A    between atoms: C_7  and  O_8 
REMARK    4  A    between atoms: O_8  and  C_9 
ROOT
HETATM    1  N   UNL     1      25.003  46.265  51.883  1.00  0.00    -0.309 N 
HETATM    2  C   UNL     1      24.966  47.086  50.767  1.00  0.00     0.252 C 
HETATM    3  O   UNL     1      25.699  48.038  50.522  1.00  0.00    -0.270 OA
HETATM    4  H   UNL     1      24.281  45.564  51.953  1.00  0.00     0.170 HD
ENDROOT
BRANCH   2   5
HETATM    5  C   UNL     1      23.933  46.573  49.739  1.00  0.00     0.217 C 
HETATM    6  C   UNL     1      24.314  45.203  49.195  1.00  0.00     0.050 C 
BRANCH   5   7
HETATM    7  O   UNL     1      23.874  47.490  48.642  1.00  0.00    -0.335 OA
BRANCH   7   8
HETATM    8  C   UNL     1      22.938  48.487  48.644  1.00  0.00     0.091 A 
HETATM    9  C   UNL     1      23.373  49.762  48.236  1.00  0.00     0.069 A 
HETATM   10 CL   UNL     1      25.021  50.044  47.796  1.00  0.00    -0.081 Cl
HETATM   11  C   UNL     1      22.494  50.846  48.208  1.00  0.00     0.050 A 
HETATM   12  C   UNL     1      21.170  50.658  48.584  1.00  0.00     0.035 A 
HETATM   13 CL   UNL     1      20.082  51.990  48.574  1.00  0.00    -0.084 Cl
HETATM   14  C   UNL     1      20.717  49.396  48.968  1.00  0.00     0.026 A 
HETATM   15  C   UNL     1      21.596  48.308  48.986  1.00  0.00     0.040 A 
ENDBRANCH   7   8
ENDBRANCH   5   7
ENDBRANCH   2   5
BRANCH   1  16
HETATM   16  C   UNL     1      25.902  46.353  52.950  1.00  0.00     0.130 A 
HETATM   17  C   UNL     1      25.780  47.460  53.786  1.00  0.00     0.057 A 
HETATM   18  C   UNL     1      26.627  47.586  54.888  1.00  0.00    -0.057 A 
HETATM   19  C   UNL     1      26.500  48.735  55.841  1.00  0.00     0.048 C 
HETATM   20  C   UNL     1      27.583  46.594  55.102  1.00  0.00     0.033 A 
HETATM   21  C   UNL     1      27.653  45.524  54.217  1.00  0.00     0.033 A 
HETATM   22  N   UNL     1      26.817  45.396  53.162  1.00  0.00    -0.236 NA
HETATM   23  C   UNL     1      28.678  44.449  54.412  1.00  0.00     0.070 C 
ENDBRANCH   1  16
TORSDOF 4
ENDMDL
MODEL 5
REMARK VINA RESULT:      -7.8      1.706      2.746
REMARK  4 active torsions:
REMARK  status: ('A' for Active; 'I' for Inactive)
REMARK    1  A    between atoms: C_4  and  N_5 
REMARK       I    between atoms: N_5  and  C_6 
REMARK    2  A    between atoms: C_6  and  C_7 
REMARK    3  A    between atoms: C_7  and  O_8 
REMARK    4  A    between atoms: O_8  and  C_9 
ROOT
HETATM    1  N   UNL     1      26.156  45.827  50.457  1.00  0.00    -0.309 N 
HETATM    2  C   UNL     1      26.213  45.553  51.814  1.00  0.00     0.252 C 
HETATM    3  O   UNL     1      25.848  46.279  52.733  1.00  0.00    -0.270 OA
HETATM    4  H   UNL     1      26.562  45.140  49.839  1.00  0.00     0.170 HD
ENDROOT
BRANCH   2   5
HETATM    5  C   UNL     1      26.693  44.106  52.065  1.00  0.00     0.217 C 
HETATM    6  C   UNL     1      25.784  43.088  51.391  1.00  0.00     0.050 C 
BRANCH   5   7
HETATM    7  O   UNL     1      26.684  43.851  53.473  1.00  0.00    -0.335 OA
BRANCH   7   8
HETATM    8  C   UNL     1      27.851  43.925  54.181  1.00  0.00     0.091 A 
HETATM    9  C   UNL     1      28.655  42.770  54.199  1.00  0.00     0.069 A 
HETATM   10 CL   UNL     1      28.155  41.324  53.393  1.00  0.00    -0.081 Cl
HETATM   11  C   UNL     1      29.862  42.745  54.898  1.00  0.00     0.050 A 
HETATM   12  C   UNL     1      30.277  43.882  55.580  1.00  0.00     0.035 A 
HETATM   13 CL   UNL     1      31.753  43.858  56.462  1.00  0.00    -0.084 Cl
HETATM   14  C   UNL     1      29.505  45.043  55.554  1.00  0.00     0.026 A 
HETATM   15  C   UNL     1      28.300  45.070  54.844  1.00  0.00     0.040 A 
ENDBRANCH   7   8
ENDBRANCH   5   7
ENDBRANCH   2   5
BRANCH   1  16
HETATM   16  C   UNL     1      25.650  46.987  49.863  1.00  0.00     0.130 A 
HETATM   17  C   UNL     1      24.267  47.072  49.727  1.00  0.00     0.057 A 
HETATM   18  C   UNL     1      23.701  48.221  49.172  1.00  0.00    -0.057 A 
HETATM   19  C   UNL     1      22.215  48.376  49.051  1.00  0.00     0.048 C 
HETATM   20  C   UNL     1      24.553  49.243  48.756  1.00  0.00     0.033 A 
HETATM   21  C   UNL     1      25.925  49.080  48.912  1.00  0.00     0.033 A 
HETATM   22  N   UNL     1      26.469  47.974  49.469  1.00  0.00    -0.236 NA
HETATM   23  C   UNL     1      26.869  50.153  48.463  1.00  0.00     0.070 C 
ENDBRANCH   1  16
TORSDOF 4
ENDMDL
MODEL 6
REMARK VINA RESULT:      -7.8      3.056      3.847
REMARK  4 active torsions:
REMARK  status: ('A' for Active; 'I' for Inactive)
REMARK    1  A    between atoms: C_4  and  N_5 
REMARK       I    between atoms: N_5  and  C_6 
REMARK    2  A    between atoms: C_6  and  C_7 
REMARK    3  A    between atoms: C_7  and  O_8 
REMARK    4  A    between atoms: O_8  and  C_9 
ROOT
HETATM    1  N   UNL     1      24.969  43.103  51.746  1.00  0.00    -0.309 N 
HETATM    2  C   UNL     1      26.237  43.640  51.893  1.00  0.00     0.252 C 
HETATM    3  O   UNL     1      26.983  44.035  51.003  1.00  0.00    -0.270 OA
HETATM    4  H   UNL     1      24.519  42.770  52.585  1.00  0.00     0.170 HD
ENDROOT
BRANCH   2   5
HETATM    5  C   UNL     1      26.589  43.823  53.386  1.00  0.00     0.217 C 
HETATM    6  C   UNL     1      25.423  44.406  54.172  1.00  0.00     0.050 C 
BRANCH   5   7
HETATM    7  O   UNL     1      27.697  44.723  53.496  1.00  0.00    -0.335 OA
BRANCH   7   8
HETATM    8  C   UNL     1      28.742  44.412  54.321  1.00  0.00     0.091 A 
HETATM    9  C   UNL     1      29.064  45.355  55.316  1.00  0.00     0.069 A 
HETATM   10 CL   UNL     1      28.197  46.845  55.446  1.00  0.00    -0.081 Cl
HETATM   11  C   UNL     1      30.118  45.131  56.203  1.00  0.00     0.050 A 
HETATM   12  C   UNL     1      30.852  43.956  56.105  1.00  0.00     0.035 A 
HETATM   13 CL   UNL     1      32.165  43.677  57.180  1.00  0.00    -0.084 Cl
HETATM   14  C   UNL     1      30.531  43.000  55.142  1.00  0.00     0.026 A 
HETATM   15  C   UNL     1      29.469  43.221  54.259  1.00  0.00     0.040 A 
ENDBRANCH   7   8
ENDBRANCH   5   7
ENDBRANCH   2   5
BRANCH   1  16
HETATM   16  C   UNL     1      24.277  42.920  50.545  1.00  0.00     0.130 A 
HETATM   17  C   UNL     1      23.290  43.853  50.238  1.00  0.00     0.057 A 
HETATM   18  C   UNL     1      22.589  43.742  49.037  1.00  0.00    -0.057 A 
HETATM   19  C   UNL     1      21.552  44.751  48.644  1.00  0.00     0.048 C 
HETATM   20  C   UNL     1      22.896  42.679  48.189  1.00  0.00     0.033 A 
HETATM   21  C   UNL     1      23.885  41.779  48.569  1.00  0.00     0.033 A 
HETATM   22  N   UNL     1      24.577  41.902  49.725  1.00  0.00    -0.236 NA
HETATM   23  C   UNL     1      24.230  40.618  47.687  1.00  0.00     0.070 C 
ENDBRANCH   1  16
TORSDOF 4
ENDMDL
MODEL 7
REMARK VINA RESULT:      -7.7      3.752      8.371
REMARK  4 active torsions:
REMARK  status: ('A' for Active; 'I' for Inactive)
REMARK    1  A    between atoms: C_4  and  N_5 
REMARK       I    between atoms: N_5  and  C_6 
REMARK    2  A    between atoms: C_6  and  C_7 
REMARK    3  A    between atoms: C_7  and  O_8 
REMARK    4  A    between atoms: O_8  and  C_9 
ROOT
HETATM    1  N   UNL     1      25.896  45.301  51.861  1.00  0.00    -0.309 N 
HETATM    2  C   UNL     1      25.566  46.520  51.291  1.00  0.00     0.252 C 
HETATM    3  O   UNL     1      26.103  47.603  51.496  1.00  0.00    -0.270 OA
HETATM    4  H   UNL     1      25.305  44.517  51.627  1.00  0.00     0.170 HD
ENDROOT
BRANCH   2   5
HETATM    5  C   UNL     1      24.474  46.346  50.212  1.00  0.00     0.217 C 
HETATM    6  C   UNL     1      24.562  44.986  49.536  1.00  0.00     0.050 C 
BRANCH   5   7
HETATM    7  O   UNL     1      24.645  47.355  49.211  1.00  0.00    -0.335 OA
BRANCH   7   8
HETATM    8  C   UNL     1      23.672  48.298  49.029  1.00  0.00     0.091 A 
HETATM    9  C   UNL     1      24.101  49.587  48.661  1.00  0.00     0.069 A 
HETATM   10 CL   UNL     1      25.783  49.952  48.493  1.00  0.00    -0.081 Cl
HETATM   11  C   UNL     1      23.185  50.619  48.457  1.00  0.00     0.050 A 
HETATM   12  C   UNL     1      21.828  50.365  48.613  1.00  0.00     0.035 A 
HETATM   13 CL   UNL     1      20.689  51.633  48.383  1.00  0.00    -0.084 Cl
HETATM   14  C   UNL     1      21.383  49.088  48.954  1.00  0.00     0.026 A 
HETATM   15  C   UNL     1      22.302  48.051  49.149  1.00  0.00     0.040 A 
ENDBRANCH   7   8
ENDBRANCH   5   7
ENDBRANCH   2   5
BRANCH   1  16
HETATM   16  C   UNL     1      26.926  45.062  52.776  1.00  0.00     0.130 A 
HETATM   17  C   UNL     1      27.819  44.040  52.465  1.00  0.00     0.057 A 
HETATM   18  C   UNL     1      28.888  43.777  53.324  1.00  0.00    -0.057 A 
HETATM   19  C   UNL     1      29.900  42.719  53.004  1.00  0.00     0.048 C 
HETATM   20  C   UNL     1      29.011  44.545  54.480  1.00  0.00     0.033 A 
HETATM   21  C   UNL     1      28.072  45.540  54.729  1.00  0.00     0.033 A 
HETATM   22  N   UNL     1      27.050  45.806  53.885  1.00  0.00    -0.236 NA
HETATM   23  C   UNL     1      28.168  46.375  55.970  1.00  0.00     0.070 C 
ENDBRANCH   1  16
TORSDOF 4
ENDMDL
MODEL 8
REMARK VINA RESULT:      -7.7      1.658      2.658
REMARK  4 active torsions:
REMARK  status: ('A' for Active; 'I' for Inactive)
REMARK    1  A    between atoms: C_4  and  N_5 
REMARK       I    between atoms: N_5  and  C_6 
REMARK    2  A    between atoms: C_6  and  C_7 
REMARK    3  A    between atoms: C_7  and  O_8 
REMARK    4  A    between atoms: O_8  and  C_9 
ROOT
HETATM    1  N   UNL     1      25.244  46.650  50.258  1.00  0.00    -0.309 N 
HETATM    2  C   UNL     1      25.620  46.718  51.590  1.00  0.00     0.252 C 
HETATM    3  O   UNL     1      25.156  47.453  52.455  1.00  0.00    -0.270 OA
HETATM    4  H   UNL     1      25.778  46.030  49.669  1.00  0.00     0.170 HD
ENDROOT
BRANCH   2   5
HETATM    5  C   UNL     1      26.653  45.620  51.928  1.00  0.00     0.217 C 
HETATM    6  C   UNL     1      26.401  44.346  51.134  1.00  0.00     0.050 C 
BRANCH   5   7
HETATM    7  O   UNL     1      26.558  45.304  53.321  1.00  0.00    -0.335 OA
BRANCH   7   8
HETATM    8  C   UNL     1      27.674  44.904  54.002  1.00  0.00     0.091 A 
HETATM    9  C   UNL     1      28.255  45.845  54.873  1.00  0.00     0.069 A 
HETATM   10 CL   UNL     1      27.599  47.438  55.030  1.00  0.00    -0.081 Cl
HETATM   11  C   UNL     1      29.399  45.533  55.608  1.00  0.00     0.050 A 
HETATM   12  C   UNL     1      29.967  44.272  55.481  1.00  0.00     0.035 A 
HETATM   13 CL   UNL     1      31.388  43.882  56.366  1.00  0.00    -0.084 Cl
HETATM   14  C   UNL     1      29.391  43.319  54.641  1.00  0.00     0.026 A 
HETATM   15  C   UNL     1      28.238  43.629  53.912  1.00  0.00     0.040 A 
ENDBRANCH   7   8
ENDBRANCH   5   7
ENDBRANCH   2   5
BRANCH   1  16
HETATM   16  C   UNL     1      24.243  47.402  49.637  1.00  0.00     0.130 A 
HETATM   17  C   UNL     1      23.191  46.694  49.060  1.00  0.00     0.057 A 
HETATM   18  C   UNL     1      22.145  47.391  48.454  1.00  0.00    -0.057 A 
HETATM   19  C   UNL     1      20.970  46.672  47.863  1.00  0.00     0.048 C 
HETATM   20  C   UNL     1      22.201  48.783  48.437  1.00  0.00     0.033 A 
HETATM   21  C   UNL     1      23.289  49.420  49.023  1.00  0.00     0.033 A 
HETATM   22  N   UNL     1      24.292  48.742  49.627  1.00  0.00    -0.236 NA
HETATM   23  C   UNL     1      23.387  50.915  49.010  1.00  0.00     0.070 C 
ENDBRANCH   1  16
TORSDOF 4
ENDMDL
MODEL 9
REMARK VINA RESULT:      -7.6      5.704     10.210
REMARK  4 active torsions:
REMARK  status: ('A' for Active; 'I' for Inactive)
REMARK    1  A    between atoms: C_4  and  N_5 
REMARK       I    between atoms: N_5  and  C_6 
REMARK    2  A    between atoms: C_6  and  C_7 
REMARK    3  A    between atoms: C_7  and  O_8 
REMARK    4  A    between atoms: O_8  and  C_9 
ROOT
HETATM    1  N   UNL     1      22.600  48.213  49.485  1.00  0.00    -0.309 N 
HETATM    2  C   UNL     1      21.840  47.782  48.409  1.00  0.00     0.252 C 
HETATM    3  O   UNL     1      22.244  47.236  47.388  1.00  0.00    -0.270 OA
HETATM    4  H   UNL     1      22.108  48.703  50.218  1.00  0.00     0.170 HD
ENDROOT
BRANCH   2   5
HETATM    5  C   UNL     1      20.332  47.950  48.696  1.00  0.00     0.217 C 
HETATM    6  C   UNL     1      19.566  46.657  48.456  1.00  0.00     0.050 C 
BRANCH   5   7
HETATM    7  O   UNL     1      19.801  48.953  47.824  1.00  0.00    -0.335 OA
BRANCH   7   8
HETATM    8  C   UNL     1      18.959  49.907  48.323  1.00  0.00     0.091 A 
HETATM    9  C   UNL     1      19.548  51.115  48.740  1.00  0.00     0.069 A 
HETATM   10 CL   UNL     1      21.260  51.349  48.654  1.00  0.00    -0.081 Cl
HETATM   11  C   UNL     1      18.773  52.148  49.269  1.00  0.00     0.050 A 
HETATM   12  C   UNL     1      17.398  51.980  49.378  1.00  0.00     0.035 A 
HETATM   13 CL   UNL     1      16.435  53.238  50.046  1.00  0.00    -0.084 Cl
HETATM   14  C   UNL     1      16.795  50.799  48.948  1.00  0.00     0.026 A 
HETATM   15  C   UNL     1      17.571  49.768  48.409  1.00  0.00     0.040 A 
ENDBRANCH   7   8
ENDBRANCH   5   7
ENDBRANCH   2   5
BRANCH   1  16
HETATM   16  C   UNL     1      23.985  48.095  49.626  1.00  0.00     0.130 A 
HETATM   17  C   UNL     1      24.453  46.991  50.335  1.00  0.00     0.057 A 
HETATM   18  C   UNL     1      25.828  46.801  50.481  1.00  0.00    -0.057 A 
HETATM   19  C   UNL     1      26.377  45.602  51.194  1.00  0.00     0.048 C 
HETATM   20  C   UNL     1      26.688  47.741  49.917  1.00  0.00     0.033 A 
HETATM   21  C   UNL     1      26.146  48.825  49.234  1.00  0.00     0.033 A 
HETATM   22  N   UNL     1      24.814  48.995  49.078  1.00  0.00    -0.236 NA
HETATM   23  C   UNL     1      27.044  49.861  48.629  1.00  0.00     0.070 C 
ENDBRANCH   1  16
TORSDOF 4
ENDMDL
MODEL 10
REMARK VINA RESULT:      -7.6      5.731     10.228
REMARK  4 active torsions:
REMARK  status: ('A' for Active; 'I' for Inactive)
REMARK    1  A    between atoms: C_4  and  N_5 
REMARK       I    between atoms: N_5  and  C_6 
REMARK    2  A    between atoms: C_6  and  C_7 
REMARK    3  A    between atoms: C_7  and  O_8 
REMARK    4  A    between atoms: O_8  and  C_9 
ROOT
HETATM    1  N   UNL     1      22.512  48.149  49.466  1.00  0.00    -0.309 N 
HETATM    2  C   UNL     1      21.765  47.904  48.325  1.00  0.00     0.252 C 
HETATM    3  O   UNL     1      22.182  47.544  47.230  1.00  0.00    -0.270 OA
HETATM    4  H   UNL     1      22.011  48.502  50.268  1.00  0.00     0.170 HD
ENDROOT
BRANCH   2   5
HETATM    5  C   UNL     1      20.253  48.009  48.623  1.00  0.00     0.217 C 
HETATM    6  C   UNL     1      19.543  46.680  48.407  1.00  0.00     0.050 C 
BRANCH   5   7
HETATM    7  O   UNL     1      19.672  48.975  47.741  1.00  0.00    -0.335 OA
BRANCH   7   8
HETATM    8  C   UNL     1      18.854  49.947  48.247  1.00  0.00     0.091 A 
HETATM    9  C   UNL     1      19.466  51.159  48.617  1.00  0.00     0.069 A 
HETATM   10 CL   UNL     1      21.175  51.376  48.470  1.00  0.00    -0.081 Cl
HETATM   11  C   UNL     1      18.717  52.210  49.149  1.00  0.00     0.050 A 
HETATM   12  C   UNL     1      17.345  52.056  49.307  1.00  0.00     0.035 A 
HETATM   13 CL   UNL     1      16.414  53.335  49.979  1.00  0.00    -0.084 Cl
HETATM   14  C   UNL     1      16.718  50.870  48.923  1.00  0.00     0.026 A 
HETATM   15  C   UNL     1      17.469  49.821  48.381  1.00  0.00     0.040 A 
ENDBRANCH   7   8
ENDBRANCH   5   7
ENDBRANCH   2   5
BRANCH   1  16
HETATM   16  C   UNL     1      23.898  48.018  49.598  1.00  0.00     0.130 A 
HETATM   17  C   UNL     1      24.683  48.997  48.993  1.00  0.00     0.057 A 
HETATM   18  C   UNL     1      26.072  48.937  49.118  1.00  0.00    -0.057 A 
HETATM   19  C   UNL     1      26.952  49.995  48.525  1.00  0.00     0.048 C 
HETATM   20  C   UNL     1      26.625  47.880  49.838  1.00  0.00     0.033 A 
HETATM   21  C   UNL     1      25.777  46.934  50.403  1.00  0.00     0.033 A 
HETATM   22  N   UNL     1      24.431  47.005  50.297  1.00  0.00    -0.236 NA
HETATM   23  C   UNL     1      26.342  45.778  51.171  1.00  0.00     0.070 C 
ENDBRANCH   1  16
TORSDOF 4
ENDMDL
