MODEL 1
REMARK VINA RESULT:      -8.6      0.000      0.000
REMARK  11 active torsions:
REMARK  status: ('A' for Active; 'I' for Inactive)
REMARK    1  A    between atoms: N_13  and  C_14 
REMARK    2  A    between atoms: C_14  and  C_15 
REMARK    3  A    between atoms: N_20  and  C_21 
REMARK    4  A    between atoms: C_21  and  C_22 
REMARK    5  A    between atoms: C_22  and  O_23 
REMARK    6  A    between atoms: C_22  and  C_24 
REMARK    7  A    between atoms: C_24  and  N_25 
REMARK    8  A    between atoms: N_25  and  C_27 
REMARK    9  A    between atoms: N_25  and  C_34 
REMARK   10  A    between atoms: C_27  and  C_28 
REMARK   11  A    between atoms: C_34  and  C_35 
ROOT
HETATM    1  C   UNL     1      27.404  47.937  53.844  1.00  0.00     0.163 C 
HETATM    2  N   UNL     1      26.613  46.741  53.605  1.00  0.00    -0.285 N 
HETATM    3  C   UNL     1      26.645  45.677  54.511  1.00  0.00     0.332 A 
HETATM    4  O   UNL     1      27.345  45.710  55.525  1.00  0.00    -0.246 OA
HETATM    5  N   UNL     1      25.857  44.548  54.201  1.00  0.00    -0.269 N 
HETATM    6  C   UNL     1      25.893  43.427  55.121  1.00  0.00     0.164 C 
HETATM    7  C   UNL     1      25.147  44.361  53.015  1.00  0.00     0.282 A 
HETATM    8  O   UNL     1      24.604  43.311  52.677  1.00  0.00    -0.265 OA
HETATM    9  C   UNL     1      25.151  45.507  52.177  1.00  0.00     0.166 A 
HETATM   10  C   UNL     1      25.861  46.630  52.460  1.00  0.00     0.186 A 
HETATM   11  N   UNL     1      25.769  47.546  51.462  1.00  0.00    -0.044 NA
HETATM   12  C   UNL     1      24.984  47.001  50.557  1.00  0.00     0.705 A 
HETATM   13  N   UNL     1      24.643  47.513  49.356  1.00  0.00    -0.218 N 
HETATM   14  N   UNL     1      24.573  45.746  50.958  1.00  0.00    -0.170 N 
HETATM   15  H   UNL     1      23.729  47.316  48.959  1.00  0.00     0.178 HD
ENDROOT
BRANCH  14  16
HETATM   16  C   UNL     1      23.800  44.780  50.193  1.00  0.00     0.181 C 
BRANCH  16  17
HETATM   17  C   UNL     1      24.697  44.016  49.213  1.00  0.00     0.163 C 
BRANCH  17  18
HETATM   18  O   UNL     1      24.288  44.246  47.861  1.00  0.00    -0.392 OA
HETATM   19  H   UNL     1      24.184  45.214  47.730  1.00  0.00     0.210 HD
ENDBRANCH  17  18
BRANCH  17  20
HETATM   20  C   UNL     1      24.742  42.499  49.502  1.00  0.00     0.268 C 
BRANCH  20  21
HETATM   21  N   UNL     1      26.136  41.907  49.735  1.00  0.00    -0.061 N 
HETATM   22  H   UNL     1      26.097  41.249  50.518  1.00  0.00     0.280 HD
BRANCH  21  23
HETATM   23  C   UNL     1      26.650  41.126  48.532  1.00  0.00     0.273 C 
BRANCH  23  24
HETATM   24  C   UNL     1      27.438  39.885  48.862  1.00  0.00    -0.033 A 
HETATM   25  C   UNL     1      26.790  38.716  49.291  1.00  0.00     0.009 A 
HETATM   26  C   UNL     1      27.531  37.576  49.609  1.00  0.00     0.001 A 
HETATM   27  C   UNL     1      28.920  37.593  49.498  1.00  0.00     0.000 A 
HETATM   28  C   UNL     1      29.573  38.744  49.066  1.00  0.00     0.001 A 
HETATM   29  C   UNL     1      28.837  39.887  48.749  1.00  0.00     0.009 A 
ENDBRANCH  23  24
ENDBRANCH  21  23
BRANCH  21  30
HETATM   30  C   UNL     1      27.108  43.000  50.170  1.00  0.00     0.273 C 
BRANCH  30  31
HETATM   31  C   UNL     1      27.807  42.690  51.468  1.00  0.00    -0.033 A 
HETATM   32  C   UNL     1      28.667  43.633  52.054  1.00  0.00     0.009 A 
HETATM   33  C   UNL     1      29.326  43.341  53.250  1.00  0.00     0.001 A 
HETATM   34  C   UNL     1      29.133  42.110  53.870  1.00  0.00     0.000 A 
HETATM   35  C   UNL     1      28.275  41.169  53.303  1.00  0.00     0.001 A 
HETATM   36  C   UNL     1      27.613  41.457  52.109  1.00  0.00     0.009 A 
ENDBRANCH  30  31
ENDBRANCH  21  30
ENDBRANCH  20  21
ENDBRANCH  17  20
ENDBRANCH  16  17
ENDBRANCH  14  16
BRANCH  13  37
HETATM   37  C   UNL     1      24.975  48.924  49.124  1.00  0.00     0.203 C 
BRANCH  37  38
HETATM   38  C   UNL     1      23.775  49.788  48.918  1.00  0.00     0.070 A 
HETATM   39  O   UNL     1      22.971  50.008  50.005  1.00  0.00    -0.325 OA
HETATM   40  C   UNL     1      21.970  50.829  49.593  1.00  0.00     0.142 A 
HETATM   41  C   UNL     1      22.115  51.139  48.262  1.00  0.00     0.027 A 
HETATM   42  C   UNL     1      23.281  50.467  47.823  1.00  0.00     0.036 A 
ENDBRANCH  37  38
ENDBRANCH  13  37
TORSDOF 11
ENDMDL
MODEL 2
REMARK VINA RESULT:      -8.2      2.494      4.570
REMARK  11 active torsions:
REMARK  status: ('A' for Active; 'I' for Inactive)
REMARK    1  A    between atoms: N_13  and  C_14 
REMARK    2  A    between atoms: C_14  and  C_15 
REMARK    3  A    between atoms: N_20  and  C_21 
REMARK    4  A    between atoms: C_21  and  C_22 
REMARK    5  A    between atoms: C_22  and  O_23 
REMARK    6  A    between atoms: C_22  and  C_24 
REMARK    7  A    between atoms: C_24  and  N_25 
REMARK    8  A    between atoms: N_25  and  C_27 
REMARK    9  A    between atoms: N_25  and  C_34 
REMARK   10  A    between atoms: C_27  and  C_28 
REMARK   11  A    between atoms: C_34  and  C_35 
ROOT
HETATM    1  C   UNL     1      27.757  47.198  56.400  1.00  0.00     0.163 C 
HETATM    2  N   UNL     1      28.490  46.035  55.928  1.00  0.00    -0.285 N 
HETATM    3  C   UNL     1      29.610  45.572  56.627  1.00  0.00     0.332 A 
HETATM    4  O   UNL     1      30.016  46.134  57.646  1.00  0.00    -0.246 OA
HETATM    5  N   UNL     1      30.273  44.444  56.098  1.00  0.00    -0.269 N 
HETATM    6  C   UNL     1      31.447  43.962  56.799  1.00  0.00     0.164 C 
HETATM    7  C   UNL     1      29.974  43.830  54.881  1.00  0.00     0.282 A 
HETATM    8  O   UNL     1      30.658  42.960  54.345  1.00  0.00    -0.265 OA
HETATM    9  C   UNL     1      28.806  44.352  54.266  1.00  0.00     0.166 A 
HETATM   10  C   UNL     1      28.114  45.409  54.766  1.00  0.00     0.186 A 
HETATM   11  N   UNL     1      27.091  45.768  53.948  1.00  0.00    -0.044 NA
HETATM   12  C   UNL     1      27.132  44.922  52.941  1.00  0.00     0.705 A 
HETATM   13  N   UNL     1      26.344  44.917  51.846  1.00  0.00    -0.218 N 
HETATM   14  N   UNL     1      28.169  44.026  53.097  1.00  0.00    -0.170 N 
HETATM   15  H   UNL     1      26.099  44.039  51.397  1.00  0.00     0.178 HD
ENDROOT
BRANCH  14  16
HETATM   16  C   UNL     1      28.618  43.017  52.152  1.00  0.00     0.181 C 
BRANCH  16  17
HETATM   17  C   UNL     1      27.731  41.769  52.222  1.00  0.00     0.163 C 
BRANCH  17  18
HETATM   18  O   UNL     1      27.559  41.339  53.576  1.00  0.00    -0.392 OA
HETATM   19  H   UNL     1      28.254  40.675  53.779  1.00  0.00     0.210 HD
ENDBRANCH  17  18
BRANCH  17  20
HETATM   20  C   UNL     1      28.269  40.604  51.361  1.00  0.00     0.268 C 
BRANCH  20  21
HETATM   21  N   UNL     1      27.696  40.504  49.943  1.00  0.00    -0.061 N 
HETATM   22  H   UNL     1      27.752  41.420  49.491  1.00  0.00     0.280 HD
BRANCH  21  23
HETATM   23  C   UNL     1      28.474  39.533  49.063  1.00  0.00     0.273 C 
BRANCH  23  24
HETATM   24  C   UNL     1      28.185  39.633  47.588  1.00  0.00    -0.033 A 
HETATM   25  C   UNL     1      27.834  38.494  46.846  1.00  0.00     0.009 A 
HETATM   26  C   UNL     1      27.584  38.595  45.476  1.00  0.00     0.001 A 
HETATM   27  C   UNL     1      27.678  39.830  44.839  1.00  0.00     0.000 A 
HETATM   28  C   UNL     1      28.017  40.968  45.566  1.00  0.00     0.001 A 
HETATM   29  C   UNL     1      28.270  40.872  46.934  1.00  0.00     0.009 A 
ENDBRANCH  23  24
ENDBRANCH  21  23
BRANCH  21  30
HETATM   30  C   UNL     1      26.208  40.166  49.998  1.00  0.00     0.273 C 
BRANCH  30  31
HETATM   31  C   UNL     1      25.357  41.103  49.180  1.00  0.00    -0.033 A 
HETATM   32  C   UNL     1      25.174  42.434  49.589  1.00  0.00     0.009 A 
HETATM   33  C   UNL     1      24.374  43.299  48.839  1.00  0.00     0.001 A 
HETATM   34  C   UNL     1      23.753  42.845  47.678  1.00  0.00     0.000 A 
HETATM   35  C   UNL     1      23.935  41.529  47.258  1.00  0.00     0.001 A 
HETATM   36  C   UNL     1      24.735  40.661  48.003  1.00  0.00     0.009 A 
ENDBRANCH  30  31
ENDBRANCH  21  30
ENDBRANCH  20  21
ENDBRANCH  17  20
ENDBRANCH  16  17
ENDBRANCH  14  16
BRANCH  13  37
HETATM   37  C   UNL     1      25.161  45.785  51.883  1.00  0.00     0.203 C 
BRANCH  37  38
HETATM   38  C   UNL     1      25.177  46.853  50.839  1.00  0.00     0.070 A 
HETATM   39  O   UNL     1      26.387  47.424  50.551  1.00  0.00    -0.325 OA
HETATM   40  C   UNL     1      26.167  48.339  49.571  1.00  0.00     0.142 A 
HETATM   41  C   UNL     1      24.837  48.366  49.225  1.00  0.00     0.027 A 
HETATM   42  C   UNL     1      24.195  47.406  50.043  1.00  0.00     0.036 A 
ENDBRANCH  37  38
ENDBRANCH  13  37
TORSDOF 11
ENDMDL
MODEL 3
REMARK VINA RESULT:      -8.1      2.338      5.036
REMARK  11 active torsions:
REMARK  status: ('A' for Active; 'I' for Inactive)
REMARK    1  A    between atoms: N_13  and  C_14 
REMARK    2  A    between atoms: C_14  and  C_15 
REMARK    3  A    between atoms: N_20  and  C_21 
REMARK    4  A    between atoms: C_21  and  C_22 
REMARK    5  A    between atoms: C_22  and  O_23 
REMARK    6  A    between atoms: C_22  and  C_24 
REMARK    7  A    between atoms: C_24  and  N_25 
REMARK    8  A    between atoms: N_25  and  C_27 
REMARK    9  A    between atoms: N_25  and  C_34 
REMARK   10  A    between atoms: C_27  and  C_28 
REMARK   11  A    between atoms: C_34  and  C_35 
ROOT
HETATM    1  C   UNL     1      27.677  47.217  56.308  1.00  0.00     0.163 C 
HETATM    2  N   UNL     1      28.414  46.050  55.852  1.00  0.00    -0.285 N 
HETATM    3  C   UNL     1      29.533  45.599  56.559  1.00  0.00     0.332 A 
HETATM    4  O   UNL     1      29.935  46.173  57.572  1.00  0.00    -0.246 OA
HETATM    5  N   UNL     1      30.200  44.465  56.045  1.00  0.00    -0.269 N 
HETATM    6  C   UNL     1      31.374  43.995  56.756  1.00  0.00     0.164 C 
HETATM    7  C   UNL     1      29.906  43.836  54.836  1.00  0.00     0.282 A 
HETATM    8  O   UNL     1      30.593  42.961  54.312  1.00  0.00    -0.265 OA
HETATM    9  C   UNL     1      28.739  44.347  54.211  1.00  0.00     0.166 A 
HETATM   10  C   UNL     1      28.042  45.408  54.696  1.00  0.00     0.186 A 
HETATM   11  N   UNL     1      27.020  45.755  53.872  1.00  0.00    -0.044 NA
HETATM   12  C   UNL     1      27.066  44.897  52.876  1.00  0.00     0.705 A 
HETATM   13  N   UNL     1      26.281  44.877  51.778  1.00  0.00    -0.218 N 
HETATM   14  N   UNL     1      28.105  44.006  53.045  1.00  0.00    -0.170 N 
HETATM   15  H   UNL     1      26.039  43.992  51.340  1.00  0.00     0.178 HD
ENDROOT
BRANCH  14  16
HETATM   16  C   UNL     1      28.559  42.986  52.113  1.00  0.00     0.181 C 
BRANCH  16  17
HETATM   17  C   UNL     1      27.772  41.684  52.301  1.00  0.00     0.163 C 
BRANCH  17  18
HETATM   18  O   UNL     1      27.423  41.491  53.676  1.00  0.00    -0.392 OA
HETATM   19  H   UNL     1      27.948  42.120  54.219  1.00  0.00     0.210 HD
ENDBRANCH  17  18
BRANCH  17  20
HETATM   20  C   UNL     1      28.528  40.446  51.769  1.00  0.00     0.268 C 
BRANCH  20  21
HETATM   21  N   UNL     1      27.979  39.836  50.474  1.00  0.00    -0.061 N 
HETATM   22  H   UNL     1      27.083  39.384  50.668  1.00  0.00     0.280 HD
BRANCH  21  23
HETATM   23  C   UNL     1      27.717  40.883  49.398  1.00  0.00     0.273 C 
BRANCH  23  24
HETATM   24  C   UNL     1      26.297  40.949  48.900  1.00  0.00    -0.033 A 
HETATM   25  C   UNL     1      25.343  41.746  49.553  1.00  0.00     0.009 A 
HETATM   26  C   UNL     1      24.026  41.788  49.093  1.00  0.00     0.001 A 
HETATM   27  C   UNL     1      23.652  41.040  47.978  1.00  0.00     0.000 A 
HETATM   28  C   UNL     1      24.591  40.253  47.318  1.00  0.00     0.001 A 
HETATM   29  C   UNL     1      25.908  40.206  47.775  1.00  0.00     0.009 A 
ENDBRANCH  23  24
ENDBRANCH  21  23
BRANCH  21  30
HETATM   30  C   UNL     1      28.900  38.724  49.982  1.00  0.00     0.273 C 
BRANCH  30  31
HETATM   31  C   UNL     1      28.268  37.852  48.928  1.00  0.00    -0.033 A 
HETATM   32  C   UNL     1      27.110  37.112  49.221  1.00  0.00     0.009 A 
HETATM   33  C   UNL     1      26.532  36.293  48.249  1.00  0.00     0.001 A 
HETATM   34  C   UNL     1      27.099  36.208  46.981  1.00  0.00     0.000 A 
HETATM   35  C   UNL     1      28.241  36.945  46.676  1.00  0.00     0.001 A 
HETATM   36  C   UNL     1      28.823  37.766  47.643  1.00  0.00     0.009 A 
ENDBRANCH  30  31
ENDBRANCH  21  30
ENDBRANCH  20  21
ENDBRANCH  17  20
ENDBRANCH  16  17
ENDBRANCH  14  16
BRANCH  13  37
HETATM   37  C   UNL     1      25.095  45.741  51.802  1.00  0.00     0.203 C 
BRANCH  37  38
HETATM   38  C   UNL     1      25.153  46.852  50.805  1.00  0.00     0.070 A 
HETATM   39  O   UNL     1      26.392  47.342  50.489  1.00  0.00    -0.325 OA
HETATM   40  C   UNL     1      26.205  48.315  49.560  1.00  0.00     0.142 A 
HETATM   41  C   UNL     1      24.869  48.460  49.274  1.00  0.00     0.027 A 
HETATM   42  C   UNL     1      24.186  47.515  50.078  1.00  0.00     0.036 A 
ENDBRANCH  37  38
ENDBRANCH  13  37
TORSDOF 11
ENDMDL
MODEL 4
REMARK VINA RESULT:      -8.1      2.945      7.834
REMARK  11 active torsions:
REMARK  status: ('A' for Active; 'I' for Inactive)
REMARK    1  A    between atoms: N_13  and  C_14 
REMARK    2  A    between atoms: C_14  and  C_15 
REMARK    3  A    between atoms: N_20  and  C_21 
REMARK    4  A    between atoms: C_21  and  C_22 
REMARK    5  A    between atoms: C_22  and  O_23 
REMARK    6  A    between atoms: C_22  and  C_24 
REMARK    7  A    between atoms: C_24  and  N_25 
REMARK    8  A    between atoms: N_25  and  C_27 
REMARK    9  A    between atoms: N_25  and  C_34 
REMARK   10  A    between atoms: C_27  and  C_28 
REMARK   11  A    between atoms: C_34  and  C_35 
ROOT
HETATM    1  C   UNL     1      27.484  38.195  48.038  1.00  0.00     0.163 C 
HETATM    2  N   UNL     1      27.350  39.258  49.020  1.00  0.00    -0.285 N 
HETATM    3  C   UNL     1      28.273  39.379  50.063  1.00  0.00     0.332 A 
HETATM    4  O   UNL     1      29.213  38.593  50.192  1.00  0.00    -0.246 OA
HETATM    5  N   UNL     1      28.066  40.432  50.981  1.00  0.00    -0.269 N 
HETATM    6  C   UNL     1      29.004  40.561  52.080  1.00  0.00     0.164 C 
HETATM    7  C   UNL     1      26.960  41.281  50.999  1.00  0.00     0.282 A 
HETATM    8  O   UNL     1      26.700  42.080  51.896  1.00  0.00    -0.265 OA
HETATM    9  C   UNL     1      26.099  41.098  49.885  1.00  0.00     0.166 A 
HETATM   10  C   UNL     1      26.287  40.125  48.955  1.00  0.00     0.186 A 
HETATM   11  N   UNL     1      25.281  40.105  48.042  1.00  0.00    -0.044 NA
HETATM   12  C   UNL     1      24.470  41.079  48.392  1.00  0.00     0.705 A 
HETATM   13  N   UNL     1      23.296  41.412  47.815  1.00  0.00    -0.218 N 
HETATM   14  N   UNL     1      24.937  41.724  49.519  1.00  0.00    -0.170 N 
HETATM   15  H   UNL     1      22.994  42.382  47.796  1.00  0.00     0.178 HD
ENDROOT
BRANCH  14  16
HETATM   16  C   UNL     1      24.273  42.770  50.281  1.00  0.00     0.181 C 
BRANCH  16  17
HETATM   17  C   UNL     1      24.587  44.153  49.699  1.00  0.00     0.163 C 
BRANCH  17  18
HETATM   18  O   UNL     1      24.589  44.118  48.269  1.00  0.00    -0.392 OA
HETATM   19  H   UNL     1      25.516  44.218  47.959  1.00  0.00     0.210 HD
ENDBRANCH  17  18
BRANCH  17  20
HETATM   20  C   UNL     1      25.923  44.730  50.217  1.00  0.00     0.268 C 
BRANCH  20  21
HETATM   21  N   UNL     1      25.812  45.972  51.108  1.00  0.00    -0.061 N 
HETATM   22  H   UNL     1      26.719  46.443  51.145  1.00  0.00     0.280 HD
BRANCH  21  23
HETATM   23  C   UNL     1      24.811  46.989  50.573  1.00  0.00     0.273 C 
BRANCH  23  24
HETATM   24  C   UNL     1      25.402  48.082  49.722  1.00  0.00    -0.033 A 
HETATM   25  C   UNL     1      26.790  48.288  49.678  1.00  0.00     0.009 A 
HETATM   26  C   UNL     1      27.326  49.314  48.898  1.00  0.00     0.001 A 
HETATM   27  C   UNL     1      26.484  50.138  48.154  1.00  0.00     0.000 A 
HETATM   28  C   UNL     1      25.106  49.938  48.183  1.00  0.00     0.001 A 
HETATM   29  C   UNL     1      24.565  48.916  48.963  1.00  0.00     0.009 A 
ENDBRANCH  23  24
ENDBRANCH  21  23
BRANCH  21  30
HETATM   30  C   UNL     1      25.506  45.564  52.546  1.00  0.00     0.273 C 
BRANCH  30  31
HETATM   31  C   UNL     1      26.617  45.899  53.507  1.00  0.00    -0.033 A 
HETATM   32  C   UNL     1      27.500  44.899  53.948  1.00  0.00     0.009 A 
HETATM   33  C   UNL     1      28.521  45.206  54.849  1.00  0.00     0.001 A 
HETATM   34  C   UNL     1      28.671  46.510  55.316  1.00  0.00     0.000 A 
HETATM   35  C   UNL     1      27.808  47.512  54.878  1.00  0.00     0.001 A 
HETATM   36  C   UNL     1      26.786  47.210  53.976  1.00  0.00     0.009 A 
ENDBRANCH  30  31
ENDBRANCH  21  30
ENDBRANCH  20  21
ENDBRANCH  17  20
ENDBRANCH  16  17
ENDBRANCH  14  16
BRANCH  13  37
HETATM   37  C   UNL     1      23.002  40.792  46.518  1.00  0.00     0.203 C 
BRANCH  37  38
HETATM   38  C   UNL     1      21.978  39.707  46.600  1.00  0.00     0.070 A 
HETATM   39  O   UNL     1      20.962  39.876  47.502  1.00  0.00    -0.325 OA
HETATM   40  C   UNL     1      20.150  38.793  47.386  1.00  0.00     0.142 A 
HETATM   41  C   UNL     1      20.627  37.931  46.428  1.00  0.00     0.027 A 
HETATM   42  C   UNL     1      21.809  38.519  45.918  1.00  0.00     0.036 A 
ENDBRANCH  37  38
ENDBRANCH  13  37
TORSDOF 11
ENDMDL
MODEL 5
REMARK VINA RESULT:      -7.9      1.943      8.396
REMARK  11 active torsions:
REMARK  status: ('A' for Active; 'I' for Inactive)
REMARK    1  A    between atoms: N_13  and  C_14 
REMARK    2  A    between atoms: C_14  and  C_15 
REMARK    3  A    between atoms: N_20  and  C_21 
REMARK    4  A    between atoms: C_21  and  C_22 
REMARK    5  A    between atoms: C_22  and  O_23 
REMARK    6  A    between atoms: C_22  and  C_24 
REMARK    7  A    between atoms: C_24  and  N_25 
REMARK    8  A    between atoms: N_25  and  C_27 
REMARK    9  A    between atoms: N_25  and  C_34 
REMARK   10  A    between atoms: C_27  and  C_28 
REMARK   11  A    between atoms: C_34  and  C_35 
ROOT
HETATM    1  C   UNL     1      29.778  43.033  52.902  1.00  0.00     0.163 C 
HETATM    2  N   UNL     1      28.459  43.631  52.779  1.00  0.00    -0.285 N 
HETATM    3  C   UNL     1      28.025  44.584  53.706  1.00  0.00     0.332 A 
HETATM    4  O   UNL     1      28.731  44.937  54.653  1.00  0.00    -0.246 OA
HETATM    5  N   UNL     1      26.728  45.110  53.523  1.00  0.00    -0.269 N 
HETATM    6  C   UNL     1      26.254  46.086  54.486  1.00  0.00     0.164 C 
HETATM    7  C   UNL     1      25.807  44.673  52.571  1.00  0.00     0.282 A 
HETATM    8  O   UNL     1      24.626  45.011  52.525  1.00  0.00    -0.265 OA
HETATM    9  C   UNL     1      26.352  43.729  51.661  1.00  0.00     0.166 A 
HETATM   10  C   UNL     1      27.611  43.231  51.776  1.00  0.00     0.186 A 
HETATM   11  N   UNL     1      27.861  42.281  50.837  1.00  0.00    -0.044 NA
HETATM   12  C   UNL     1      26.761  42.197  50.121  1.00  0.00     0.705 A 
HETATM   13  N   UNL     1      26.511  41.347  49.103  1.00  0.00    -0.218 N 
HETATM   14  N   UNL     1      25.805  43.076  50.588  1.00  0.00    -0.170 N 
HETATM   15  H   UNL     1      25.914  41.635  48.333  1.00  0.00     0.178 HD
ENDROOT
BRANCH  14  16
HETATM   16  C   UNL     1      24.425  43.203  50.145  1.00  0.00     0.181 C 
BRANCH  16  17
HETATM   17  C   UNL     1      24.292  44.293  49.077  1.00  0.00     0.163 C 
BRANCH  17  18
HETATM   18  O   UNL     1      25.561  44.894  48.798  1.00  0.00    -0.392 OA
HETATM   19  H   UNL     1      25.958  45.187  49.648  1.00  0.00     0.210 HD
ENDBRANCH  17  18
BRANCH  17  20
HETATM   20  C   UNL     1      23.264  45.382  49.459  1.00  0.00     0.268 C 
BRANCH  20  21
HETATM   21  N   UNL     1      23.427  46.731  48.749  1.00  0.00    -0.061 N 
HETATM   22  H   UNL     1      24.199  46.669  48.081  1.00  0.00     0.280 HD
BRANCH  21  23
HETATM   23  C   UNL     1      22.189  47.128  47.954  1.00  0.00     0.273 C 
BRANCH  23  24
HETATM   24  C   UNL     1      21.586  48.456  48.330  1.00  0.00    -0.033 A 
HETATM   25  C   UNL     1      22.042  49.645  47.740  1.00  0.00     0.009 A 
HETATM   26  C   UNL     1      21.486  50.872  48.107  1.00  0.00     0.001 A 
HETATM   27  C   UNL     1      20.471  50.921  49.059  1.00  0.00     0.000 A 
HETATM   28  C   UNL     1      20.004  49.748  49.644  1.00  0.00     0.001 A 
HETATM   29  C   UNL     1      20.557  48.519  49.283  1.00  0.00     0.009 A 
ENDBRANCH  23  24
ENDBRANCH  21  23
BRANCH  21  30
HETATM   30  C   UNL     1      23.838  47.807  49.750  1.00  0.00     0.273 C 
BRANCH  30  31
HETATM   31  C   UNL     1      25.199  48.390  49.467  1.00  0.00    -0.033 A 
HETATM   32  C   UNL     1      25.334  49.493  48.608  1.00  0.00     0.009 A 
HETATM   33  C   UNL     1      26.595  50.025  48.334  1.00  0.00     0.001 A 
HETATM   34  C   UNL     1      27.730  49.464  48.915  1.00  0.00     0.000 A 
HETATM   35  C   UNL     1      27.608  48.376  49.776  1.00  0.00     0.001 A 
HETATM   36  C   UNL     1      26.349  47.841  50.054  1.00  0.00     0.009 A 
ENDBRANCH  30  31
ENDBRANCH  21  30
ENDBRANCH  20  21
ENDBRANCH  17  20
ENDBRANCH  16  17
ENDBRANCH  14  16
BRANCH  13  37
HETATM   37  C   UNL     1      27.659  40.603  48.571  1.00  0.00     0.203 C 
BRANCH  37  38
HETATM   38  C   UNL     1      27.738  39.198  49.072  1.00  0.00     0.070 A 
HETATM   39  O   UNL     1      26.600  38.442  48.987  1.00  0.00    -0.325 OA
HETATM   40  C   UNL     1      26.909  37.211  49.472  1.00  0.00     0.142 A 
HETATM   41  C   UNL     1      28.224  37.164  49.868  1.00  0.00     0.027 A 
HETATM   42  C   UNL     1      28.763  38.448  49.610  1.00  0.00     0.036 A 
ENDBRANCH  37  38
ENDBRANCH  13  37
TORSDOF 11
ENDMDL
MODEL 6
REMARK VINA RESULT:      -7.9      2.606      8.764
REMARK  11 active torsions:
REMARK  status: ('A' for Active; 'I' for Inactive)
REMARK    1  A    between atoms: N_13  and  C_14 
REMARK    2  A    between atoms: C_14  and  C_15 
REMARK    3  A    between atoms: N_20  and  C_21 
REMARK    4  A    between atoms: C_21  and  C_22 
REMARK    5  A    between atoms: C_22  and  O_23 
REMARK    6  A    between atoms: C_22  and  C_24 
REMARK    7  A    between atoms: C_24  and  N_25 
REMARK    8  A    between atoms: N_25  and  C_27 
REMARK    9  A    between atoms: N_25  and  C_34 
REMARK   10  A    between atoms: C_27  and  C_28 
REMARK   11  A    between atoms: C_34  and  C_35 
ROOT
HETATM    1  C   UNL     1      29.241  43.809  54.645  1.00  0.00     0.163 C 
HETATM    2  N   UNL     1      28.269  44.829  54.286  1.00  0.00    -0.285 N 
HETATM    3  C   UNL     1      28.181  46.014  55.023  1.00  0.00     0.332 A 
HETATM    4  O   UNL     1      28.905  46.227  55.997  1.00  0.00    -0.246 OA
HETATM    5  N   UNL     1      27.204  46.949  54.617  1.00  0.00    -0.269 N 
HETATM    6  C   UNL     1      27.086  48.175  55.383  1.00  0.00     0.164 C 
HETATM    7  C   UNL     1      26.250  46.738  53.622  1.00  0.00     0.282 A 
HETATM    8  O   UNL     1      25.299  47.481  53.389  1.00  0.00    -0.265 OA
HETATM    9  C   UNL     1      26.443  45.522  52.914  1.00  0.00     0.166 A 
HETATM   10  C   UNL     1      27.399  44.615  53.245  1.00  0.00     0.186 A 
HETATM   11  N   UNL     1      27.321  43.501  52.472  1.00  0.00    -0.044 NA
HETATM   12  C   UNL     1      26.323  43.719  51.643  1.00  0.00     0.705 A 
HETATM   13  N   UNL     1      25.828  42.869  50.719  1.00  0.00    -0.218 N 
HETATM   14  N   UNL     1      25.756  44.955  51.873  1.00  0.00    -0.170 N 
HETATM   15  H   UNL     1      25.442  43.227  49.850  1.00  0.00     0.178 HD
ENDROOT
BRANCH  14  16
HETATM   16  C   UNL     1      24.565  45.514  51.252  1.00  0.00     0.181 C 
BRANCH  16  17
HETATM   17  C   UNL     1      24.926  46.289  49.980  1.00  0.00     0.163 C 
BRANCH  17  18
HETATM   18  O   UNL     1      26.337  46.258  49.745  1.00  0.00    -0.392 OA
HETATM   19  H   UNL     1      26.776  45.905  50.549  1.00  0.00     0.210 HD
ENDBRANCH  17  18
BRANCH  17  20
HETATM   20  C   UNL     1      24.426  47.751  50.008  1.00  0.00     0.268 C 
BRANCH  20  21
HETATM   21  N   UNL     1      23.037  47.991  49.406  1.00  0.00    -0.061 N 
HETATM   22  H   UNL     1      22.360  48.124  50.161  1.00  0.00     0.280 HD
BRANCH  21  23
HETATM   23  C   UNL     1      22.982  49.245  48.542  1.00  0.00     0.273 C 
BRANCH  23  24
HETATM   24  C   UNL     1      21.741  50.083  48.707  1.00  0.00    -0.033 A 
HETATM   25  C   UNL     1      21.309  50.486  49.981  1.00  0.00     0.009 A 
HETATM   26  C   UNL     1      20.149  51.248  50.123  1.00  0.00     0.001 A 
HETATM   27  C   UNL     1      19.414  51.618  48.999  1.00  0.00     0.000 A 
HETATM   28  C   UNL     1      19.837  51.232  47.730  1.00  0.00     0.001 A 
HETATM   29  C   UNL     1      20.994  50.468  47.582  1.00  0.00     0.009 A 
ENDBRANCH  23  24
ENDBRANCH  21  23
BRANCH  21  30
HETATM   30  C   UNL     1      22.568  46.751  48.650  1.00  0.00     0.273 C 
BRANCH  30  31
HETATM   31  C   UNL     1      21.183  46.897  48.072  1.00  0.00    -0.033 A 
HETATM   32  C   UNL     1      20.988  46.868  46.682  1.00  0.00     0.009 A 
HETATM   33  C   UNL     1      19.708  47.018  46.145  1.00  0.00     0.001 A 
HETATM   34  C   UNL     1      18.615  47.196  46.988  1.00  0.00     0.000 A 
HETATM   35  C   UNL     1      18.795  47.217  48.370  1.00  0.00     0.001 A 
HETATM   36  C   UNL     1      20.072  47.067  48.911  1.00  0.00     0.009 A 
ENDBRANCH  30  31
ENDBRANCH  21  30
ENDBRANCH  20  21
ENDBRANCH  17  20
ENDBRANCH  16  17
ENDBRANCH  14  16
BRANCH  13  37
HETATM   37  C   UNL     1      26.629  41.673  50.430  1.00  0.00     0.203 C 
BRANCH  37  38
HETATM   38  C   UNL     1      26.687  41.335  48.976  1.00  0.00     0.070 A 
HETATM   39  O   UNL     1      27.924  41.313  48.391  1.00  0.00    -0.325 OA
HETATM   40  C   UNL     1      27.738  40.965  47.091  1.00  0.00     0.142 A 
HETATM   41  C   UNL     1      26.404  40.763  46.831  1.00  0.00     0.027 A 
HETATM   42  C   UNL     1      25.722  41.002  48.048  1.00  0.00     0.036 A 
ENDBRANCH  37  38
ENDBRANCH  13  37
TORSDOF 11
ENDMDL
MODEL 7
REMARK VINA RESULT:      -7.8      3.556      8.281
REMARK  11 active torsions:
REMARK  status: ('A' for Active; 'I' for Inactive)
REMARK    1  A    between atoms: N_13  and  C_14 
REMARK    2  A    between atoms: C_14  and  C_15 
REMARK    3  A    between atoms: N_20  and  C_21 
REMARK    4  A    between atoms: C_21  and  C_22 
REMARK    5  A    between atoms: C_22  and  O_23 
REMARK    6  A    between atoms: C_22  and  C_24 
REMARK    7  A    between atoms: C_24  and  N_25 
REMARK    8  A    between atoms: N_25  and  C_27 
REMARK    9  A    between atoms: N_25  and  C_34 
REMARK   10  A    between atoms: C_27  and  C_28 
REMARK   11  A    between atoms: C_34  and  C_35 
ROOT
HETATM    1  C   UNL     1      27.118  44.374  52.615  1.00  0.00     0.163 C 
HETATM    2  N   UNL     1      26.465  43.586  51.582  1.00  0.00    -0.285 N 
HETATM    3  C   UNL     1      26.712  42.213  51.477  1.00  0.00     0.332 A 
HETATM    4  O   UNL     1      27.489  41.633  52.238  1.00  0.00    -0.246 OA
HETATM    5  N   UNL     1      26.047  41.522  50.441  1.00  0.00    -0.269 N 
HETATM    6  C   UNL     1      26.306  40.101  50.306  1.00  0.00     0.164 C 
HETATM    7  C   UNL     1      25.264  42.112  49.450  1.00  0.00     0.282 A 
HETATM    8  O   UNL     1      24.831  41.533  48.456  1.00  0.00    -0.265 OA
HETATM    9  C   UNL     1      25.051  43.500  49.662  1.00  0.00     0.166 A 
HETATM   10  C   UNL     1      25.636  44.194  50.673  1.00  0.00     0.186 A 
HETATM   11  N   UNL     1      25.341  45.518  50.606  1.00  0.00    -0.044 NA
HETATM   12  C   UNL     1      24.554  45.651  49.560  1.00  0.00     0.705 A 
HETATM   13  N   UNL     1      24.047  46.797  49.060  1.00  0.00    -0.218 N 
HETATM   14  N   UNL     1      24.342  44.432  48.951  1.00  0.00    -0.170 N 
HETATM   15  H   UNL     1      23.133  46.799  48.615  1.00  0.00     0.178 HD
ENDROOT
BRANCH  14  16
HETATM   16  C   UNL     1      23.632  44.174  47.707  1.00  0.00     0.181 C 
BRANCH  16  17
HETATM   17  C   UNL     1      22.157  43.855  47.976  1.00  0.00     0.163 C 
BRANCH  17  18
HETATM   18  O   UNL     1      21.971  42.456  48.210  1.00  0.00    -0.392 OA
HETATM   19  H   UNL     1      22.090  41.982  47.358  1.00  0.00     0.210 HD
ENDBRANCH  17  18
BRANCH  17  20
HETATM   20  C   UNL     1      21.226  44.330  46.838  1.00  0.00     0.268 C 
BRANCH  20  21
HETATM   21  N   UNL     1      20.348  45.545  47.159  1.00  0.00    -0.061 N 
HETATM   22  H   UNL     1      20.069  45.509  48.142  1.00  0.00     0.280 HD
BRANCH  21  23
HETATM   23  C   UNL     1      21.081  46.866  46.959  1.00  0.00     0.273 C 
BRANCH  23  24
HETATM   24  C   UNL     1      20.486  48.045  47.684  1.00  0.00    -0.033 A 
HETATM   25  C   UNL     1      20.341  48.030  49.080  1.00  0.00     0.009 A 
HETATM   26  C   UNL     1      19.773  49.122  49.741  1.00  0.00     0.001 A 
HETATM   27  C   UNL     1      19.353  50.235  49.016  1.00  0.00     0.000 A 
HETATM   28  C   UNL     1      19.501  50.264  47.632  1.00  0.00     0.001 A 
HETATM   29  C   UNL     1      20.064  49.175  46.967  1.00  0.00     0.009 A 
ENDBRANCH  23  24
ENDBRANCH  21  23
BRANCH  21  30
HETATM   30  C   UNL     1      19.049  45.482  46.362  1.00  0.00     0.273 C 
BRANCH  30  31
HETATM   31  C   UNL     1      17.958  46.348  46.937  1.00  0.00    -0.033 A 
HETATM   32  C   UNL     1      17.283  47.273  46.124  1.00  0.00     0.009 A 
HETATM   33  C   UNL     1      16.282  48.086  46.660  1.00  0.00     0.001 A 
HETATM   34  C   UNL     1      15.945  47.982  48.007  1.00  0.00     0.000 A 
HETATM   35  C   UNL     1      16.601  47.061  48.821  1.00  0.00     0.001 A 
HETATM   36  C   UNL     1      17.602  46.245  48.290  1.00  0.00     0.009 A 
ENDBRANCH  30  31
ENDBRANCH  21  30
ENDBRANCH  20  21
ENDBRANCH  17  20
ENDBRANCH  16  17
ENDBRANCH  14  16
BRANCH  13  37
HETATM   37  C   UNL     1      24.176  47.995  49.898  1.00  0.00     0.203 C 
BRANCH  37  38
HETATM   38  C   UNL     1      23.750  49.249  49.208  1.00  0.00     0.070 A 
HETATM   39  O   UNL     1      23.037  50.155  49.947  1.00  0.00    -0.325 OA
HETATM   40  C   UNL     1      22.781  51.212  49.133  1.00  0.00     0.142 A 
HETATM   41  C   UNL     1      23.316  51.001  47.884  1.00  0.00     0.027 A 
HETATM   42  C   UNL     1      23.943  49.732  47.930  1.00  0.00     0.036 A 
ENDBRANCH  37  38
ENDBRANCH  13  37
TORSDOF 11
ENDMDL
MODEL 8
REMARK VINA RESULT:      -7.7      2.580      8.131
REMARK  11 active torsions:
REMARK  status: ('A' for Active; 'I' for Inactive)
REMARK    1  A    between atoms: N_13  and  C_14 
REMARK    2  A    between atoms: C_14  and  C_15 
REMARK    3  A    between atoms: N_20  and  C_21 
REMARK    4  A    between atoms: C_21  and  C_22 
REMARK    5  A    between atoms: C_22  and  O_23 
REMARK    6  A    between atoms: C_22  and  C_24 
REMARK    7  A    between atoms: C_24  and  N_25 
REMARK    8  A    between atoms: N_25  and  C_27 
REMARK    9  A    between atoms: N_25  and  C_34 
REMARK   10  A    between atoms: C_27  and  C_28 
REMARK   11  A    between atoms: C_34  and  C_35 
ROOT
HETATM    1  C   UNL     1      29.953  43.748  54.977  1.00  0.00     0.163 C 
HETATM    2  N   UNL     1      28.813  44.422  54.378  1.00  0.00    -0.285 N 
HETATM    3  C   UNL     1      28.393  45.666  54.858  1.00  0.00     0.332 A 
HETATM    4  O   UNL     1      28.960  46.222  55.801  1.00  0.00    -0.246 OA
HETATM    5  N   UNL     1      27.272  46.249  54.229  1.00  0.00    -0.269 N 
HETATM    6  C   UNL     1      26.811  47.531  54.728  1.00  0.00     0.164 C 
HETATM    7  C   UNL     1      26.483  45.636  53.256  1.00  0.00     0.282 A 
HETATM    8  O   UNL     1      25.414  46.075  52.837  1.00  0.00    -0.265 OA
HETATM    9  C   UNL     1      27.009  44.393  52.815  1.00  0.00     0.166 A 
HETATM   10  C   UNL     1      28.111  43.818  53.363  1.00  0.00     0.186 A 
HETATM   11  N   UNL     1      28.356  42.594  52.827  1.00  0.00    -0.044 NA
HETATM   12  C   UNL     1      27.414  42.410  51.928  1.00  0.00     0.705 A 
HETATM   13  N   UNL     1      27.210  41.311  51.172  1.00  0.00    -0.218 N 
HETATM   14  N   UNL     1      26.564  43.496  51.880  1.00  0.00    -0.170 N 
HETATM   15  H   UNL     1      26.832  41.400  50.233  1.00  0.00     0.178 HD
ENDROOT
BRANCH  14  16
HETATM   16  C   UNL     1      25.339  43.630  51.107  1.00  0.00     0.181 C 
BRANCH  16  17
HETATM   17  C   UNL     1      25.642  44.103  49.681  1.00  0.00     0.163 C 
BRANCH  17  18
HETATM   18  O   UNL     1      26.919  43.625  49.244  1.00  0.00    -0.392 OA
HETATM   19  H   UNL     1      27.472  44.400  49.003  1.00  0.00     0.210 HD
ENDBRANCH  17  18
BRANCH  17  20
HETATM   20  C   UNL     1      25.574  45.639  49.534  1.00  0.00     0.268 C 
BRANCH  20  21
HETATM   21  N   UNL     1      24.227  46.204  49.067  1.00  0.00    -0.061 N 
HETATM   22  H   UNL     1      24.341  46.628  48.144  1.00  0.00     0.280 HD
BRANCH  21  23
HETATM   23  C   UNL     1      23.157  45.128  48.927  1.00  0.00     0.273 C 
BRANCH  23  24
HETATM   24  C   UNL     1      21.934  45.539  48.151  1.00  0.00    -0.033 A 
HETATM   25  C   UNL     1      20.652  45.407  48.707  1.00  0.00     0.009 A 
HETATM   26  C   UNL     1      19.523  45.776  47.973  1.00  0.00     0.001 A 
HETATM   27  C   UNL     1      19.665  46.282  46.683  1.00  0.00     0.000 A 
HETATM   28  C   UNL     1      20.932  46.426  46.124  1.00  0.00     0.001 A 
HETATM   29  C   UNL     1      22.063  46.057  46.852  1.00  0.00     0.009 A 
ENDBRANCH  23  24
ENDBRANCH  21  23
BRANCH  21  30
HETATM   30  C   UNL     1      23.785  47.340  49.986  1.00  0.00     0.273 C 
BRANCH  30  31
HETATM   31  C   UNL     1      23.315  48.560  49.237  1.00  0.00    -0.033 A 
HETATM   32  C   UNL     1      21.950  48.889  49.202  1.00  0.00     0.009 A 
HETATM   33  C   UNL     1      21.512  50.011  48.496  1.00  0.00     0.001 A 
HETATM   34  C   UNL     1      22.429  50.813  47.822  1.00  0.00     0.000 A 
HETATM   35  C   UNL     1      23.787  50.501  47.857  1.00  0.00     0.001 A 
HETATM   36  C   UNL     1      24.230  49.381  48.562  1.00  0.00     0.009 A 
ENDBRANCH  30  31
ENDBRANCH  21  30
ENDBRANCH  20  21
ENDBRANCH  17  20
ENDBRANCH  16  17
ENDBRANCH  14  16
BRANCH  13  37
HETATM   37  C   UNL     1      28.282  40.309  51.165  1.00  0.00     0.203 C 
BRANCH  37  38
HETATM   38  C   UNL     1      28.350  39.523  49.897  1.00  0.00     0.070 A 
HETATM   39  O   UNL     1      27.793  38.272  49.909  1.00  0.00    -0.325 OA
HETATM   40  C   UNL     1      27.949  37.761  48.660  1.00  0.00     0.142 A 
HETATM   41  C   UNL     1      28.596  38.660  47.847  1.00  0.00     0.027 A 
HETATM   42  C   UNL     1      28.856  39.800  48.644  1.00  0.00     0.036 A 
ENDBRANCH  37  38
ENDBRANCH  13  37
TORSDOF 11
ENDMDL
MODEL 9
REMARK VINA RESULT:      -7.7      3.481      7.122
REMARK  11 active torsions:
REMARK  status: ('A' for Active; 'I' for Inactive)
REMARK    1  A    between atoms: N_13  and  C_14 
REMARK    2  A    between atoms: C_14  and  C_15 
REMARK    3  A    between atoms: N_20  and  C_21 
REMARK    4  A    between atoms: C_21  and  C_22 
REMARK    5  A    between atoms: C_22  and  O_23 
REMARK    6  A    between atoms: C_22  and  C_24 
REMARK    7  A    between atoms: C_24  and  N_25 
REMARK    8  A    between atoms: N_25  and  C_27 
REMARK    9  A    between atoms: N_25  and  C_34 
REMARK   10  A    between atoms: C_27  and  C_28 
REMARK   11  A    between atoms: C_34  and  C_35 
ROOT
HETATM    1  C   UNL     1      20.930  44.070  44.265  1.00  0.00     0.163 C 
HETATM    2  N   UNL     1      21.605  43.346  45.331  1.00  0.00    -0.285 N 
HETATM    3  C   UNL     1      22.041  42.033  45.129  1.00  0.00     0.332 A 
HETATM    4  O   UNL     1      21.861  41.447  44.060  1.00  0.00    -0.246 OA
HETATM    5  N   UNL     1      22.678  41.396  46.217  1.00  0.00    -0.269 N 
HETATM    6  C   UNL     1      23.120  40.027  46.031  1.00  0.00     0.164 C 
HETATM    7  C   UNL     1      22.800  41.924  47.502  1.00  0.00     0.282 A 
HETATM    8  O   UNL     1      23.199  41.302  48.484  1.00  0.00    -0.265 OA
HETATM    9  C   UNL     1      22.356  43.269  47.595  1.00  0.00     0.166 A 
HETATM   10  C   UNL     1      21.778  43.933  46.560  1.00  0.00     0.186 A 
HETATM   11  N   UNL     1      21.363  45.173  46.930  1.00  0.00    -0.044 NA
HETATM   12  C   UNL     1      21.698  45.292  48.196  1.00  0.00     0.705 A 
HETATM   13  N   UNL     1      21.442  46.334  49.015  1.00  0.00    -0.218 N 
HETATM   14  N   UNL     1      22.319  44.146  48.648  1.00  0.00    -0.170 N 
HETATM   15  H   UNL     1      22.095  46.575  49.754  1.00  0.00     0.178 HD
ENDROOT
BRANCH  14  16
HETATM   16  C   UNL     1      22.731  43.838  50.008  1.00  0.00     0.181 C 
BRANCH  16  17
HETATM   17  C   UNL     1      24.228  44.105  50.200  1.00  0.00     0.163 C 
BRANCH  17  18
HETATM   18  O   UNL     1      24.980  42.891  50.109  1.00  0.00    -0.392 OA
HETATM   19  H   UNL     1      25.124  42.687  49.159  1.00  0.00     0.210 HD
ENDBRANCH  17  18
BRANCH  17  20
HETATM   20  C   UNL     1      24.541  44.824  51.531  1.00  0.00     0.268 C 
BRANCH  20  21
HETATM   21  N   UNL     1      25.194  46.205  51.405  1.00  0.00    -0.061 N 
HETATM   22  H   UNL     1      26.160  46.094  51.089  1.00  0.00     0.280 HD
BRANCH  21  23
HETATM   23  C   UNL     1      24.497  47.092  50.381  1.00  0.00     0.273 C 
BRANCH  23  24
HETATM   24  C   UNL     1      25.383  48.099  49.696  1.00  0.00    -0.033 A 
HETATM   25  C   UNL     1      24.833  49.122  48.908  1.00  0.00     0.009 A 
HETATM   26  C   UNL     1      25.664  50.041  48.265  1.00  0.00     0.001 A 
HETATM   27  C   UNL     1      27.047  49.948  48.406  1.00  0.00     0.000 A 
HETATM   28  C   UNL     1      27.604  48.944  49.192  1.00  0.00     0.001 A 
HETATM   29  C   UNL     1      26.778  48.021  49.835  1.00  0.00     0.009 A 
ENDBRANCH  23  24
ENDBRANCH  21  23
BRANCH  21  30
HETATM   30  C   UNL     1      25.286  46.872  52.775  1.00  0.00     0.273 C 
BRANCH  30  31
HETATM   31  C   UNL     1      26.499  46.445  53.561  1.00  0.00    -0.033 A 
HETATM   32  C   UNL     1      27.187  47.371  54.362  1.00  0.00     0.009 A 
HETATM   33  C   UNL     1      28.320  46.980  55.080  1.00  0.00     0.001 A 
HETATM   34  C   UNL     1      28.773  45.665  55.006  1.00  0.00     0.000 A 
HETATM   35  C   UNL     1      28.093  44.736  54.222  1.00  0.00     0.001 A 
HETATM   36  C   UNL     1      26.959  45.121  53.504  1.00  0.00     0.009 A 
ENDBRANCH  30  31
ENDBRANCH  21  30
ENDBRANCH  20  21
ENDBRANCH  17  20
ENDBRANCH  16  17
ENDBRANCH  14  16
BRANCH  13  37
HETATM   37  C   UNL     1      20.957  47.565  48.380  1.00  0.00     0.203 C 
BRANCH  37  38
HETATM   38  C   UNL     1      20.174  48.439  49.304  1.00  0.00     0.070 A 
HETATM   39  O   UNL     1      20.607  49.729  49.458  1.00  0.00    -0.325 OA
HETATM   40  C   UNL     1      19.742  50.334  50.313  1.00  0.00     0.142 A 
HETATM   41  C   UNL     1      18.762  49.457  50.711  1.00  0.00     0.027 A 
HETATM   42  C   UNL     1      19.039  48.231  50.060  1.00  0.00     0.036 A 
ENDBRANCH  37  38
ENDBRANCH  13  37
TORSDOF 11
ENDMDL
MODEL 10
REMARK VINA RESULT:      -7.7      2.778      8.634
REMARK  11 active torsions:
REMARK  status: ('A' for Active; 'I' for Inactive)
REMARK    1  A    between atoms: N_13  and  C_14 
REMARK    2  A    between atoms: C_14  and  C_15 
REMARK    3  A    between atoms: N_20  and  C_21 
REMARK    4  A    between atoms: C_21  and  C_22 
REMARK    5  A    between atoms: C_22  and  O_23 
REMARK    6  A    between atoms: C_22  and  C_24 
REMARK    7  A    between atoms: C_24  and  N_25 
REMARK    8  A    between atoms: N_25  and  C_27 
REMARK    9  A    between atoms: N_25  and  C_34 
REMARK   10  A    between atoms: C_27  and  C_28 
REMARK   11  A    between atoms: C_34  and  C_35 
ROOT
HETATM    1  C   UNL     1      27.338  42.566  52.765  1.00  0.00     0.163 C 
HETATM    2  N   UNL     1      27.019  43.982  52.856  1.00  0.00    -0.285 N 
HETATM    3  C   UNL     1      27.472  44.742  53.939  1.00  0.00     0.332 A 
HETATM    4  O   UNL     1      28.138  44.243  54.848  1.00  0.00    -0.246 OA
HETATM    5  N   UNL     1      27.112  46.106  53.958  1.00  0.00    -0.269 N 
HETATM    6  C   UNL     1      27.557  46.905  55.083  1.00  0.00     0.164 C 
HETATM    7  C   UNL     1      26.249  46.725  53.053  1.00  0.00     0.282 A 
HETATM    8  O   UNL     1      25.804  47.866  53.172  1.00  0.00    -0.265 OA
HETATM    9  C   UNL     1      25.870  45.880  51.978  1.00  0.00     0.166 A 
HETATM   10  C   UNL     1      26.232  44.573  51.898  1.00  0.00     0.186 A 
HETATM   11  N   UNL     1      25.671  43.963  50.823  1.00  0.00    -0.044 NA
HETATM   12  C   UNL     1      24.969  44.896  50.216  1.00  0.00     0.705 A 
HETATM   13  N   UNL     1      24.188  44.751  49.126  1.00  0.00    -0.218 N 
HETATM   14  N   UNL     1      25.068  46.096  50.888  1.00  0.00    -0.170 N 
HETATM   15  H   UNL     1      24.089  45.515  48.463  1.00  0.00     0.178 HD
ENDROOT
BRANCH  14  16
HETATM   16  C   UNL     1      24.352  47.331  50.607  1.00  0.00     0.181 C 
BRANCH  16  17
HETATM   17  C   UNL     1      24.939  48.035  49.379  1.00  0.00     0.163 C 
BRANCH  17  18
HETATM   18  O   UNL     1      26.365  48.118  49.469  1.00  0.00    -0.392 OA
HETATM   19  H   UNL     1      26.620  49.067  49.470  1.00  0.00     0.210 HD
ENDBRANCH  17  18
BRANCH  17  20
HETATM   20  C   UNL     1      24.341  49.442  49.154  1.00  0.00     0.268 C 
BRANCH  20  21
HETATM   21  N   UNL     1      22.811  49.511  49.076  1.00  0.00    -0.061 N 
HETATM   22  H   UNL     1      22.410  48.838  49.734  1.00  0.00     0.280 HD
BRANCH  21  23
HETATM   23  C   UNL     1      22.266  50.880  49.462  1.00  0.00     0.273 C 
BRANCH  23  24
HETATM   24  C   UNL     1      20.765  50.999  49.447  1.00  0.00    -0.033 A 
HETATM   25  C   UNL     1      19.975  50.240  50.326  1.00  0.00     0.009 A 
HETATM   26  C   UNL     1      18.583  50.346  50.293  1.00  0.00     0.001 A 
HETATM   27  C   UNL     1      17.971  51.212  49.390  1.00  0.00     0.000 A 
HETATM   28  C   UNL     1      18.743  51.977  48.521  1.00  0.00     0.001 A 
HETATM   29  C   UNL     1      20.134  51.873  48.547  1.00  0.00     0.009 A 
ENDBRANCH  23  24
ENDBRANCH  21  23
BRANCH  21  30
HETATM   30  C   UNL     1      22.333  49.069  47.696  1.00  0.00     0.273 C 
BRANCH  30  31
HETATM   31  C   UNL     1      21.264  48.008  47.751  1.00  0.00    -0.033 A 
HETATM   32  C   UNL     1      19.969  48.281  47.280  1.00  0.00     0.009 A 
HETATM   33  C   UNL     1      18.974  47.303  47.343  1.00  0.00     0.001 A 
HETATM   34  C   UNL     1      19.262  46.049  47.874  1.00  0.00     0.000 A 
HETATM   35  C   UNL     1      20.545  45.764  48.336  1.00  0.00     0.001 A 
HETATM   36  C   UNL     1      21.544  46.737  48.273  1.00  0.00     0.009 A 
ENDBRANCH  30  31
ENDBRANCH  21  30
ENDBRANCH  20  21
ENDBRANCH  17  20
ENDBRANCH  16  17
ENDBRANCH  14  16
BRANCH  13  37
HETATM   37  C   UNL     1      24.316  43.489  48.387  1.00  0.00     0.203 C 
BRANCH  37  38
HETATM   38  C   UNL     1      23.279  43.316  47.326  1.00  0.00     0.070 A 
HETATM   39  O   UNL     1      23.416  44.074  46.193  1.00  0.00    -0.325 OA
HETATM   40  C   UNL     1      22.388  43.737  45.370  1.00  0.00     0.142 A 
HETATM   41  C   UNL     1      21.595  42.779  45.953  1.00  0.00     0.027 A 
HETATM   42  C   UNL     1      22.169  42.504  47.218  1.00  0.00     0.036 A 
ENDBRANCH  37  38
ENDBRANCH  13  37
TORSDOF 11
ENDMDL
