MODEL 1
REMARK VINA RESULT:      -7.6      0.000      0.000
REMARK  6 active torsions:
REMARK  status: ('A' for Active; 'I' for Inactive)
REMARK    1  A    between atoms: C_8  and  N_9 
REMARK       I    between atoms: N_9  and  C_10 
REMARK    2  A    between atoms: C_10  and  C_11 
REMARK    3  A    between atoms: C_11  and  N_12 
REMARK    4  A    between atoms: N_12  and  C_13 
REMARK    5  A    between atoms: C_13  and  C_14 
REMARK    6  A    between atoms: C_13  and  C_17 
ROOT
HETATM    1  C   UNL     1      27.418  43.396  51.537  1.00  0.00     0.372 C 
ENDROOT
BRANCH   1   2
HETATM    2  C   UNL     1      26.534  43.919  50.401  1.00  0.00     0.250 C 
HETATM    3  N   UNL     1      25.414  44.565  50.883  1.00  0.00    -0.322 N 
HETATM    4  H   UNL     1      25.267  44.480  51.883  1.00  0.00     0.169 HD
HETATM    5  O   UNL     1      26.869  43.781  49.230  1.00  0.00    -0.271 OA
BRANCH   3   6
HETATM    6  C   UNL     1      24.461  45.265  50.163  1.00  0.00     0.085 A 
HETATM    7  C   UNL     1      23.286  44.665  49.748  1.00  0.00     0.052 A 
HETATM    8  C   UNL     1      22.746  43.295  49.915  1.00  0.00     0.072 C 
HETATM    9  N   UNL     1      22.587  45.631  49.085  1.00  0.00    -0.280 N 
HETATM   10  H   UNL     1      21.677  45.556  48.642  1.00  0.00     0.189 HD
HETATM   11  N   UNL     1      23.206  46.812  49.039  1.00  0.00    -0.177 NA
HETATM   12  C   UNL     1      24.357  46.611  49.701  1.00  0.00     0.079 A 
HETATM   13  C   UNL     1      25.287  47.759  49.842  1.00  0.00     0.075 C 
ENDBRANCH   3   6
ENDBRANCH   1   2
BRANCH   1  14
HETATM   14  N   UNL     1      27.820  44.509  52.419  1.00  0.00     0.101 N 
HETATM   15  H   UNL     1      27.323  45.348  52.116  1.00  0.00     0.317 HD
BRANCH  14  16
HETATM   16  C   UNL     1      27.501  44.230  53.839  1.00  0.00     0.259 C 
BRANCH  16  17
HETATM   17  C   UNL     1      26.377  45.136  54.440  1.00  0.00     0.015 C 
HETATM   18  C   UNL     1      26.148  46.459  53.698  1.00  0.00     0.012 C 
HETATM   19  C   UNL     1      25.043  44.390  54.559  1.00  0.00     0.012 C 
ENDBRANCH  16  17
BRANCH  16  20
HETATM   20  C   UNL     1      28.766  44.278  54.701  1.00  0.00    -0.003 A 
HETATM   21  C   UNL     1      29.674  43.202  54.755  1.00  0.00     0.042 A 
HETATM   22 CL   UNL     1      29.457  41.757  53.827  1.00  0.00    -0.084 Cl
HETATM   23  C   UNL     1      30.804  43.255  55.581  1.00  0.00     0.024 A 
HETATM   24  C   UNL     1      31.046  44.374  56.374  1.00  0.00     0.002 A 
HETATM   25  C   UNL     1      30.161  45.445  56.342  1.00  0.00     0.001 A 
HETATM   26  C   UNL     1      29.036  45.398  55.515  1.00  0.00     0.011 A 
ENDBRANCH  16  20
ENDBRANCH  14  16
ENDBRANCH   1  14
TORSDOF 6
ENDMDL
MODEL 2
REMARK VINA RESULT:      -7.5      3.036      7.423
REMARK  6 active torsions:
REMARK  status: ('A' for Active; 'I' for Inactive)
REMARK    1  A    between atoms: C_8  and  N_9 
REMARK       I    between atoms: N_9  and  C_10 
REMARK    2  A    between atoms: C_10  and  C_11 
REMARK    3  A    between atoms: C_11  and  N_12 
REMARK    4  A    between atoms: N_12  and  C_13 
REMARK    5  A    between atoms: C_13  and  C_14 
REMARK    6  A    between atoms: C_13  and  C_17 
ROOT
HETATM    1  C   UNL     1      25.512  46.023  53.074  1.00  0.00     0.372 C 
ENDROOT
BRANCH   1   2
HETATM    2  C   UNL     1      26.361  45.016  53.859  1.00  0.00     0.250 C 
HETATM    3  N   UNL     1      27.710  45.214  53.647  1.00  0.00    -0.322 N 
HETATM    4  H   UNL     1      27.937  45.880  52.917  1.00  0.00     0.169 HD
HETATM    5  O   UNL     1      25.834  44.194  54.599  1.00  0.00    -0.271 OA
BRANCH   3   6
HETATM    6  C   UNL     1      28.769  44.582  54.275  1.00  0.00     0.085 A 
HETATM    7  C   UNL     1      29.259  45.030  55.489  1.00  0.00     0.052 A 
HETATM    8  C   UNL     1      28.870  46.151  56.375  1.00  0.00     0.072 C 
HETATM    9  N   UNL     1      30.279  44.183  55.815  1.00  0.00    -0.280 N 
HETATM   10  H   UNL     1      30.871  44.202  56.639  1.00  0.00     0.189 HD
HETATM   11  N   UNL     1      30.489  43.218  54.919  1.00  0.00    -0.177 NA
HETATM   12  C   UNL     1      29.569  43.441  53.967  1.00  0.00     0.079 A 
HETATM   13  C   UNL     1      29.528  42.514  52.809  1.00  0.00     0.075 C 
ENDBRANCH   3   6
ENDBRANCH   1   2
BRANCH   1  14
HETATM   14  N   UNL     1      26.278  46.542  51.925  1.00  0.00     0.101 N 
HETATM   15  H   UNL     1      27.101  45.952  51.800  1.00  0.00     0.317 HD
BRANCH  14  16
HETATM   16  C   UNL     1      25.474  46.539  50.680  1.00  0.00     0.259 C 
BRANCH  16  17
HETATM   17  C   UNL     1      25.634  45.250  49.809  1.00  0.00     0.015 C 
HETATM   18  C   UNL     1      26.952  44.492  50.014  1.00  0.00     0.012 C 
HETATM   19  C   UNL     1      24.462  44.280  49.998  1.00  0.00     0.012 C 
ENDBRANCH  16  17
BRANCH  16  20
HETATM   20  C   UNL     1      25.744  47.800  49.853  1.00  0.00    -0.003 A 
HETATM   21  C   UNL     1      24.707  48.512  49.218  1.00  0.00     0.042 A 
HETATM   22 CL   UNL     1      23.046  48.046  49.348  1.00  0.00    -0.084 Cl
HETATM   23  C   UNL     1      24.984  49.640  48.436  1.00  0.00     0.024 A 
HETATM   24  C   UNL     1      26.297  50.075  48.265  1.00  0.00     0.002 A 
HETATM   25  C   UNL     1      27.336  49.385  48.877  1.00  0.00     0.001 A 
HETATM   26  C   UNL     1      27.063  48.261  49.662  1.00  0.00     0.011 A 
ENDBRANCH  16  20
ENDBRANCH  14  16
ENDBRANCH   1  14
TORSDOF 6
ENDMDL
MODEL 3
REMARK VINA RESULT:      -7.5      3.035      7.349
REMARK  6 active torsions:
REMARK  status: ('A' for Active; 'I' for Inactive)
REMARK    1  A    between atoms: C_8  and  N_9 
REMARK       I    between atoms: N_9  and  C_10 
REMARK    2  A    between atoms: C_10  and  C_11 
REMARK    3  A    between atoms: C_11  and  N_12 
REMARK    4  A    between atoms: N_12  and  C_13 
REMARK    5  A    between atoms: C_13  and  C_14 
REMARK    6  A    between atoms: C_13  and  C_17 
ROOT
HETATM    1  C   UNL     1      25.536  46.111  53.083  1.00  0.00     0.372 C 
ENDROOT
BRANCH   1   2
HETATM    2  C   UNL     1      26.381  45.080  53.839  1.00  0.00     0.250 C 
HETATM    3  N   UNL     1      27.728  45.368  53.761  1.00  0.00    -0.322 N 
HETATM    4  H   UNL     1      27.970  46.114  53.117  1.00  0.00     0.169 HD
HETATM    5  O   UNL     1      25.849  44.161  54.453  1.00  0.00    -0.271 OA
BRANCH   3   6
HETATM    6  C   UNL     1      28.771  44.736  54.414  1.00  0.00     0.085 A 
HETATM    7  C   UNL     1      29.399  43.630  53.871  1.00  0.00     0.052 A 
HETATM    8  C   UNL     1      29.194  42.880  52.610  1.00  0.00     0.072 C 
HETATM    9  N   UNL     1      30.369  43.276  54.762  1.00  0.00    -0.280 N 
HETATM   10  H   UNL     1      31.032  42.509  54.697  1.00  0.00     0.189 HD
HETATM   11  N   UNL     1      30.432  44.063  55.837  1.00  0.00    -0.177 NA
HETATM   12  C   UNL     1      29.461  44.971  55.641  1.00  0.00     0.079 A 
HETATM   13  C   UNL     1      29.273  46.020  56.673  1.00  0.00     0.075 C 
ENDBRANCH   3   6
ENDBRANCH   1   2
BRANCH   1  14
HETATM   14  N   UNL     1      26.276  46.603  51.904  1.00  0.00     0.101 N 
HETATM   15  H   UNL     1      27.087  45.999  51.765  1.00  0.00     0.317 HD
BRANCH  14  16
HETATM   16  C   UNL     1      25.436  46.592  50.683  1.00  0.00     0.259 C 
BRANCH  16  17
HETATM   17  C   UNL     1      25.560  45.292  49.823  1.00  0.00     0.015 C 
HETATM   18  C   UNL     1      26.843  44.484  50.057  1.00  0.00     0.012 C 
HETATM   19  C   UNL     1      24.348  44.371  49.997  1.00  0.00     0.012 C 
ENDBRANCH  16  17
BRANCH  16  20
HETATM   20  C   UNL     1      25.692  47.841  49.834  1.00  0.00    -0.003 A 
HETATM   21  C   UNL     1      24.648  48.529  49.184  1.00  0.00     0.042 A 
HETATM   22 CL   UNL     1      22.992  48.044  49.319  1.00  0.00    -0.084 Cl
HETATM   23  C   UNL     1      24.913  49.646  48.382  1.00  0.00     0.024 A 
HETATM   24  C   UNL     1      26.220  50.094  48.207  1.00  0.00     0.002 A 
HETATM   25  C   UNL     1      27.267  49.428  48.833  1.00  0.00     0.001 A 
HETATM   26  C   UNL     1      27.006  48.315  49.638  1.00  0.00     0.011 A 
ENDBRANCH  16  20
ENDBRANCH  14  16
ENDBRANCH   1  14
TORSDOF 6
ENDMDL
MODEL 4
REMARK VINA RESULT:      -7.4      2.388      3.789
REMARK  6 active torsions:
REMARK  status: ('A' for Active; 'I' for Inactive)
REMARK    1  A    between atoms: C_8  and  N_9 
REMARK       I    between atoms: N_9  and  C_10 
REMARK    2  A    between atoms: C_10  and  C_11 
REMARK    3  A    between atoms: C_11  and  N_12 
REMARK    4  A    between atoms: N_12  and  C_13 
REMARK    5  A    between atoms: C_13  and  C_14 
REMARK    6  A    between atoms: C_13  and  C_17 
ROOT
HETATM    1  C   UNL     1      24.735  45.725  51.360  1.00  0.00     0.372 C 
ENDROOT
BRANCH   1   2
HETATM    2  C   UNL     1      24.487  46.479  50.049  1.00  0.00     0.250 C 
HETATM    3  N   UNL     1      24.871  47.802  50.140  1.00  0.00    -0.322 N 
HETATM    4  H   UNL     1      25.120  48.112  51.074  1.00  0.00     0.169 HD
HETATM    5  O   UNL     1      24.040  45.899  49.066  1.00  0.00    -0.271 OA
BRANCH   3   6
HETATM    6  C   UNL     1      24.909  48.747  49.131  1.00  0.00     0.085 A 
HETATM    7  C   UNL     1      26.106  49.273  48.680  1.00  0.00     0.052 A 
HETATM    8  C   UNL     1      27.515  49.033  49.067  1.00  0.00     0.072 C 
HETATM    9  N   UNL     1      25.777  50.155  47.691  1.00  0.00    -0.280 N 
HETATM   10  H   UNL     1      26.399  50.727  47.129  1.00  0.00     0.189 HD
HETATM   11  N   UNL     1      24.467  50.240  47.455  1.00  0.00    -0.177 NA
HETATM   12  C   UNL     1      23.915  49.379  48.325  1.00  0.00     0.079 A 
HETATM   13  C   UNL     1      22.439  49.227  48.310  1.00  0.00     0.075 C 
ENDBRANCH   3   6
ENDBRANCH   1   2
BRANCH   1  14
HETATM   14  N   UNL     1      26.185  45.576  51.590  1.00  0.00     0.101 N 
HETATM   15  H   UNL     1      26.645  46.432  51.278  1.00  0.00     0.317 HD
BRANCH  14  16
HETATM   16  C   UNL     1      26.495  45.341  53.020  1.00  0.00     0.259 C 
BRANCH  16  17
HETATM   17  C   UNL     1      27.049  46.593  53.776  1.00  0.00     0.015 C 
HETATM   18  C   UNL     1      25.985  47.610  54.208  1.00  0.00     0.012 C 
HETATM   19  C   UNL     1      27.892  46.199  54.995  1.00  0.00     0.012 C 
ENDBRANCH  16  17
BRANCH  16  20
HETATM   20  C   UNL     1      27.429  44.139  53.185  1.00  0.00    -0.003 A 
HETATM   21  C   UNL     1      27.222  43.164  54.181  1.00  0.00     0.042 A 
HETATM   22 CL   UNL     1      25.880  43.223  55.273  1.00  0.00    -0.084 Cl
HETATM   23  C   UNL     1      28.113  42.095  54.336  1.00  0.00     0.024 A 
HETATM   24  C   UNL     1      29.229  41.981  53.510  1.00  0.00     0.002 A 
HETATM   25  C   UNL     1      29.457  42.934  52.525  1.00  0.00     0.001 A 
HETATM   26  C   UNL     1      28.567  43.999  52.364  1.00  0.00     0.011 A 
ENDBRANCH  16  20
ENDBRANCH  14  16
ENDBRANCH   1  14
TORSDOF 6
ENDMDL
MODEL 5
REMARK VINA RESULT:      -7.2      2.291      3.524
REMARK  6 active torsions:
REMARK  status: ('A' for Active; 'I' for Inactive)
REMARK    1  A    between atoms: C_8  and  N_9 
REMARK       I    between atoms: N_9  and  C_10 
REMARK    2  A    between atoms: C_10  and  C_11 
REMARK    3  A    between atoms: C_11  and  N_12 
REMARK    4  A    between atoms: N_12  and  C_13 
REMARK    5  A    between atoms: C_13  and  C_14 
REMARK    6  A    between atoms: C_13  and  C_17 
ROOT
HETATM    1  C   UNL     1      26.652  46.768  54.860  1.00  0.00     0.372 C 
ENDROOT
BRANCH   1   2
HETATM    2  C   UNL     1      26.034  46.983  53.474  1.00  0.00     0.250 C 
HETATM    3  N   UNL     1      26.481  46.046  52.565  1.00  0.00    -0.322 N 
HETATM    4  H   UNL     1      27.238  45.456  52.895  1.00  0.00     0.169 HD
HETATM    5  O   UNL     1      25.214  47.875  53.284  1.00  0.00    -0.271 OA
BRANCH   3   6
HETATM    6  C   UNL     1      26.052  45.853  51.264  1.00  0.00     0.085 A 
HETATM    7  C   UNL     1      25.422  44.684  50.877  1.00  0.00     0.052 A 
HETATM    8  C   UNL     1      25.055  43.452  51.614  1.00  0.00     0.072 C 
HETATM    9  N   UNL     1      25.133  44.836  49.552  1.00  0.00    -0.280 N 
HETATM   10  H   UNL     1      24.669  44.180  48.932  1.00  0.00     0.189 HD
HETATM   11  N   UNL     1      25.516  46.009  49.045  1.00  0.00    -0.177 NA
HETATM   12  C   UNL     1      26.078  46.652  50.082  1.00  0.00     0.079 A 
HETATM   13  C   UNL     1      26.605  48.020  49.848  1.00  0.00     0.075 C 
ENDBRANCH   3   6
ENDBRANCH   1   2
BRANCH   1  14
HETATM   14  N   UNL     1      28.072  46.386  54.725  1.00  0.00     0.101 N 
HETATM   15  H   UNL     1      28.642  47.174  55.035  1.00  0.00     0.317 HD
BRANCH  14  16
HETATM   16  C   UNL     1      28.399  45.190  55.537  1.00  0.00     0.259 C 
BRANCH  16  17
HETATM   17  C   UNL     1      29.598  45.384  56.522  1.00  0.00     0.015 C 
HETATM   18  C   UNL     1      30.735  46.267  55.990  1.00  0.00     0.012 C 
HETATM   19  C   UNL     1      29.140  45.922  57.883  1.00  0.00     0.012 C 
ENDBRANCH  16  17
BRANCH  16  20
HETATM   20  C   UNL     1      28.615  43.967  54.641  1.00  0.00    -0.003 A 
HETATM   21  C   UNL     1      27.586  43.040  54.382  1.00  0.00     0.042 A 
HETATM   22 CL   UNL     1      25.989  43.224  55.021  1.00  0.00    -0.084 Cl
HETATM   23  C   UNL     1      27.821  41.908  53.590  1.00  0.00     0.024 A 
HETATM   24  C   UNL     1      29.083  41.675  53.050  1.00  0.00     0.002 A 
HETATM   25  C   UNL     1      30.115  42.572  53.297  1.00  0.00     0.001 A 
HETATM   26  C   UNL     1      29.884  43.704  54.082  1.00  0.00     0.011 A 
ENDBRANCH  16  20
ENDBRANCH  14  16
ENDBRANCH   1  14
TORSDOF 6
ENDMDL
MODEL 6
REMARK VINA RESULT:      -7.2      6.037     10.072
REMARK  6 active torsions:
REMARK  status: ('A' for Active; 'I' for Inactive)
REMARK    1  A    between atoms: C_8  and  N_9 
REMARK       I    between atoms: N_9  and  C_10 
REMARK    2  A    between atoms: C_10  and  C_11 
REMARK    3  A    between atoms: C_11  and  N_12 
REMARK    4  A    between atoms: N_12  and  C_13 
REMARK    5  A    between atoms: C_13  and  C_14 
REMARK    6  A    between atoms: C_13  and  C_17 
ROOT
HETATM    1  C   UNL     1      20.631  47.525  48.925  1.00  0.00     0.372 C 
ENDROOT
BRANCH   1   2
HETATM    2  C   UNL     1      22.113  47.408  48.554  1.00  0.00     0.250 C 
HETATM    3  N   UNL     1      22.930  47.609  49.647  1.00  0.00    -0.322 N 
HETATM    4  H   UNL     1      22.455  47.936  50.482  1.00  0.00     0.169 HD
HETATM    5  O   UNL     1      22.453  47.123  47.411  1.00  0.00    -0.271 OA
BRANCH   3   6
HETATM    6  C   UNL     1      24.304  47.462  49.720  1.00  0.00     0.085 A 
HETATM    7  C   UNL     1      24.881  46.320  50.245  1.00  0.00     0.052 A 
HETATM    8  C   UNL     1      24.308  45.077  50.811  1.00  0.00     0.072 C 
HETATM    9  N   UNL     1      26.230  46.507  50.154  1.00  0.00    -0.280 N 
HETATM   10  H   UNL     1      26.971  45.877  50.441  1.00  0.00     0.189 HD
HETATM   11  N   UNL     1      26.579  47.672  49.606  1.00  0.00    -0.177 NA
HETATM   12  C   UNL     1      25.411  48.272  49.327  1.00  0.00     0.079 A 
HETATM   13  C   UNL     1      25.453  49.610  48.685  1.00  0.00     0.075 C 
ENDBRANCH   3   6
ENDBRANCH   1   2
BRANCH   1  14
HETATM   14  N   UNL     1      20.392  48.782  49.661  1.00  0.00     0.101 N 
HETATM   15  H   UNL     1      21.197  48.951  50.266  1.00  0.00     0.317 HD
BRANCH  14  16
HETATM   16  C   UNL     1      20.211  49.932  48.745  1.00  0.00     0.259 C 
BRANCH  16  17
HETATM   17  C   UNL     1      21.369  50.982  48.787  1.00  0.00     0.015 C 
HETATM   18  C   UNL     1      22.191  50.985  50.083  1.00  0.00     0.012 C 
HETATM   19  C   UNL     1      22.318  50.840  47.591  1.00  0.00     0.012 C 
ENDBRANCH  16  17
BRANCH  16  20
HETATM   20  C   UNL     1      18.853  50.600  48.970  1.00  0.00    -0.003 A 
HETATM   21  C   UNL     1      17.664  50.084  48.416  1.00  0.00     0.042 A 
HETATM   22 CL   UNL     1      17.636  48.637  47.467  1.00  0.00    -0.084 Cl
HETATM   23  C   UNL     1      16.440  50.736  48.605  1.00  0.00     0.024 A 
HETATM   24  C   UNL     1      16.376  51.917  49.342  1.00  0.00     0.002 A 
HETATM   25  C   UNL     1      17.535  52.448  49.894  1.00  0.00     0.001 A 
HETATM   26  C   UNL     1      18.758  51.798  49.711  1.00  0.00     0.011 A 
ENDBRANCH  16  20
ENDBRANCH  14  16
ENDBRANCH   1  14
TORSDOF 6
ENDMDL
MODEL 7
REMARK VINA RESULT:      -7.1      2.385      3.483
REMARK  6 active torsions:
REMARK  status: ('A' for Active; 'I' for Inactive)
REMARK    1  A    between atoms: C_8  and  N_9 
REMARK       I    between atoms: N_9  and  C_10 
REMARK    2  A    between atoms: C_10  and  C_11 
REMARK    3  A    between atoms: C_11  and  N_12 
REMARK    4  A    between atoms: N_12  and  C_13 
REMARK    5  A    between atoms: C_13  and  C_14 
REMARK    6  A    between atoms: C_13  and  C_17 
ROOT
HETATM    1  C   UNL     1      25.743  44.075  53.758  1.00  0.00     0.372 C 
ENDROOT
BRANCH   1   2
HETATM    2  C   UNL     1      25.511  44.032  52.243  1.00  0.00     0.250 C 
HETATM    3  N   UNL     1      25.008  42.812  51.839  1.00  0.00    -0.322 N 
HETATM    4  H   UNL     1      24.999  42.094  52.555  1.00  0.00     0.169 HD
HETATM    5  O   UNL     1      25.727  45.018  51.547  1.00  0.00    -0.271 OA
BRANCH   3   6
HETATM    6  C   UNL     1      24.567  42.452  50.578  1.00  0.00     0.085 A 
HETATM    7  C   UNL     1      25.104  41.367  49.908  1.00  0.00     0.052 A 
HETATM    8  C   UNL     1      26.158  40.390  50.266  1.00  0.00     0.072 C 
HETATM    9  N   UNL     1      24.440  41.297  48.718  1.00  0.00    -0.280 N 
HETATM   10  H   UNL     1      24.566  40.625  47.967  1.00  0.00     0.189 HD
HETATM   11  N   UNL     1      23.511  42.241  48.559  1.00  0.00    -0.177 NA
HETATM   12  C   UNL     1      23.568  42.958  49.694  1.00  0.00     0.079 A 
HETATM   13  C   UNL     1      22.632  44.100  49.841  1.00  0.00     0.075 C 
ENDBRANCH   3   6
ENDBRANCH   1   2
BRANCH   1  14
HETATM   14  N   UNL     1      26.827  43.144  54.129  1.00  0.00     0.101 N 
HETATM   15  H   UNL     1      26.591  42.222  53.762  1.00  0.00     0.317 HD
BRANCH  14  16
HETATM   16  C   UNL     1      28.134  43.575  53.581  1.00  0.00     0.259 C 
BRANCH  16  17
HETATM   17  C   UNL     1      28.825  42.524  52.652  1.00  0.00     0.015 C 
HETATM   18  C   UNL     1      28.417  41.068  52.909  1.00  0.00     0.012 C 
HETATM   19  C   UNL     1      28.621  42.848  51.168  1.00  0.00     0.012 C 
ENDBRANCH  16  17
BRANCH  16  20
HETATM   20  C   UNL     1      29.076  44.021  54.704  1.00  0.00    -0.003 A 
HETATM   21  C   UNL     1      29.013  45.314  55.262  1.00  0.00     0.042 A 
HETATM   22 CL   UNL     1      27.849  46.488  54.753  1.00  0.00    -0.084 Cl
HETATM   23  C   UNL     1      29.911  45.709  56.261  1.00  0.00     0.024 A 
HETATM   24  C   UNL     1      30.891  44.830  56.717  1.00  0.00     0.002 A 
HETATM   25  C   UNL     1      30.976  43.553  56.177  1.00  0.00     0.001 A 
HETATM   26  C   UNL     1      30.079  43.153  55.183  1.00  0.00     0.011 A 
ENDBRANCH  16  20
ENDBRANCH  14  16
ENDBRANCH   1  14
TORSDOF 6
ENDMDL
MODEL 8
REMARK VINA RESULT:      -7.1      3.065      6.917
REMARK  6 active torsions:
REMARK  status: ('A' for Active; 'I' for Inactive)
REMARK    1  A    between atoms: C_8  and  N_9 
REMARK       I    between atoms: N_9  and  C_10 
REMARK    2  A    between atoms: C_10  and  C_11 
REMARK    3  A    between atoms: C_11  and  N_12 
REMARK    4  A    between atoms: N_12  and  C_13 
REMARK    5  A    between atoms: C_13  and  C_14 
REMARK    6  A    between atoms: C_13  and  C_17 
ROOT
HETATM    1  C   UNL     1      28.629  42.042  52.715  1.00  0.00     0.372 C 
ENDROOT
BRANCH   1   2
HETATM    2  C   UNL     1      28.524  42.766  54.061  1.00  0.00     0.250 C 
HETATM    3  N   UNL     1      29.682  43.454  54.362  1.00  0.00    -0.322 N 
HETATM    4  H   UNL     1      30.462  43.272  53.740  1.00  0.00     0.169 HD
HETATM    5  O   UNL     1      27.487  42.729  54.714  1.00  0.00    -0.271 OA
BRANCH   3   6
HETATM    6  C   UNL     1      29.908  44.312  55.423  1.00  0.00     0.085 A 
HETATM    7  C   UNL     1      29.232  45.514  55.536  1.00  0.00     0.052 A 
HETATM    8  C   UNL     1      28.206  46.170  54.694  1.00  0.00     0.072 C 
HETATM    9  N   UNL     1      29.688  46.091  56.686  1.00  0.00    -0.280 N 
HETATM   10  H   UNL     1      29.415  46.980  57.093  1.00  0.00     0.189 HD
HETATM   11  N   UNL     1      30.597  45.362  57.335  1.00  0.00    -0.177 NA
HETATM   12  C   UNL     1      30.743  44.262  56.579  1.00  0.00     0.079 A 
HETATM   13  C   UNL     1      31.696  43.223  57.042  1.00  0.00     0.075 C 
ENDBRANCH   3   6
ENDBRANCH   1   2
BRANCH   1  14
HETATM   14  N   UNL     1      28.266  42.960  51.617  1.00  0.00     0.101 N 
HETATM   15  H   UNL     1      28.606  42.558  50.743  1.00  0.00     0.317 HD
BRANCH  14  16
HETATM   16  C   UNL     1      26.801  43.164  51.532  1.00  0.00     0.259 C 
BRANCH  16  17
HETATM   17  C   UNL     1      26.076  42.230  50.507  1.00  0.00     0.015 C 
HETATM   18  C   UNL     1      26.306  40.729  50.726  1.00  0.00     0.012 C 
HETATM   19  C   UNL     1      24.569  42.504  50.450  1.00  0.00     0.012 C 
ENDBRANCH  16  17
BRANCH  16  20
HETATM   20  C   UNL     1      26.470  44.635  51.266  1.00  0.00    -0.003 A 
HETATM   21  C   UNL     1      25.693  45.399  52.160  1.00  0.00     0.042 A 
HETATM   22 CL   UNL     1      25.081  44.752  53.644  1.00  0.00    -0.084 Cl
HETATM   23  C   UNL     1      25.372  46.732  51.875  1.00  0.00     0.024 A 
HETATM   24  C   UNL     1      25.810  47.326  50.694  1.00  0.00     0.002 A 
HETATM   25  C   UNL     1      26.573  46.591  49.795  1.00  0.00     0.001 A 
HETATM   26  C   UNL     1      26.899  45.262  50.078  1.00  0.00     0.011 A 
ENDBRANCH  16  20
ENDBRANCH  14  16
ENDBRANCH   1  14
TORSDOF 6
ENDMDL
MODEL 9
REMARK VINA RESULT:      -7.0      5.951     10.064
REMARK  6 active torsions:
REMARK  status: ('A' for Active; 'I' for Inactive)
REMARK    1  A    between atoms: C_8  and  N_9 
REMARK       I    between atoms: N_9  and  C_10 
REMARK    2  A    between atoms: C_10  and  C_11 
REMARK    3  A    between atoms: C_11  and  N_12 
REMARK    4  A    between atoms: N_12  and  C_13 
REMARK    5  A    between atoms: C_13  and  C_14 
REMARK    6  A    between atoms: C_13  and  C_17 
ROOT
HETATM    1  C   UNL     1      20.090  46.410  48.478  1.00  0.00     0.372 C 
ENDROOT
BRANCH   1   2
HETATM    2  C   UNL     1      21.402  47.079  48.056  1.00  0.00     0.250 C 
HETATM    3  N   UNL     1      22.066  47.625  49.136  1.00  0.00    -0.322 N 
HETATM    4  H   UNL     1      21.540  47.631  50.004  1.00  0.00     0.169 HD
HETATM    5  O   UNL     1      21.773  47.053  46.888  1.00  0.00    -0.271 OA
BRANCH   3   6
HETATM    6  C   UNL     1      23.326  48.195  49.158  1.00  0.00     0.085 A 
HETATM    7  C   UNL     1      24.404  47.543  49.731  1.00  0.00     0.052 A 
HETATM    8  C   UNL     1      24.540  46.229  50.399  1.00  0.00     0.072 C 
HETATM    9  N   UNL     1      25.473  48.376  49.569  1.00  0.00    -0.280 N 
HETATM   10  H   UNL     1      26.433  48.229  49.864  1.00  0.00     0.189 HD
HETATM   11  N   UNL     1      25.184  49.512  48.933  1.00  0.00    -0.177 NA
HETATM   12  C   UNL     1      23.871  49.419  48.666  1.00  0.00     0.079 A 
HETATM   13  C   UNL     1      23.228  50.542  47.938  1.00  0.00     0.075 C 
ENDBRANCH   3   6
ENDBRANCH   1   2
BRANCH   1  14
HETATM   14  N   UNL     1      18.973  46.932  47.666  1.00  0.00     0.101 N 
HETATM   15  H   UNL     1      18.442  46.136  47.309  1.00  0.00     0.317 HD
BRANCH  14  16
HETATM   16  C   UNL     1      18.078  47.808  48.458  1.00  0.00     0.259 C 
BRANCH  16  17
HETATM   17  C   UNL     1      16.612  47.891  47.920  1.00  0.00     0.015 C 
HETATM   18  C   UNL     1      15.890  49.213  48.215  1.00  0.00     0.012 C 
HETATM   19  C   UNL     1      16.535  47.601  46.417  1.00  0.00     0.012 C 
ENDBRANCH  16  17
BRANCH  16  20
HETATM   20  C   UNL     1      18.685  49.205  48.619  1.00  0.00    -0.003 A 
HETATM   21  C   UNL     1      18.956  49.760  49.886  1.00  0.00     0.042 A 
HETATM   22 CL   UNL     1      18.659  48.900  51.358  1.00  0.00    -0.084 Cl
HETATM   23  C   UNL     1      19.476  51.054  50.007  1.00  0.00     0.024 A 
HETATM   24  C   UNL     1      19.728  51.822  48.873  1.00  0.00     0.002 A 
HETATM   25  C   UNL     1      19.464  51.298  47.614  1.00  0.00     0.001 A 
HETATM   26  C   UNL     1      18.950  50.005  47.488  1.00  0.00     0.011 A 
ENDBRANCH  16  20
ENDBRANCH  14  16
ENDBRANCH   1  14
TORSDOF 6
ENDMDL
MODEL 10
REMARK VINA RESULT:      -7.0      1.252      2.313
REMARK  6 active torsions:
REMARK  status: ('A' for Active; 'I' for Inactive)
REMARK    1  A    between atoms: C_8  and  N_9 
REMARK       I    between atoms: N_9  and  C_10 
REMARK    2  A    between atoms: C_10  and  C_11 
REMARK    3  A    between atoms: C_11  and  N_12 
REMARK    4  A    between atoms: N_12  and  C_13 
REMARK    5  A    between atoms: C_13  and  C_14 
REMARK    6  A    between atoms: C_13  and  C_17 
ROOT
HETATM    1  C   UNL     1      27.748  43.497  51.555  1.00  0.00     0.372 C 
ENDROOT
BRANCH   1   2
HETATM    2  C   UNL     1      26.733  43.762  50.439  1.00  0.00     0.250 C 
HETATM    3  N   UNL     1      25.515  44.170  50.944  1.00  0.00    -0.322 N 
HETATM    4  H   UNL     1      25.424  44.100  51.952  1.00  0.00     0.169 HD
HETATM    5  O   UNL     1      27.051  43.648  49.260  1.00  0.00    -0.271 OA
BRANCH   3   6
HETATM    6  C   UNL     1      24.409  44.611  50.240  1.00  0.00     0.085 A 
HETATM    7  C   UNL     1      24.172  45.959  50.038  1.00  0.00     0.052 A 
HETATM    8  C   UNL     1      24.909  47.178  50.443  1.00  0.00     0.072 C 
HETATM    9  N   UNL     1      23.019  46.031  49.310  1.00  0.00    -0.280 N 
HETATM   10  H   UNL     1      22.540  46.860  48.974  1.00  0.00     0.189 HD
HETATM   11  N   UNL     1      22.491  44.843  49.014  1.00  0.00    -0.177 NA
HETATM   12  C   UNL     1      23.331  43.956  49.571  1.00  0.00     0.079 A 
HETATM   13  C   UNL     1      23.026  42.512  49.409  1.00  0.00     0.075 C 
ENDBRANCH   3   6
ENDBRANCH   1   2
BRANCH   1  14
HETATM   14  N   UNL     1      27.748  44.617  52.516  1.00  0.00     0.101 N 
HETATM   15  H   UNL     1      27.016  45.273  52.237  1.00  0.00     0.317 HD
BRANCH  14  16
HETATM   16  C   UNL     1      27.495  44.155  53.901  1.00  0.00     0.259 C 
BRANCH  16  17
HETATM   17  C   UNL     1      26.303  44.872  54.616  1.00  0.00     0.015 C 
HETATM   18  C   UNL     1      25.647  45.997  53.805  1.00  0.00     0.012 C 
HETATM   19  C   UNL     1      25.223  43.880  55.063  1.00  0.00     0.012 C 
ENDBRANCH  16  17
BRANCH  16  20
HETATM   20  C   UNL     1      28.771  44.236  54.744  1.00  0.00    -0.003 A 
HETATM   21  C   UNL     1      29.214  45.447  55.314  1.00  0.00     0.042 A 
HETATM   22 CL   UNL     1      28.339  46.929  55.140  1.00  0.00    -0.084 Cl
HETATM   23  C   UNL     1      30.405  45.501  56.049  1.00  0.00     0.024 A 
HETATM   24  C   UNL     1      31.180  44.357  56.223  1.00  0.00     0.002 A 
HETATM   25  C   UNL     1      30.766  43.154  55.665  1.00  0.00     0.001 A 
HETATM   26  C   UNL     1      29.576  43.094  54.936  1.00  0.00     0.011 A 
ENDBRANCH  16  20
ENDBRANCH  14  16
ENDBRANCH   1  14
TORSDOF 6
ENDMDL
