MODEL 1
REMARK VINA RESULT:     -10.8      0.000      0.000
REMARK  3 active torsions:
REMARK  status: ('A' for Active; 'I' for Inactive)
REMARK    1  A    between atoms: N_8  and  C_9 
REMARK    2  A    between atoms: C_18  and  C_19 
REMARK    3  A    between atoms: C_19  and  C_20 
ROOT
HETATM    1  C   UNL     1      26.097  44.057  49.787  1.00  0.00     0.069 C 
HETATM    2  C   UNL     1      26.387  44.767  51.084  1.00  0.00     0.017 A 
HETATM    3  N   UNL     1      27.359  44.187  51.885  1.00  0.00    -0.348 N 
HETATM    4  C   UNL     1      27.791  44.756  53.046  1.00  0.00     0.119 A 
HETATM    5  C   UNL     1      27.237  45.887  53.506  1.00  0.00     0.124 A 
HETATM    6  C   UNL     1      27.869  46.178  54.803  1.00  0.00     0.280 A 
HETATM    7  O   UNL     1      27.591  47.122  55.521  1.00  0.00    -0.265 OA
HETATM    8  N   UNL     1      28.804  45.149  54.996  1.00  0.00    -0.236 N 
HETATM    9  N   UNL     1      28.779  44.277  53.887  1.00  0.00    -0.179 NA
HETATM   10  C   UNL     1      26.176  46.557  52.756  1.00  0.00     0.199 A 
HETATM   11  O   UNL     1      25.657  47.595  53.148  1.00  0.00    -0.287 OA
HETATM   12  C   UNL     1      25.750  45.908  51.455  1.00  0.00     0.020 A 
HETATM   13  H   UNL     1      27.906  43.420  51.509  1.00  0.00     0.167 HD
HETATM   14  H   UNL     1      28.579  43.314  54.159  1.00  0.00     0.155 HD
ENDROOT
BRANCH  12  15
HETATM   15  C   UNL     1      24.687  46.642  50.668  1.00  0.00     0.085 C 
BRANCH  15  16
HETATM   16  C   UNL     1      25.218  47.792  49.831  1.00  0.00    -0.032 A 
HETATM   17  C   UNL     1      24.391  48.707  49.156  1.00  0.00     0.040 A 
HETATM   18 CL   UNL     1      22.665  48.610  49.194  1.00  0.00    -0.084 Cl
HETATM   19  C   UNL     1      24.944  49.742  48.391  1.00  0.00     0.024 A 
HETATM   20  C   UNL     1      26.326  49.878  48.280  1.00  0.00     0.002 A 
HETATM   21  C   UNL     1      27.160  48.974  48.927  1.00  0.00     0.001 A 
HETATM   22  C   UNL     1      26.612  47.940  49.690  1.00  0.00     0.009 A 
ENDBRANCH  15  16
ENDBRANCH  12  15
BRANCH   8  23
HETATM   23  C   UNL     1      29.720  44.946  56.052  1.00  0.00     0.055 A 
HETATM   24  C   UNL     1      29.719  45.770  57.184  1.00  0.00     0.031 A 
HETATM   25  C   UNL     1      30.625  45.558  58.229  1.00  0.00     0.002 A 
HETATM   26  C   UNL     1      31.550  44.523  58.154  1.00  0.00     0.000 A 
HETATM   27  C   UNL     1      31.571  43.697  57.034  1.00  0.00     0.002 A 
HETATM   28  C   UNL     1      30.663  43.907  55.992  1.00  0.00     0.031 A 
ENDBRANCH   8  23
TORSDOF 3
ENDMDL
MODEL 2
REMARK VINA RESULT:      -9.7      3.098      4.835
REMARK  3 active torsions:
REMARK  status: ('A' for Active; 'I' for Inactive)
REMARK    1  A    between atoms: N_8  and  C_9 
REMARK    2  A    between atoms: C_18  and  C_19 
REMARK    3  A    between atoms: C_19  and  C_20 
ROOT
HETATM    1  C   UNL     1      21.368  45.157  48.010  1.00  0.00     0.069 C 
HETATM    2  C   UNL     1      22.463  45.771  48.844  1.00  0.00     0.017 A 
HETATM    3  N   UNL     1      23.199  44.887  49.618  1.00  0.00    -0.348 N 
HETATM    4  C   UNL     1      24.274  45.279  50.360  1.00  0.00     0.119 A 
HETATM    5  C   UNL     1      24.630  46.569  50.427  1.00  0.00     0.124 A 
HETATM    6  C   UNL     1      25.761  46.654  51.365  1.00  0.00     0.280 A 
HETATM    7  O   UNL     1      26.328  47.683  51.688  1.00  0.00    -0.265 OA
HETATM    8  N   UNL     1      25.998  45.333  51.776  1.00  0.00    -0.236 N 
HETATM    9  N   UNL     1      25.091  44.469  51.127  1.00  0.00    -0.179 NA
HETATM   10  C   UNL     1      23.894  47.587  49.679  1.00  0.00     0.199 A 
HETATM   11  O   UNL     1      24.201  48.773  49.716  1.00  0.00    -0.287 OA
HETATM   12  C   UNL     1      22.727  47.103  48.843  1.00  0.00     0.020 A 
HETATM   13  H   UNL     1      23.062  43.891  49.484  1.00  0.00     0.167 HD
HETATM   14  H   UNL     1      24.535  43.927  51.789  1.00  0.00     0.155 HD
ENDROOT
BRANCH  12  15
HETATM   15  C   UNL     1      22.009  48.163  48.037  1.00  0.00     0.085 C 
BRANCH  15  16
HETATM   16  C   UNL     1      20.996  48.968  48.832  1.00  0.00    -0.032 A 
HETATM   17  C   UNL     1      21.117  50.347  49.074  1.00  0.00     0.040 A 
HETATM   18 CL   UNL     1      22.454  51.281  48.498  1.00  0.00    -0.084 Cl
HETATM   19  C   UNL     1      20.152  51.031  49.824  1.00  0.00     0.024 A 
HETATM   20  C   UNL     1      19.056  50.351  50.352  1.00  0.00     0.002 A 
HETATM   21  C   UNL     1      18.927  48.984  50.138  1.00  0.00     0.001 A 
HETATM   22  C   UNL     1      19.888  48.299  49.391  1.00  0.00     0.009 A 
ENDBRANCH  15  16
ENDBRANCH  12  15
BRANCH   8  23
HETATM   23  C   UNL     1      26.990  44.819  52.640  1.00  0.00     0.055 A 
HETATM   24  C   UNL     1      27.049  45.199  53.987  1.00  0.00     0.031 A 
HETATM   25  C   UNL     1      28.031  44.681  54.838  1.00  0.00     0.002 A 
HETATM   26  C   UNL     1      28.972  43.779  54.355  1.00  0.00     0.000 A 
HETATM   27  C   UNL     1      28.934  43.393  53.017  1.00  0.00     0.002 A 
HETATM   28  C   UNL     1      27.950  43.910  52.168  1.00  0.00     0.031 A 
ENDBRANCH   8  23
TORSDOF 3
ENDMDL
MODEL 3
REMARK VINA RESULT:      -9.6      4.520      9.673
REMARK  3 active torsions:
REMARK  status: ('A' for Active; 'I' for Inactive)
REMARK    1  A    between atoms: N_8  and  C_9 
REMARK    2  A    between atoms: C_18  and  C_19 
REMARK    3  A    between atoms: C_19  and  C_20 
ROOT
HETATM    1  C   UNL     1      27.582  48.947  49.199  1.00  0.00     0.069 C 
HETATM    2  C   UNL     1      26.108  48.635  49.222  1.00  0.00     0.017 A 
HETATM    3  N   UNL     1      25.267  49.661  48.820  1.00  0.00    -0.348 N 
HETATM    4  C   UNL     1      23.917  49.505  48.707  1.00  0.00     0.119 A 
HETATM    5  C   UNL     1      23.327  48.352  49.051  1.00  0.00     0.124 A 
HETATM    6  C   UNL     1      21.877  48.547  48.890  1.00  0.00     0.280 A 
HETATM    7  O   UNL     1      21.027  47.711  49.137  1.00  0.00    -0.265 OA
HETATM    8  N   UNL     1      21.733  49.862  48.421  1.00  0.00    -0.236 N 
HETATM    9  N   UNL     1      23.006  50.451  48.277  1.00  0.00    -0.179 NA
HETATM   10  C   UNL     1      24.121  47.220  49.527  1.00  0.00     0.199 A 
HETATM   11  O   UNL     1      23.609  46.152  49.842  1.00  0.00    -0.287 OA
HETATM   12  C   UNL     1      25.620  47.427  49.605  1.00  0.00     0.020 A 
HETATM   13  H   UNL     1      25.677  50.495  48.410  1.00  0.00     0.167 HD
HETATM   14  H   UNL     1      23.097  51.308  48.823  1.00  0.00     0.155 HD
ENDROOT
BRANCH  12  15
HETATM   15  C   UNL     1      26.429  46.229  50.051  1.00  0.00     0.085 C 
BRANCH  15  16
HETATM   16  C   UNL     1      26.503  46.055  51.558  1.00  0.00    -0.032 A 
HETATM   17  C   UNL     1      26.894  44.859  52.183  1.00  0.00     0.040 A 
HETATM   18 CL   UNL     1      27.323  43.439  51.295  1.00  0.00    -0.084 Cl
HETATM   19  C   UNL     1      26.933  44.761  53.580  1.00  0.00     0.024 A 
HETATM   20  C   UNL     1      26.575  45.847  54.375  1.00  0.00     0.002 A 
HETATM   21  C   UNL     1      26.169  47.034  53.775  1.00  0.00     0.001 A 
HETATM   22  C   UNL     1      26.129  47.135  52.383  1.00  0.00     0.009 A 
ENDBRANCH  15  16
ENDBRANCH  12  15
BRANCH   8  23
HETATM   23  C   UNL     1      20.566  50.568  48.056  1.00  0.00     0.055 A 
HETATM   24  C   UNL     1      19.800  50.185  46.948  1.00  0.00     0.031 A 
HETATM   25  C   UNL     1      18.641  50.886  46.598  1.00  0.00     0.002 A 
HETATM   26  C   UNL     1      18.233  51.985  47.347  1.00  0.00     0.000 A 
HETATM   27  C   UNL     1      18.984  52.385  48.448  1.00  0.00     0.002 A 
HETATM   28  C   UNL     1      20.141  51.682  48.799  1.00  0.00     0.031 A 
ENDBRANCH   8  23
TORSDOF 3
ENDMDL
MODEL 4
REMARK VINA RESULT:      -9.3      4.243      9.281
REMARK  3 active torsions:
REMARK  status: ('A' for Active; 'I' for Inactive)
REMARK    1  A    between atoms: N_8  and  C_9 
REMARK    2  A    between atoms: C_18  and  C_19 
REMARK    3  A    between atoms: C_19  and  C_20 
ROOT
HETATM    1  C   UNL     1      24.048  43.814  49.708  1.00  0.00     0.069 C 
HETATM    2  C   UNL     1      24.004  45.317  49.619  1.00  0.00     0.017 A 
HETATM    3  N   UNL     1      22.786  45.865  49.245  1.00  0.00    -0.348 N 
HETATM    4  C   UNL     1      22.567  47.210  49.202  1.00  0.00     0.119 A 
HETATM    5  C   UNL     1      23.556  48.077  49.458  1.00  0.00     0.124 A 
HETATM    6  C   UNL     1      23.010  49.427  49.245  1.00  0.00     0.280 A 
HETATM    7  O   UNL     1      23.638  50.463  49.364  1.00  0.00    -0.265 OA
HETATM    8  N   UNL     1      21.668  49.228  48.882  1.00  0.00    -0.236 N 
HETATM    9  N   UNL     1      21.382  47.846  48.884  1.00  0.00    -0.179 NA
HETATM   10  C   UNL     1      24.890  47.602  49.822  1.00  0.00     0.199 A 
HETATM   11  O   UNL     1      25.811  48.371  50.069  1.00  0.00    -0.287 OA
HETATM   12  C   UNL     1      25.080  46.100  49.890  1.00  0.00     0.020 A 
HETATM   13  H   UNL     1      21.975  45.257  49.188  1.00  0.00     0.167 HD
HETATM   14  H   UNL     1      21.035  47.524  47.980  1.00  0.00     0.155 HD
ENDROOT
BRANCH  12  15
HETATM   15  C   UNL     1      26.453  45.628  50.318  1.00  0.00     0.085 C 
BRANCH  15  16
HETATM   16  C   UNL     1      26.537  45.199  51.772  1.00  0.00    -0.032 A 
HETATM   17  C   UNL     1      26.940  43.916  52.181  1.00  0.00     0.040 A 
HETATM   18 CL   UNL     1      27.373  42.673  51.060  1.00  0.00    -0.084 Cl
HETATM   19  C   UNL     1      26.988  43.580  53.540  1.00  0.00     0.024 A 
HETATM   20  C   UNL     1      26.627  44.511  54.511  1.00  0.00     0.002 A 
HETATM   21  C   UNL     1      26.209  45.780  54.126  1.00  0.00     0.001 A 
HETATM   22  C   UNL     1      26.160  46.118  52.772  1.00  0.00     0.009 A 
ENDBRANCH  15  16
ENDBRANCH  12  15
BRANCH   8  23
HETATM   23  C   UNL     1      20.658  50.174  48.600  1.00  0.00     0.055 A 
HETATM   24  C   UNL     1      20.244  51.104  49.561  1.00  0.00     0.031 A 
HETATM   25  C   UNL     1      19.248  52.042  49.271  1.00  0.00     0.002 A 
HETATM   26  C   UNL     1      18.646  52.061  48.018  1.00  0.00     0.000 A 
HETATM   27  C   UNL     1      19.040  51.140  47.051  1.00  0.00     0.002 A 
HETATM   28  C   UNL     1      20.038  50.205  47.340  1.00  0.00     0.031 A 
ENDBRANCH   8  23
TORSDOF 3
ENDMDL
MODEL 5
REMARK VINA RESULT:      -9.1     15.617     17.437
REMARK  3 active torsions:
REMARK  status: ('A' for Active; 'I' for Inactive)
REMARK    1  A    between atoms: N_8  and  C_9 
REMARK    2  A    between atoms: C_18  and  C_19 
REMARK    3  A    between atoms: C_19  and  C_20 
ROOT
HETATM    1  C   UNL     1      40.735  44.169  63.273  1.00  0.00     0.069 C 
HETATM    2  C   UNL     1      39.553  44.956  63.780  1.00  0.00     0.017 A 
HETATM    3  N   UNL     1      39.855  46.093  64.512  1.00  0.00    -0.348 N 
HETATM    4  C   UNL     1      38.897  46.952  64.965  1.00  0.00     0.119 A 
HETATM    5  C   UNL     1      37.596  46.693  64.776  1.00  0.00     0.124 A 
HETATM    6  C   UNL     1      36.842  47.761  65.452  1.00  0.00     0.280 A 
HETATM    7  O   UNL     1      35.628  47.835  65.507  1.00  0.00    -0.265 OA
HETATM    8  N   UNL     1      37.818  48.614  65.993  1.00  0.00    -0.236 N 
HETATM    9  N   UNL     1      39.101  48.127  65.664  1.00  0.00    -0.179 NA
HETATM   10  C   UNL     1      37.170  45.497  64.050  1.00  0.00     0.199 A 
HETATM   11  O   UNL     1      35.988  45.239  63.856  1.00  0.00    -0.287 OA
HETATM   12  C   UNL     1      38.269  44.588  63.537  1.00  0.00     0.020 A 
HETATM   13  H   UNL     1      40.819  46.407  64.552  1.00  0.00     0.167 HD
HETATM   14  H   UNL     1      39.670  47.955  66.493  1.00  0.00     0.155 HD
ENDROOT
BRANCH  12  15
HETATM   15  C   UNL     1      37.811  43.383  62.745  1.00  0.00     0.085 C 
BRANCH  15  16
HETATM   16  C   UNL     1      38.217  42.051  63.351  1.00  0.00    -0.032 A 
HETATM   17  C   UNL     1      37.684  41.550  64.551  1.00  0.00     0.040 A 
HETATM   18 CL   UNL     1      36.510  42.412  65.482  1.00  0.00    -0.084 Cl
HETATM   19  C   UNL     1      38.107  40.317  65.062  1.00  0.00     0.024 A 
HETATM   20  C   UNL     1      39.073  39.568  64.393  1.00  0.00     0.002 A 
HETATM   21  C   UNL     1      39.624  40.054  63.213  1.00  0.00     0.001 A 
HETATM   22  C   UNL     1      39.204  41.284  62.700  1.00  0.00     0.009 A 
ENDBRANCH  15  16
ENDBRANCH  12  15
BRANCH   8  23
HETATM   23  C   UNL     1      37.666  49.821  66.710  1.00  0.00     0.055 A 
HETATM   24  C   UNL     1      37.263  49.825  68.051  1.00  0.00     0.031 A 
HETATM   25  C   UNL     1      37.121  51.025  68.756  1.00  0.00     0.002 A 
HETATM   26  C   UNL     1      37.376  52.240  68.129  1.00  0.00     0.000 A 
HETATM   27  C   UNL     1      37.772  52.257  66.795  1.00  0.00     0.002 A 
HETATM   28  C   UNL     1      37.916  51.057  66.092  1.00  0.00     0.031 A 
ENDBRANCH   8  23
TORSDOF 3
ENDMDL
MODEL 6
REMARK VINA RESULT:      -9.0      3.431      5.748
REMARK  3 active torsions:
REMARK  status: ('A' for Active; 'I' for Inactive)
REMARK    1  A    between atoms: N_8  and  C_9 
REMARK    2  A    between atoms: C_18  and  C_19 
REMARK    3  A    between atoms: C_19  and  C_20 
ROOT
HETATM    1  C   UNL     1      24.013  50.603  47.860  1.00  0.00     0.069 C 
HETATM    2  C   UNL     1      23.957  49.225  48.467  1.00  0.00     0.017 A 
HETATM    3  N   UNL     1      25.076  48.836  49.187  1.00  0.00    -0.348 N 
HETATM    4  C   UNL     1      25.142  47.653  49.863  1.00  0.00     0.119 A 
HETATM    5  C   UNL     1      24.135  46.771  49.805  1.00  0.00     0.124 A 
HETATM    6  C   UNL     1      24.558  45.585  50.567  1.00  0.00     0.280 A 
HETATM    7  O   UNL     1      23.899  44.571  50.708  1.00  0.00    -0.265 OA
HETATM    8  N   UNL     1      25.839  45.897  51.051  1.00  0.00    -0.236 N 
HETATM    9  N   UNL     1      26.192  47.199  50.638  1.00  0.00    -0.179 NA
HETATM   10  C   UNL     1      22.925  47.068  49.039  1.00  0.00     0.199 A 
HETATM   11  O   UNL     1      21.986  46.283  48.974  1.00  0.00    -0.287 OA
HETATM   12  C   UNL     1      22.882  48.406  48.330  1.00  0.00     0.020 A 
HETATM   13  H   UNL     1      25.795  49.526  49.381  1.00  0.00     0.167 HD
HETATM   14  H   UNL     1      27.061  47.210  50.103  1.00  0.00     0.155 HD
ENDROOT
BRANCH  12  15
HETATM   15  C   UNL     1      21.602  48.717  47.585  1.00  0.00     0.085 C 
BRANCH  15  16
HETATM   16  C   UNL     1      20.662  49.650  48.328  1.00  0.00    -0.032 A 
HETATM   17  C   UNL     1      19.635  49.202  49.177  1.00  0.00     0.040 A 
HETATM   18 CL   UNL     1      19.320  47.525  49.456  1.00  0.00    -0.084 Cl
HETATM   19  C   UNL     1      18.795  50.115  49.827  1.00  0.00     0.024 A 
HETATM   20  C   UNL     1      18.957  51.485  49.636  1.00  0.00     0.002 A 
HETATM   21  C   UNL     1      19.957  51.947  48.788  1.00  0.00     0.001 A 
HETATM   22  C   UNL     1      20.796  51.040  48.138  1.00  0.00     0.009 A 
ENDBRANCH  15  16
ENDBRANCH  12  15
BRANCH   8  23
HETATM   23  C   UNL     1      26.702  45.143  51.876  1.00  0.00     0.055 A 
HETATM   24  C   UNL     1      27.540  44.156  51.342  1.00  0.00     0.031 A 
HETATM   25  C   UNL     1      28.397  43.418  52.165  1.00  0.00     0.002 A 
HETATM   26  C   UNL     1      28.425  43.651  53.536  1.00  0.00     0.000 A 
HETATM   27  C   UNL     1      27.595  44.624  54.086  1.00  0.00     0.002 A 
HETATM   28  C   UNL     1      26.741  45.363  53.262  1.00  0.00     0.031 A 
ENDBRANCH   8  23
TORSDOF 3
ENDMDL
MODEL 7
REMARK VINA RESULT:      -9.0      5.117      6.829
REMARK  3 active torsions:
REMARK  status: ('A' for Active; 'I' for Inactive)
REMARK    1  A    between atoms: N_8  and  C_9 
REMARK    2  A    between atoms: C_18  and  C_19 
REMARK    3  A    between atoms: C_19  and  C_20 
ROOT
HETATM    1  C   UNL     1      29.022  37.798  49.715  1.00  0.00     0.069 C 
HETATM    2  C   UNL     1      28.472  39.087  50.268  1.00  0.00     0.017 A 
HETATM    3  N   UNL     1      29.185  39.647  51.316  1.00  0.00    -0.348 N 
HETATM    4  C   UNL     1      28.861  40.853  51.866  1.00  0.00     0.119 A 
HETATM    5  C   UNL     1      27.779  41.527  51.454  1.00  0.00     0.124 A 
HETATM    6  C   UNL     1      27.674  42.728  52.299  1.00  0.00     0.280 A 
HETATM    7  O   UNL     1      26.792  43.563  52.222  1.00  0.00    -0.265 OA
HETATM    8  N   UNL     1      28.774  42.662  53.169  1.00  0.00    -0.236 N 
HETATM    9  N   UNL     1      29.533  41.508  52.881  1.00  0.00    -0.179 NA
HETATM   10  C   UNL     1      26.935  41.003  50.381  1.00  0.00     0.199 A 
HETATM   11  O   UNL     1      25.945  41.602  49.980  1.00  0.00    -0.287 OA
HETATM   12  C   UNL     1      27.351  39.677  49.777  1.00  0.00     0.020 A 
HETATM   13  H   UNL     1      30.088  39.251  51.559  1.00  0.00     0.167 HD
HETATM   14  H   UNL     1      29.632  40.900  53.694  1.00  0.00     0.155 HD
ENDROOT
BRANCH  12  15
HETATM   15  C   UNL     1      26.496  39.175  48.635  1.00  0.00     0.085 C 
BRANCH  15  16
HETATM   16  C   UNL     1      27.113  39.377  47.262  1.00  0.00    -0.032 A 
HETATM   17  C   UNL     1      27.418  38.322  46.385  1.00  0.00     0.040 A 
HETATM   18 CL   UNL     1      27.135  36.664  46.786  1.00  0.00    -0.084 Cl
HETATM   19  C   UNL     1      27.995  38.574  45.134  1.00  0.00     0.024 A 
HETATM   20  C   UNL     1      28.287  39.879  44.740  1.00  0.00     0.002 A 
HETATM   21  C   UNL     1      28.007  40.935  45.600  1.00  0.00     0.001 A 
HETATM   22  C   UNL     1      27.432  40.686  46.849  1.00  0.00     0.009 A 
ENDBRANCH  15  16
ENDBRANCH  12  15
BRANCH   8  23
HETATM   23  C   UNL     1      29.194  43.571  54.166  1.00  0.00     0.055 A 
HETATM   24  C   UNL     1      28.457  44.727  54.453  1.00  0.00     0.031 A 
HETATM   25  C   UNL     1      28.876  45.618  55.446  1.00  0.00     0.002 A 
HETATM   26  C   UNL     1      30.041  45.371  56.164  1.00  0.00     0.000 A 
HETATM   27  C   UNL     1      30.790  44.230  55.889  1.00  0.00     0.002 A 
HETATM   28  C   UNL     1      30.369  43.337  54.898  1.00  0.00     0.031 A 
ENDBRANCH   8  23
TORSDOF 3
ENDMDL
MODEL 8
REMARK VINA RESULT:      -8.6      2.024      2.580
REMARK  3 active torsions:
REMARK  status: ('A' for Active; 'I' for Inactive)
REMARK    1  A    between atoms: N_8  and  C_9 
REMARK    2  A    between atoms: C_18  and  C_19 
REMARK    3  A    between atoms: C_19  and  C_20 
ROOT
HETATM    1  C   UNL     1      26.776  42.959  49.168  1.00  0.00     0.069 C 
HETATM    2  C   UNL     1      26.710  43.324  50.629  1.00  0.00     0.017 A 
HETATM    3  N   UNL     1      27.914  43.292  51.314  1.00  0.00    -0.348 N 
HETATM    4  C   UNL     1      28.030  43.676  52.618  1.00  0.00     0.119 A 
HETATM    5  C   UNL     1      26.952  44.044  53.324  1.00  0.00     0.124 A 
HETATM    6  C   UNL     1      27.410  44.312  54.697  1.00  0.00     0.280 A 
HETATM    7  O   UNL     1      26.692  44.647  55.622  1.00  0.00    -0.265 OA
HETATM    8  N   UNL     1      28.795  44.085  54.674  1.00  0.00    -0.236 N 
HETATM    9  N   UNL     1      29.189  43.718  53.370  1.00  0.00    -0.179 NA
HETATM   10  C   UNL     1      25.628  44.074  52.705  1.00  0.00     0.199 A 
HETATM   11  O   UNL     1      24.626  44.413  53.325  1.00  0.00    -0.287 OA
HETATM   12  C   UNL     1      25.551  43.670  51.247  1.00  0.00     0.020 A 
HETATM   13  H   UNL     1      28.772  43.165  50.787  1.00  0.00     0.167 HD
HETATM   14  H   UNL     1      29.659  42.813  53.351  1.00  0.00     0.155 HD
ENDROOT
BRANCH  12  15
HETATM   15  C   UNL     1      24.181  43.756  50.610  1.00  0.00     0.085 C 
BRANCH  15  16
HETATM   16  C   UNL     1      23.858  45.114  50.012  1.00  0.00    -0.032 A 
HETATM   17  C   UNL     1      22.911  45.307  48.992  1.00  0.00     0.040 A 
HETATM   18 CL   UNL     1      22.015  44.005  48.292  1.00  0.00    -0.084 Cl
HETATM   19  C   UNL     1      22.665  46.586  48.476  1.00  0.00     0.024 A 
HETATM   20  C   UNL     1      23.364  47.690  48.961  1.00  0.00     0.002 A 
HETATM   21  C   UNL     1      24.317  47.516  49.958  1.00  0.00     0.001 A 
HETATM   22  C   UNL     1      24.565  46.242  50.474  1.00  0.00     0.009 A 
ENDBRANCH  15  16
ENDBRANCH  12  15
BRANCH   8  23
HETATM   23  C   UNL     1      29.752  44.230  55.703  1.00  0.00     0.055 A 
HETATM   24  C   UNL     1      30.747  43.267  55.911  1.00  0.00     0.031 A 
HETATM   25  C   UNL     1      31.695  43.421  56.928  1.00  0.00     0.002 A 
HETATM   26  C   UNL     1      31.659  44.537  57.756  1.00  0.00     0.000 A 
HETATM   27  C   UNL     1      30.674  45.503  57.569  1.00  0.00     0.002 A 
HETATM   28  C   UNL     1      29.728  45.350  56.550  1.00  0.00     0.031 A 
ENDBRANCH   8  23
TORSDOF 3
ENDMDL
MODEL 9
REMARK VINA RESULT:      -8.6      6.311      9.362
REMARK  3 active torsions:
REMARK  status: ('A' for Active; 'I' for Inactive)
REMARK    1  A    between atoms: N_8  and  C_9 
REMARK    2  A    between atoms: C_18  and  C_19 
REMARK    3  A    between atoms: C_19  and  C_20 
ROOT
HETATM    1  C   UNL     1      18.043  47.255  46.903  1.00  0.00     0.069 C 
HETATM    2  C   UNL     1      19.054  48.096  47.639  1.00  0.00     0.017 A 
HETATM    3  N   UNL     1      20.372  47.676  47.544  1.00  0.00    -0.348 N 
HETATM    4  C   UNL     1      21.409  48.378  48.084  1.00  0.00     0.119 A 
HETATM    5  C   UNL     1      21.188  49.489  48.800  1.00  0.00     0.124 A 
HETATM    6  C   UNL     1      22.495  49.945  49.300  1.00  0.00     0.280 A 
HETATM    7  O   UNL     1      22.673  50.918  50.010  1.00  0.00    -0.265 OA
HETATM    8  N   UNL     1      23.425  49.024  48.790  1.00  0.00    -0.236 N 
HETATM    9  N   UNL     1      22.752  48.063  48.006  1.00  0.00    -0.179 NA
HETATM   10  C   UNL     1      19.830  49.995  48.994  1.00  0.00     0.199 A 
HETATM   11  O   UNL     1      19.599  51.012  49.638  1.00  0.00    -0.287 OA
HETATM   12  C   UNL     1      18.712  49.202  48.349  1.00  0.00     0.020 A 
HETATM   13  H   UNL     1      20.601  46.931  46.893  1.00  0.00     0.167 HD
HETATM   14  H   UNL     1      22.916  47.113  48.340  1.00  0.00     0.155 HD
ENDROOT
BRANCH  12  15
HETATM   15  C   UNL     1      17.319  49.768  48.518  1.00  0.00     0.085 C 
BRANCH  15  16
HETATM   16  C   UNL     1      16.813  50.542  47.313  1.00  0.00    -0.032 A 
HETATM   17  C   UNL     1      15.680  50.168  46.571  1.00  0.00     0.040 A 
HETATM   18 CL   UNL     1      14.741  48.765  46.944  1.00  0.00    -0.084 Cl
HETATM   19  C   UNL     1      15.270  50.921  45.463  1.00  0.00     0.024 A 
HETATM   20  C   UNL     1      15.985  52.051  45.072  1.00  0.00     0.002 A 
HETATM   21  C   UNL     1      17.118  52.427  45.784  1.00  0.00     0.001 A 
HETATM   22  C   UNL     1      17.530  51.679  46.889  1.00  0.00     0.009 A 
ENDBRANCH  15  16
ENDBRANCH  12  15
BRANCH   8  23
HETATM   23  C   UNL     1      24.831  48.995  48.918  1.00  0.00     0.055 A 
HETATM   24  C   UNL     1      25.637  49.966  48.310  1.00  0.00     0.031 A 
HETATM   25  C   UNL     1      27.028  49.934  48.448  1.00  0.00     0.002 A 
HETATM   26  C   UNL     1      27.637  48.928  49.189  1.00  0.00     0.000 A 
HETATM   27  C   UNL     1      26.853  47.950  49.796  1.00  0.00     0.002 A 
HETATM   28  C   UNL     1      25.462  47.984  49.661  1.00  0.00     0.031 A 
ENDBRANCH   8  23
TORSDOF 3
ENDMDL
MODEL 10
REMARK VINA RESULT:      -8.3      4.068      7.763
REMARK  3 active torsions:
REMARK  status: ('A' for Active; 'I' for Inactive)
REMARK    1  A    between atoms: N_8  and  C_9 
REMARK    2  A    between atoms: C_18  and  C_19 
REMARK    3  A    between atoms: C_19  and  C_20 
ROOT
HETATM    1  C   UNL     1      29.393  42.580  54.412  1.00  0.00     0.069 C 
HETATM    2  C   UNL     1      28.512  42.439  53.198  1.00  0.00     0.017 A 
HETATM    3  N   UNL     1      29.063  41.746  52.130  1.00  0.00    -0.348 N 
HETATM    4  C   UNL     1      28.360  41.464  50.995  1.00  0.00     0.119 A 
HETATM    5  C   UNL     1      27.108  41.910  50.834  1.00  0.00     0.124 A 
HETATM    6  C   UNL     1      26.678  41.506  49.485  1.00  0.00     0.280 A 
HETATM    7  O   UNL     1      25.598  41.765  48.987  1.00  0.00    -0.265 OA
HETATM    8  N   UNL     1      27.768  40.802  48.948  1.00  0.00    -0.236 N 
HETATM    9  N   UNL     1      28.807  40.748  49.901  1.00  0.00    -0.179 NA
HETATM   10  C   UNL     1      26.449  42.685  51.884  1.00  0.00     0.199 A 
HETATM   11  O   UNL     1      25.302  43.100  51.767  1.00  0.00    -0.287 OA
HETATM   12  C   UNL     1      27.254  42.947  53.141  1.00  0.00     0.020 A 
HETATM   13  H   UNL     1      29.946  41.265  52.264  1.00  0.00     0.167 HD
HETATM   14  H   UNL     1      29.676  41.147  49.544  1.00  0.00     0.155 HD
ENDROOT
BRANCH  12  15
HETATM   15  C   UNL     1      26.539  43.706  54.237  1.00  0.00     0.085 C 
BRANCH  15  16
HETATM   16  C   UNL     1      26.981  45.152  54.381  1.00  0.00    -0.032 A 
HETATM   17  C   UNL     1      26.424  46.211  53.643  1.00  0.00     0.040 A 
HETATM   18 CL   UNL     1      25.175  45.976  52.472  1.00  0.00    -0.084 Cl
HETATM   19  C   UNL     1      26.883  47.523  53.817  1.00  0.00     0.024 A 
HETATM   20  C   UNL     1      27.908  47.800  54.719  1.00  0.00     0.002 A 
HETATM   21  C   UNL     1      28.483  46.764  55.445  1.00  0.00     0.001 A 
HETATM   22  C   UNL     1      28.028  45.454  55.274  1.00  0.00     0.009 A 
ENDBRANCH  15  16
ENDBRANCH  12  15
BRANCH   8  23
HETATM   23  C   UNL     1      27.899  40.153  47.701  1.00  0.00     0.055 A 
HETATM   24  C   UNL     1      27.973  38.758  47.610  1.00  0.00     0.031 A 
HETATM   25  C   UNL     1      28.095  38.123  46.370  1.00  0.00     0.002 A 
HETATM   26  C   UNL     1      28.152  38.874  45.201  1.00  0.00     0.000 A 
HETATM   27  C   UNL     1      28.086  40.263  45.270  1.00  0.00     0.002 A 
HETATM   28  C   UNL     1      27.960  40.897  46.511  1.00  0.00     0.031 A 
ENDBRANCH   8  23
TORSDOF 3
ENDMDL
