MODEL 1
REMARK VINA RESULT:      -8.8      0.000      0.000
REMARK  9 active torsions:
REMARK  status: ('A' for Active; 'I' for Inactive)
REMARK    1  A    between atoms: C_2  and  O_3 
REMARK    2  A    between atoms: O_3  and  C_4 
REMARK    3  A    between atoms: C_5  and  C_6 
REMARK    4  A    between atoms: N_7  and  C_9 
REMARK    5  A    between atoms: C_9  and  C_10 
REMARK       I    between atoms: C_10  and  N_11 
REMARK    6  A    between atoms: N_11  and  C_12 
REMARK    7  A    between atoms: C_20  and  C_21 
REMARK    8  A    between atoms: C_21  and  O_22 
REMARK    9  A    between atoms: C_28  and  O_29 
ROOT
HETATM    1  C   UNL     1      24.869  44.846  49.541  1.00  0.00     0.231 C 
HETATM    2  N   UNL     1      23.355  44.892  49.234  1.00  0.00    -0.054 N 
HETATM    3  H   UNL     1      23.069  45.777  49.683  1.00  0.00     0.281 HD
HETATM    4  C   UNL     1      22.530  43.789  49.829  1.00  0.00     0.239 C 
HETATM    5  C   UNL     1      23.112  42.425  49.498  1.00  0.00     0.066 C 
HETATM    6  C   UNL     1      24.551  42.301  50.005  1.00  0.00     0.065 C 
HETATM    7  C   UNL     1      25.418  43.402  49.369  1.00  0.00     0.055 C 
HETATM    8  C   UNL     1      25.113  40.904  49.671  1.00  0.00     0.038 C 
HETATM    9  C   UNL     1      26.595  40.758  50.021  1.00  0.00     0.003 C 
HETATM   10  C   UNL     1      27.439  41.878  49.422  1.00  0.00     0.001 C 
HETATM   11  C   UNL     1      26.896  43.262  49.775  1.00  0.00     0.010 C 
ENDROOT
BRANCH   2  12
HETATM   12  C   UNL     1      23.036  45.132  47.748  1.00  0.00     0.338 C 
BRANCH  12  13
HETATM   13  C   UNL     1      22.171  46.376  47.516  1.00  0.00     0.248 C 
HETATM   14  N   UNL     1      21.880  47.057  48.681  1.00  0.00    -0.319 N 
HETATM   15  H   UNL     1      22.548  47.022  49.453  1.00  0.00     0.169 HD
HETATM   16  O   UNL     1      21.858  46.694  46.372  1.00  0.00    -0.271 OA
BRANCH  14  17
HETATM   17  C   UNL     1      20.954  48.086  48.789  1.00  0.00     0.094 A 
HETATM   18  S   UNL     1      19.294  47.737  48.812  1.00  0.00    -0.075 SA
HETATM   19  C   UNL     1      18.896  49.360  49.094  1.00  0.00    -0.008 A 
HETATM   20  C   UNL     1      20.008  50.182  49.171  1.00  0.00    -0.026 A 
HETATM   21  C   UNL     1      17.475  49.800  49.275  1.00  0.00     0.047 C 
HETATM   22  C   UNL     1      19.865  51.663  49.400  1.00  0.00     0.041 C 
HETATM   23  C   UNL     1      21.233  49.433  48.986  1.00  0.00     0.080 A 
HETATM   24  C   UNL     1      18.465  52.045  49.904  1.00  0.00     0.005 C 
HETATM   25  C   UNL     1      17.360  51.322  49.125  1.00  0.00     0.005 C 
BRANCH  23  26
HETATM   26  C   UNL     1      22.614  49.929  48.962  1.00  0.00     0.296 C 
HETATM   27  O   UNL     1      23.133  50.454  49.944  1.00  0.00    -0.259 OA
BRANCH  26  28
HETATM   28  O   UNL     1      23.251  49.707  47.781  1.00  0.00    -0.322 OA
HETATM   29  C   UNL     1      24.645  50.021  47.785  1.00  0.00     0.213 C 
ENDBRANCH  26  28
ENDBRANCH  23  26
ENDBRANCH  14  17
ENDBRANCH  12  13
ENDBRANCH   2  12
BRANCH   1  30
HETATM   30  C   UNL     1      25.268  45.619  50.799  1.00  0.00     0.006 A 
HETATM   31  C   UNL     1      26.044  46.800  50.683  1.00  0.00     0.077 A 
HETATM   32  C   UNL     1      26.399  47.525  51.827  1.00  0.00     0.037 A 
HETATM   33  C   UNL     1      26.003  47.095  53.092  1.00  0.00     0.003 A 
HETATM   34  C   UNL     1      25.258  45.933  53.224  1.00  0.00     0.001 A 
HETATM   35  C   UNL     1      24.897  45.203  52.090  1.00  0.00     0.012 A 
BRANCH  31  36
HETATM   36  O   UNL     1      26.415  47.146  49.409  1.00  0.00    -0.351 OA
BRANCH  36  37
HETATM   37  C   UNL     1      27.751  47.583  49.149  1.00  0.00     0.171 C 
HETATM   38  C   UNL     1      27.833  49.099  49.077  1.00  0.00     0.034 C 
ENDBRANCH  36  37
ENDBRANCH  31  36
ENDBRANCH   1  30
BRANCH   6  39
HETATM   39  O   UNL     1      24.493  42.446  51.420  1.00  0.00    -0.389 OA
HETATM   40  H   UNL     1      23.610  42.761  51.689  1.00  0.00     0.210 HD
ENDBRANCH   6  39
TORSDOF 9
ENDMDL
MODEL 2
REMARK VINA RESULT:      -8.7      1.555      2.524
REMARK  9 active torsions:
REMARK  status: ('A' for Active; 'I' for Inactive)
REMARK    1  A    between atoms: C_2  and  O_3 
REMARK    2  A    between atoms: O_3  and  C_4 
REMARK    3  A    between atoms: C_5  and  C_6 
REMARK    4  A    between atoms: N_7  and  C_9 
REMARK    5  A    between atoms: C_9  and  C_10 
REMARK       I    between atoms: C_10  and  N_11 
REMARK    6  A    between atoms: N_11  and  C_12 
REMARK    7  A    between atoms: C_20  and  C_21 
REMARK    8  A    between atoms: C_21  and  O_22 
REMARK    9  A    between atoms: C_28  and  O_29 
ROOT
HETATM    1  C   UNL     1      24.605  45.162  49.866  1.00  0.00     0.231 C 
HETATM    2  N   UNL     1      23.091  45.330  49.603  1.00  0.00    -0.054 N 
HETATM    3  H   UNL     1      22.845  46.104  50.241  1.00  0.00     0.281 HD
HETATM    4  C   UNL     1      22.229  44.153  49.956  1.00  0.00     0.239 C 
HETATM    5  C   UNL     1      22.753  42.876  49.323  1.00  0.00     0.066 C 
HETATM    6  C   UNL     1      24.191  42.590  49.765  1.00  0.00     0.065 C 
HETATM    7  C   UNL     1      25.095  43.772  49.371  1.00  0.00     0.055 C 
HETATM    8  C   UNL     1      24.694  41.282  49.122  1.00  0.00     0.038 C 
HETATM    9  C   UNL     1      26.173  41.008  49.406  1.00  0.00     0.003 C 
HETATM   10  C   UNL     1      27.055  42.200  49.053  1.00  0.00     0.001 C 
HETATM   11  C   UNL     1      26.570  43.492  49.710  1.00  0.00     0.010 C 
ENDROOT
BRANCH   2  12
HETATM   12  C   UNL     1      22.768  45.902  48.212  1.00  0.00     0.338 C 
BRANCH  12  13
HETATM   13  C   UNL     1      22.085  47.273  48.274  1.00  0.00     0.248 C 
HETATM   14  N   UNL     1      20.990  47.293  49.115  1.00  0.00    -0.319 N 
HETATM   15  H   UNL     1      20.975  46.665  49.921  1.00  0.00     0.169 HD
HETATM   16  O   UNL     1      22.559  48.218  47.651  1.00  0.00    -0.271 OA
BRANCH  14  17
HETATM   17  C   UNL     1      20.072  48.332  49.199  1.00  0.00     0.094 A 
HETATM   18  S   UNL     1      20.547  49.836  49.821  1.00  0.00    -0.075 SA
HETATM   19  C   UNL     1      19.037  50.524  49.470  1.00  0.00    -0.008 A 
HETATM   20  C   UNL     1      18.160  49.627  48.885  1.00  0.00    -0.026 A 
HETATM   21  C   UNL     1      18.749  51.968  49.749  1.00  0.00     0.047 C 
HETATM   22  C   UNL     1      16.761  50.040  48.513  1.00  0.00     0.041 C 
HETATM   23  C   UNL     1      18.766  48.322  48.725  1.00  0.00     0.080 A 
HETATM   24  C   UNL     1      16.586  51.566  48.493  1.00  0.00     0.005 C 
HETATM   25  C   UNL     1      17.238  52.231  49.710  1.00  0.00     0.005 C 
BRANCH  23  26
HETATM   26  C   UNL     1      18.169  47.096  48.183  1.00  0.00     0.296 C 
HETATM   27  O   UNL     1      17.155  46.597  48.669  1.00  0.00    -0.259 OA
BRANCH  26  28
HETATM   28  O   UNL     1      18.815  46.614  47.088  1.00  0.00    -0.322 OA
HETATM   29  C   UNL     1      18.966  45.193  47.059  1.00  0.00     0.213 C 
ENDBRANCH  26  28
ENDBRANCH  23  26
ENDBRANCH  14  17
ENDBRANCH  12  13
ENDBRANCH   2  12
BRANCH   1  30
HETATM   30  C   UNL     1      25.046  45.624  51.255  1.00  0.00     0.006 A 
HETATM   31  C   UNL     1      25.433  46.973  51.459  1.00  0.00     0.077 A 
HETATM   32  C   UNL     1      25.820  47.410  52.732  1.00  0.00     0.037 A 
HETATM   33  C   UNL     1      25.839  46.529  53.810  1.00  0.00     0.003 A 
HETATM   34  C   UNL     1      25.481  45.203  53.625  1.00  0.00     0.001 A 
HETATM   35  C   UNL     1      25.091  44.756  52.361  1.00  0.00     0.012 A 
BRANCH  31  36
HETATM   36  O   UNL     1      25.411  47.773  50.346  1.00  0.00    -0.351 OA
BRANCH  36  37
HETATM   37  C   UNL     1      26.635  48.129  49.699  1.00  0.00     0.171 C 
HETATM   38  C   UNL     1      26.453  49.338  48.796  1.00  0.00     0.034 C 
ENDBRANCH  36  37
ENDBRANCH  31  36
ENDBRANCH   1  30
BRANCH   6  39
HETATM   39  O   UNL     1      24.152  42.422  51.178  1.00  0.00    -0.389 OA
HETATM   40  H   UNL     1      23.574  41.672  51.411  1.00  0.00     0.210 HD
ENDBRANCH   6  39
TORSDOF 9
ENDMDL
MODEL 3
REMARK VINA RESULT:      -8.5      2.069      3.151
REMARK  9 active torsions:
REMARK  status: ('A' for Active; 'I' for Inactive)
REMARK    1  A    between atoms: C_2  and  O_3 
REMARK    2  A    between atoms: O_3  and  C_4 
REMARK    3  A    between atoms: C_5  and  C_6 
REMARK    4  A    between atoms: N_7  and  C_9 
REMARK    5  A    between atoms: C_9  and  C_10 
REMARK       I    between atoms: C_10  and  N_11 
REMARK    6  A    between atoms: N_11  and  C_12 
REMARK    7  A    between atoms: C_20  and  C_21 
REMARK    8  A    between atoms: C_21  and  O_22 
REMARK    9  A    between atoms: C_28  and  O_29 
ROOT
HETATM    1  C   UNL     1      26.889  42.881  50.126  1.00  0.00     0.231 C 
HETATM    2  N   UNL     1      25.467  43.485  50.189  1.00  0.00    -0.054 N 
HETATM    3  H   UNL     1      25.473  43.959  51.107  1.00  0.00     0.281 HD
HETATM    4  C   UNL     1      24.335  42.501  50.188  1.00  0.00     0.239 C 
HETATM    5  C   UNL     1      24.458  41.520  49.035  1.00  0.00     0.066 C 
HETATM    6  C   UNL     1      25.783  40.755  49.100  1.00  0.00     0.065 C 
HETATM    7  C   UNL     1      26.955  41.752  49.060  1.00  0.00     0.055 C 
HETATM    8  C   UNL     1      25.878  39.755  47.930  1.00  0.00     0.038 C 
HETATM    9  C   UNL     1      27.237  39.057  47.850  1.00  0.00     0.003 C 
HETATM   10  C   UNL     1      28.393  40.051  47.854  1.00  0.00     0.001 C 
HETATM   11  C   UNL     1      28.313  41.025  49.029  1.00  0.00     0.010 C 
ENDROOT
BRANCH   2  12
HETATM   12  C   UNL     1      25.246  44.642  49.199  1.00  0.00     0.338 C 
BRANCH  12  13
HETATM   13  C   UNL     1      24.064  45.539  49.582  1.00  0.00     0.248 C 
HETATM   14  N   UNL     1      23.535  46.223  48.506  1.00  0.00    -0.319 N 
HETATM   15  H   UNL     1      23.591  45.802  47.577  1.00  0.00     0.169 HD
HETATM   16  O   UNL     1      23.658  45.548  50.741  1.00  0.00    -0.271 OA
BRANCH  14  17
HETATM   17  C   UNL     1      22.605  47.251  48.599  1.00  0.00     0.094 A 
HETATM   18  S   UNL     1      20.954  46.892  48.749  1.00  0.00    -0.075 SA
HETATM   19  C   UNL     1      20.555  48.529  48.940  1.00  0.00    -0.008 A 
HETATM   20  C   UNL     1      21.660  49.361  48.888  1.00  0.00    -0.026 A 
HETATM   21  C   UNL     1      19.142  48.969  49.176  1.00  0.00     0.047 C 
HETATM   22  C   UNL     1      21.514  50.854  49.020  1.00  0.00     0.041 C 
HETATM   23  C   UNL     1      22.880  48.610  48.681  1.00  0.00     0.080 A 
HETATM   24  C   UNL     1      20.143  51.261  49.582  1.00  0.00     0.005 C 
HETATM   25  C   UNL     1      19.001  50.476  48.926  1.00  0.00     0.005 C 
BRANCH  23  26
HETATM   26  C   UNL     1      24.251  49.113  48.536  1.00  0.00     0.296 C 
HETATM   27  O   UNL     1      24.584  49.828  47.593  1.00  0.00    -0.259 OA
BRANCH  26  28
HETATM   28  O   UNL     1      25.075  48.750  49.556  1.00  0.00    -0.322 OA
HETATM   29  C   UNL     1      26.454  48.635  49.199  1.00  0.00     0.213 C 
ENDBRANCH  26  28
ENDBRANCH  23  26
ENDBRANCH  14  17
ENDBRANCH  12  13
ENDBRANCH   2  12
BRANCH   1  30
HETATM   30  C   UNL     1      27.506  42.609  51.498  1.00  0.00     0.006 A 
HETATM   31  C   UNL     1      27.530  43.636  52.476  1.00  0.00     0.077 A 
HETATM   32  C   UNL     1      28.076  43.391  53.742  1.00  0.00     0.037 A 
HETATM   33  C   UNL     1      28.609  42.142  54.056  1.00  0.00     0.003 A 
HETATM   34  C   UNL     1      28.609  41.133  53.106  1.00  0.00     0.001 A 
HETATM   35  C   UNL     1      28.066  41.365  51.841  1.00  0.00     0.012 A 
BRANCH  31  36
HETATM   36  O   UNL     1      27.009  44.842  52.085  1.00  0.00    -0.351 OA
BRANCH  36  37
HETATM   37  C   UNL     1      26.286  45.644  53.022  1.00  0.00     0.171 C 
HETATM   38  C   UNL     1      26.143  47.075  52.531  1.00  0.00     0.034 C 
ENDBRANCH  36  37
ENDBRANCH  31  36
ENDBRANCH   1  30
BRANCH   6  39
HETATM   39  O   UNL     1      25.768  40.028  50.325  1.00  0.00    -0.389 OA
HETATM   40  H   UNL     1      26.228  39.175  50.214  1.00  0.00     0.210 HD
ENDBRANCH   6  39
TORSDOF 9
ENDMDL
MODEL 4
REMARK VINA RESULT:      -8.3      3.137      7.972
REMARK  9 active torsions:
REMARK  status: ('A' for Active; 'I' for Inactive)
REMARK    1  A    between atoms: C_2  and  O_3 
REMARK    2  A    between atoms: O_3  and  C_4 
REMARK    3  A    between atoms: C_5  and  C_6 
REMARK    4  A    between atoms: N_7  and  C_9 
REMARK    5  A    between atoms: C_9  and  C_10 
REMARK       I    between atoms: C_10  and  N_11 
REMARK    6  A    between atoms: N_11  and  C_12 
REMARK    7  A    between atoms: C_20  and  C_21 
REMARK    8  A    between atoms: C_21  and  O_22 
REMARK    9  A    between atoms: C_28  and  O_29 
ROOT
HETATM    1  C   UNL     1      22.397  46.572  48.969  1.00  0.00     0.231 C 
HETATM    2  N   UNL     1      23.469  45.483  48.734  1.00  0.00    -0.054 N 
HETATM    3  H   UNL     1      24.347  46.021  48.816  1.00  0.00     0.281 HD
HETATM    4  C   UNL     1      23.456  44.830  47.383  1.00  0.00     0.239 C 
HETATM    5  C   UNL     1      22.070  44.315  47.034  1.00  0.00     0.066 C 
HETATM    6  C   UNL     1      21.040  45.447  47.050  1.00  0.00     0.065 C 
HETATM    7  C   UNL     1      21.014  46.099  48.443  1.00  0.00     0.055 C 
HETATM    8  C   UNL     1      19.646  44.903  46.677  1.00  0.00     0.038 C 
HETATM    9  C   UNL     1      18.540  45.952  46.811  1.00  0.00     0.003 C 
HETATM   10  C   UNL     1      18.550  46.622  48.180  1.00  0.00     0.001 C 
HETATM   11  C   UNL     1      19.925  47.184  48.538  1.00  0.00     0.010 C 
ENDROOT
BRANCH   2  12
HETATM   12  C   UNL     1      23.573  44.465  49.882  1.00  0.00     0.338 C 
BRANCH  12  13
HETATM   13  C   UNL     1      25.014  44.242  50.356  1.00  0.00     0.248 C 
HETATM   14  N   UNL     1      25.091  43.791  51.658  1.00  0.00    -0.319 N 
HETATM   15  H   UNL     1      24.325  43.226  52.031  1.00  0.00     0.169 HD
HETATM   16  O   UNL     1      25.945  44.419  49.576  1.00  0.00    -0.271 OA
BRANCH  14  17
HETATM   17  C   UNL     1      26.260  43.708  52.402  1.00  0.00     0.094 A 
HETATM   18  S   UNL     1      27.609  42.895  51.774  1.00  0.00    -0.075 SA
HETATM   19  C   UNL     1      28.568  43.340  53.100  1.00  0.00    -0.008 A 
HETATM   20  C   UNL     1      27.881  44.101  54.030  1.00  0.00    -0.026 A 
HETATM   21  C   UNL     1      30.015  42.955  53.186  1.00  0.00     0.047 C 
HETATM   22  C   UNL     1      28.554  44.582  55.288  1.00  0.00     0.041 C 
HETATM   23  C   UNL     1      26.509  44.320  53.624  1.00  0.00     0.080 A 
HETATM   24  C   UNL     1      30.084  44.472  55.214  1.00  0.00     0.005 C 
HETATM   25  C   UNL     1      30.533  43.132  54.619  1.00  0.00     0.005 C 
BRANCH  23  26
HETATM   26  C   UNL     1      25.448  45.040  54.338  1.00  0.00     0.296 C 
HETATM   27  O   UNL     1      24.384  44.502  54.634  1.00  0.00    -0.259 OA
BRANCH  26  28
HETATM   28  O   UNL     1      25.783  46.317  54.665  1.00  0.00    -0.322 OA
HETATM   29  C   UNL     1      25.792  47.234  53.569  1.00  0.00     0.213 C 
ENDBRANCH  26  28
ENDBRANCH  23  26
ENDBRANCH  14  17
ENDBRANCH  12  13
ENDBRANCH   2  12
BRANCH   1  30
HETATM   30  C   UNL     1      22.860  47.983  48.603  1.00  0.00     0.006 A 
HETATM   31  C   UNL     1      24.153  48.422  48.986  1.00  0.00     0.077 A 
HETATM   32  C   UNL     1      24.592  49.706  48.639  1.00  0.00     0.037 A 
HETATM   33  C   UNL     1      23.767  50.570  47.922  1.00  0.00     0.003 A 
HETATM   34  C   UNL     1      22.494  50.162  47.555  1.00  0.00     0.001 A 
HETATM   35  C   UNL     1      22.045  48.884  47.894  1.00  0.00     0.012 A 
BRANCH  31  36
HETATM   36  O   UNL     1      24.896  47.525  49.708  1.00  0.00    -0.351 OA
BRANCH  36  37
HETATM   37  C   UNL     1      26.173  47.909  50.224  1.00  0.00     0.171 C 
HETATM   38  C   UNL     1      27.288  47.575  49.246  1.00  0.00     0.034 C 
ENDBRANCH  36  37
ENDBRANCH  31  36
ENDBRANCH   1  30
BRANCH   6  39
HETATM   39  O   UNL     1      21.451  46.379  46.054  1.00  0.00    -0.389 OA
HETATM   40  H   UNL     1      22.359  46.686  46.236  1.00  0.00     0.210 HD
ENDBRANCH   6  39
TORSDOF 9
ENDMDL
MODEL 5
REMARK VINA RESULT:      -8.0      2.647      8.148
REMARK  9 active torsions:
REMARK  status: ('A' for Active; 'I' for Inactive)
REMARK    1  A    between atoms: C_2  and  O_3 
REMARK    2  A    between atoms: O_3  and  C_4 
REMARK    3  A    between atoms: C_5  and  C_6 
REMARK    4  A    between atoms: N_7  and  C_9 
REMARK    5  A    between atoms: C_9  and  C_10 
REMARK       I    between atoms: C_10  and  N_11 
REMARK    6  A    between atoms: N_11  and  C_12 
REMARK    7  A    between atoms: C_20  and  C_21 
REMARK    8  A    between atoms: C_21  and  O_22 
REMARK    9  A    between atoms: C_28  and  O_29 
ROOT
HETATM    1  C   UNL     1      21.481  46.857  48.815  1.00  0.00     0.231 C 
HETATM    2  N   UNL     1      22.227  45.710  48.095  1.00  0.00    -0.054 N 
HETATM    3  H   UNL     1      23.178  46.100  47.994  1.00  0.00     0.281 HD
HETATM    4  C   UNL     1      21.726  45.360  46.724  1.00  0.00     0.239 C 
HETATM    5  C   UNL     1      20.228  45.115  46.730  1.00  0.00     0.066 C 
HETATM    6  C   UNL     1      19.469  46.344  47.238  1.00  0.00     0.065 C 
HETATM    7  C   UNL     1      19.944  46.690  48.661  1.00  0.00     0.055 C 
HETATM    8  C   UNL     1      17.951  46.077  47.220  1.00  0.00     0.038 C 
HETATM    9  C   UNL     1      17.138  47.211  47.849  1.00  0.00     0.003 C 
HETATM   10  C   UNL     1      17.642  47.574  49.241  1.00  0.00     0.001 C 
HETATM   11  C   UNL     1      19.143  47.864  49.254  1.00  0.00     0.010 C 
ENDROOT
BRANCH   2  12
HETATM   12  C   UNL     1      22.447  44.470  48.978  1.00  0.00     0.338 C 
BRANCH  12  13
HETATM   13  C   UNL     1      23.908  44.292  49.405  1.00  0.00     0.248 C 
HETATM   14  N   UNL     1      24.039  43.745  50.666  1.00  0.00    -0.319 N 
HETATM   15  H   UNL     1      23.314  43.111  51.007  1.00  0.00     0.169 HD
HETATM   16  O   UNL     1      24.810  44.580  48.624  1.00  0.00    -0.271 OA
BRANCH  14  17
HETATM   17  C   UNL     1      25.229  43.669  51.379  1.00  0.00     0.094 A 
HETATM   18  S   UNL     1      25.460  44.639  52.751  1.00  0.00    -0.075 SA
HETATM   19  C   UNL     1      26.949  43.904  53.092  1.00  0.00    -0.008 A 
HETATM   20  C   UNL     1      27.289  42.924  52.174  1.00  0.00    -0.026 A 
HETATM   21  C   UNL     1      27.755  44.285  54.297  1.00  0.00     0.047 C 
HETATM   22  C   UNL     1      28.583  42.165  52.293  1.00  0.00     0.041 C 
HETATM   23  C   UNL     1      26.274  42.782  51.151  1.00  0.00     0.080 A 
HETATM   24  C   UNL     1      29.230  42.321  53.677  1.00  0.00     0.005 C 
HETATM   25  C   UNL     1      29.195  43.775  54.164  1.00  0.00     0.005 C 
BRANCH  23  26
HETATM   26  C   UNL     1      26.266  41.888  49.989  1.00  0.00     0.296 C 
HETATM   27  O   UNL     1      25.479  40.949  49.896  1.00  0.00    -0.259 OA
BRANCH  26  28
HETATM   28  O   UNL     1      27.168  42.233  49.031  1.00  0.00    -0.322 OA
HETATM   29  C   UNL     1      27.613  41.151  48.210  1.00  0.00     0.213 C 
ENDBRANCH  26  28
ENDBRANCH  23  26
ENDBRANCH  14  17
ENDBRANCH  12  13
ENDBRANCH   2  12
BRANCH   1  30
HETATM   30  C   UNL     1      22.081  48.240  48.559  1.00  0.00     0.006 A 
HETATM   31  C   UNL     1      23.418  48.511  48.945  1.00  0.00     0.077 A 
HETATM   32  C   UNL     1      23.982  49.769  48.698  1.00  0.00     0.037 A 
HETATM   33  C   UNL     1      23.239  50.771  48.079  1.00  0.00     0.003 A 
HETATM   34  C   UNL     1      21.925  50.528  47.710  1.00  0.00     0.001 A 
HETATM   35  C   UNL     1      21.352  49.278  47.950  1.00  0.00     0.012 A 
BRANCH  31  36
HETATM   36  O   UNL     1      24.076  47.483  49.569  1.00  0.00    -0.351 OA
BRANCH  36  37
HETATM   37  C   UNL     1      25.158  47.766  50.460  1.00  0.00     0.171 C 
HETATM   38  C   UNL     1      26.487  47.314  49.878  1.00  0.00     0.034 C 
ENDBRANCH  36  37
ENDBRANCH  31  36
ENDBRANCH   1  30
BRANCH   6  39
HETATM   39  O   UNL     1      19.760  47.401  46.329  1.00  0.00    -0.389 OA
HETATM   40  H   UNL     1      20.669  47.727  46.473  1.00  0.00     0.210 HD
ENDBRANCH   6  39
TORSDOF 9
ENDMDL
MODEL 6
REMARK VINA RESULT:      -7.8      5.733      8.587
REMARK  9 active torsions:
REMARK  status: ('A' for Active; 'I' for Inactive)
REMARK    1  A    between atoms: C_2  and  O_3 
REMARK    2  A    between atoms: O_3  and  C_4 
REMARK    3  A    between atoms: C_5  and  C_6 
REMARK    4  A    between atoms: N_7  and  C_9 
REMARK    5  A    between atoms: C_9  and  C_10 
REMARK       I    between atoms: C_10  and  N_11 
REMARK    6  A    between atoms: N_11  and  C_12 
REMARK    7  A    between atoms: C_20  and  C_21 
REMARK    8  A    between atoms: C_21  and  O_22 
REMARK    9  A    between atoms: C_28  and  O_29 
ROOT
HETATM    1  C   UNL     1      26.234  40.428  47.140  1.00  0.00     0.231 C 
HETATM    2  N   UNL     1      26.942  41.262  48.232  1.00  0.00    -0.054 N 
HETATM    3  H   UNL     1      27.301  42.067  47.693  1.00  0.00     0.281 HD
HETATM    4  C   UNL     1      28.110  40.604  48.907  1.00  0.00     0.239 C 
HETATM    5  C   UNL     1      27.742  39.225  49.427  1.00  0.00     0.066 C 
HETATM    6  C   UNL     1      27.247  38.322  48.294  1.00  0.00     0.065 C 
HETATM    7  C   UNL     1      26.022  38.966  47.620  1.00  0.00     0.055 C 
HETATM    8  C   UNL     1      26.894  36.925  48.843  1.00  0.00     0.038 C 
HETATM    9  C   UNL     1      26.258  36.013  47.792  1.00  0.00     0.003 C 
HETATM   10  C   UNL     1      25.072  36.676  47.100  1.00  0.00     0.001 C 
HETATM   11  C   UNL     1      25.429  38.050  46.534  1.00  0.00     0.010 C 
ENDROOT
BRANCH   2  12
HETATM   12  C   UNL     1      25.972  41.913  49.233  1.00  0.00     0.338 C 
BRANCH  12  13
HETATM   13  C   UNL     1      26.593  43.097  49.983  1.00  0.00     0.248 C 
HETATM   14  N   UNL     1      26.547  42.951  51.355  1.00  0.00    -0.319 N 
HETATM   15  H   UNL     1      26.571  42.010  51.753  1.00  0.00     0.169 HD
HETATM   16  O   UNL     1      27.106  44.016  49.351  1.00  0.00    -0.271 OA
BRANCH  14  17
HETATM   17  C   UNL     1      26.844  43.952  52.271  1.00  0.00     0.094 A 
HETATM   18  S   UNL     1      25.772  45.248  52.489  1.00  0.00    -0.075 SA
HETATM   19  C   UNL     1      26.701  45.879  53.760  1.00  0.00    -0.008 A 
HETATM   20  C   UNL     1      27.829  45.123  54.029  1.00  0.00    -0.026 A 
HETATM   21  C   UNL     1      26.278  47.109  54.505  1.00  0.00     0.047 C 
HETATM   22  C   UNL     1      28.794  45.526  55.112  1.00  0.00     0.041 C 
HETATM   23  C   UNL     1      27.923  43.979  53.146  1.00  0.00     0.080 A 
HETATM   24  C   UNL     1      28.198  46.571  56.068  1.00  0.00     0.005 C 
HETATM   25  C   UNL     1      27.452  47.677  55.313  1.00  0.00     0.005 C 
BRANCH  23  26
HETATM   26  C   UNL     1      28.974  42.958  53.081  1.00  0.00     0.296 C 
HETATM   27  O   UNL     1      30.115  43.222  52.708  1.00  0.00    -0.259 OA
BRANCH  26  28
HETATM   28  O   UNL     1      28.569  41.732  53.510  1.00  0.00    -0.322 OA
HETATM   29  C   UNL     1      28.914  40.650  52.642  1.00  0.00     0.213 C 
ENDBRANCH  26  28
ENDBRANCH  23  26
ENDBRANCH  14  17
ENDBRANCH  12  13
ENDBRANCH   2  12
BRANCH   1  30
HETATM   30  C   UNL     1      26.797  40.647  45.735  1.00  0.00     0.006 A 
HETATM   31  C   UNL     1      25.921  40.964  44.666  1.00  0.00     0.077 A 
HETATM   32  C   UNL     1      26.429  41.184  43.380  1.00  0.00     0.037 A 
HETATM   33  C   UNL     1      27.796  41.087  43.130  1.00  0.00     0.003 A 
HETATM   34  C   UNL     1      28.665  40.761  44.160  1.00  0.00     0.001 A 
HETATM   35  C   UNL     1      28.170  40.541  45.447  1.00  0.00     0.012 A 
BRANCH  31  36
HETATM   36  O   UNL     1      24.589  41.018  44.985  1.00  0.00    -0.351 OA
BRANCH  36  37
HETATM   37  C   UNL     1      23.881  42.256  44.883  1.00  0.00     0.171 C 
HETATM   38  C   UNL     1      23.429  42.749  46.248  1.00  0.00     0.034 C 
ENDBRANCH  36  37
ENDBRANCH  31  36
ENDBRANCH   1  30
BRANCH   6  39
HETATM   39  O   UNL     1      28.330  38.195  47.378  1.00  0.00    -0.389 OA
HETATM   40  H   UNL     1      27.992  38.146  46.464  1.00  0.00     0.210 HD
ENDBRANCH   6  39
TORSDOF 9
ENDMDL
MODEL 7
REMARK VINA RESULT:      -7.8      3.121      8.272
REMARK  9 active torsions:
REMARK  status: ('A' for Active; 'I' for Inactive)
REMARK    1  A    between atoms: C_2  and  O_3 
REMARK    2  A    between atoms: O_3  and  C_4 
REMARK    3  A    between atoms: C_5  and  C_6 
REMARK    4  A    between atoms: N_7  and  C_9 
REMARK    5  A    between atoms: C_9  and  C_10 
REMARK       I    between atoms: C_10  and  N_11 
REMARK    6  A    between atoms: N_11  and  C_12 
REMARK    7  A    between atoms: C_20  and  C_21 
REMARK    8  A    between atoms: C_21  and  O_22 
REMARK    9  A    between atoms: C_28  and  O_29 
ROOT
HETATM    1  C   UNL     1      22.670  46.619  49.125  1.00  0.00     0.231 C 
HETATM    2  N   UNL     1      23.805  45.590  48.918  1.00  0.00    -0.054 N 
HETATM    3  H   UNL     1      24.648  46.186  48.957  1.00  0.00     0.281 HD
HETATM    4  C   UNL     1      23.809  44.873  47.600  1.00  0.00     0.239 C 
HETATM    5  C   UNL     1      22.453  44.256  47.304  1.00  0.00     0.066 C 
HETATM    6  C   UNL     1      21.353  45.320  47.289  1.00  0.00     0.065 C 
HETATM    7  C   UNL     1      21.310  46.036  48.651  1.00  0.00     0.055 C 
HETATM    8  C   UNL     1      19.990  44.672  46.971  1.00  0.00     0.038 C 
HETATM    9  C   UNL     1      18.822  45.654  47.079  1.00  0.00     0.003 C 
HETATM   10  C   UNL     1      18.813  46.389  48.415  1.00  0.00     0.001 C 
HETATM   11  C   UNL     1      20.156  47.053  48.718  1.00  0.00     0.010 C 
ENDROOT
BRANCH   2  12
HETATM   12  C   UNL     1      23.994  44.636  50.110  1.00  0.00     0.338 C 
BRANCH  12  13
HETATM   13  C   UNL     1      25.426  44.639  50.657  1.00  0.00     0.248 C 
HETATM   14  N   UNL     1      25.498  44.277  51.987  1.00  0.00    -0.319 N 
HETATM   15  H   UNL     1      24.796  43.636  52.363  1.00  0.00     0.169 HD
HETATM   16  O   UNL     1      26.363  44.895  49.906  1.00  0.00    -0.271 OA
BRANCH  14  17
HETATM   17  C   UNL     1      26.630  44.396  52.783  1.00  0.00     0.094 A 
HETATM   18  S   UNL     1      26.773  45.692  53.867  1.00  0.00    -0.075 SA
HETATM   19  C   UNL     1      28.222  45.078  54.499  1.00  0.00    -0.008 A 
HETATM   20  C   UNL     1      28.614  43.895  53.897  1.00  0.00    -0.026 A 
HETATM   21  C   UNL     1      28.942  45.766  55.620  1.00  0.00     0.047 C 
HETATM   22  C   UNL     1      29.885  43.199  54.307  1.00  0.00     0.041 C 
HETATM   23  C   UNL     1      27.675  43.486  52.874  1.00  0.00     0.080 A 
HETATM   24  C   UNL     1      30.429  43.715  55.648  1.00  0.00     0.005 C 
HETATM   25  C   UNL     1      30.380  45.245  55.734  1.00  0.00     0.005 C 
BRANCH  23  26
HETATM   26  C   UNL     1      27.741  42.319  51.987  1.00  0.00     0.296 C 
HETATM   27  O   UNL     1      27.848  42.434  50.768  1.00  0.00    -0.259 OA
BRANCH  26  28
HETATM   28  O   UNL     1      27.717  41.131  52.649  1.00  0.00    -0.322 OA
HETATM   29  C   UNL     1      28.843  40.286  52.403  1.00  0.00     0.213 C 
ENDBRANCH  26  28
ENDBRANCH  23  26
ENDBRANCH  14  17
ENDBRANCH  12  13
ENDBRANCH   2  12
BRANCH   1  30
HETATM   30  C   UNL     1      23.034  48.037  48.684  1.00  0.00     0.006 A 
HETATM   31  C   UNL     1      24.318  48.561  48.984  1.00  0.00     0.077 A 
HETATM   32  C   UNL     1      24.667  49.851  48.568  1.00  0.00     0.037 A 
HETATM   33  C   UNL     1      23.761  50.640  47.863  1.00  0.00     0.003 A 
HETATM   34  C   UNL     1      22.496  50.150  47.576  1.00  0.00     0.001 A 
HETATM   35  C   UNL     1      22.137  48.864  47.984  1.00  0.00     0.012 A 
BRANCH  31  36
HETATM   36  O   UNL     1      25.144  47.734  49.700  1.00  0.00    -0.351 OA
BRANCH  36  37
HETATM   37  C   UNL     1      26.413  48.213  50.153  1.00  0.00     0.171 C 
HETATM   38  C   UNL     1      27.478  48.060  49.080  1.00  0.00     0.034 C 
ENDBRANCH  36  37
ENDBRANCH  31  36
ENDBRANCH   1  30
BRANCH   6  39
HETATM   39  O   UNL     1      21.685  46.227  46.242  1.00  0.00    -0.389 OA
HETATM   40  H   UNL     1      20.900  46.407  45.692  1.00  0.00     0.210 HD
ENDBRANCH   6  39
TORSDOF 9
ENDMDL
MODEL 8
REMARK VINA RESULT:      -7.8      3.216      8.393
REMARK  9 active torsions:
REMARK  status: ('A' for Active; 'I' for Inactive)
REMARK    1  A    between atoms: C_2  and  O_3 
REMARK    2  A    between atoms: O_3  and  C_4 
REMARK    3  A    between atoms: C_5  and  C_6 
REMARK    4  A    between atoms: N_7  and  C_9 
REMARK    5  A    between atoms: C_9  and  C_10 
REMARK       I    between atoms: C_10  and  N_11 
REMARK    6  A    between atoms: N_11  and  C_12 
REMARK    7  A    between atoms: C_20  and  C_21 
REMARK    8  A    between atoms: C_21  and  O_22 
REMARK    9  A    between atoms: C_28  and  O_29 
ROOT
HETATM    1  C   UNL     1      21.744  46.637  48.969  1.00  0.00     0.231 C 
HETATM    2  N   UNL     1      23.150  45.995  48.984  1.00  0.00    -0.054 N 
HETATM    3  H   UNL     1      23.753  46.797  49.226  1.00  0.00     0.281 HD
HETATM    4  C   UNL     1      23.631  45.437  47.676  1.00  0.00     0.239 C 
HETATM    5  C   UNL     1      22.608  44.494  47.069  1.00  0.00     0.066 C 
HETATM    6  C   UNL     1      21.268  45.201  46.846  1.00  0.00     0.065 C 
HETATM    7  C   UNL     1      20.742  45.742  48.188  1.00  0.00     0.055 C 
HETATM    8  C   UNL     1      20.252  44.228  46.215  1.00  0.00     0.038 C 
HETATM    9  C   UNL     1      18.848  44.826  46.095  1.00  0.00     0.003 C 
HETATM   10  C   UNL     1      18.354  45.397  47.419  1.00  0.00     0.001 C 
HETATM   11  C   UNL     1      19.350  46.380  48.032  1.00  0.00     0.010 C 
ENDROOT
BRANCH   2  12
HETATM   12  C   UNL     1      23.369  45.023  50.156  1.00  0.00     0.338 C 
BRANCH  12  13
HETATM   13  C   UNL     1      24.823  44.990  50.641  1.00  0.00     0.248 C 
HETATM   14  N   UNL     1      25.081  43.945  51.505  1.00  0.00    -0.319 N 
HETATM   15  H   UNL     1      24.542  43.081  51.409  1.00  0.00     0.169 HD
HETATM   16  O   UNL     1      25.626  45.815  50.213  1.00  0.00    -0.271 OA
BRANCH  14  17
HETATM   17  C   UNL     1      26.243  43.798  52.250  1.00  0.00     0.094 A 
HETATM   18  S   UNL     1      27.590  43.018  51.578  1.00  0.00    -0.075 SA
HETATM   19  C   UNL     1      28.542  43.361  52.939  1.00  0.00    -0.008 A 
HETATM   20  C   UNL     1      27.854  44.062  53.914  1.00  0.00    -0.026 A 
HETATM   21  C   UNL     1      29.984  42.957  53.009  1.00  0.00     0.047 C 
HETATM   22  C   UNL     1      28.520  44.448  55.208  1.00  0.00     0.041 C 
HETATM   23  C   UNL     1      26.487  44.322  53.514  1.00  0.00     0.080 A 
HETATM   24  C   UNL     1      30.050  44.329  55.138  1.00  0.00     0.005 C 
HETATM   25  C   UNL     1      30.491  43.030  54.455  1.00  0.00     0.005 C 
BRANCH  23  26
HETATM   26  C   UNL     1      25.427  45.001  54.267  1.00  0.00     0.296 C 
HETATM   27  O   UNL     1      24.389  44.426  54.590  1.00  0.00    -0.259 OA
BRANCH  26  28
HETATM   28  O   UNL     1      25.731  46.284  54.599  1.00  0.00    -0.322 OA
HETATM   29  C   UNL     1      25.839  47.180  53.490  1.00  0.00     0.213 C 
ENDBRANCH  26  28
ENDBRANCH  23  26
ENDBRANCH  14  17
ENDBRANCH  12  13
ENDBRANCH   2  12
BRANCH   1  30
HETATM   30  C   UNL     1      21.753  48.136  48.665  1.00  0.00     0.006 A 
HETATM   31  C   UNL     1      20.726  48.966  49.184  1.00  0.00     0.077 A 
HETATM   32  C   UNL     1      20.736  50.342  48.926  1.00  0.00     0.037 A 
HETATM   33  C   UNL     1      21.746  50.914  48.154  1.00  0.00     0.003 A 
HETATM   34  C   UNL     1      22.747  50.114  47.626  1.00  0.00     0.001 A 
HETATM   35  C   UNL     1      22.748  48.740  47.877  1.00  0.00     0.012 A 
BRANCH  31  36
HETATM   36  O   UNL     1      19.757  48.328  49.913  1.00  0.00    -0.351 OA
BRANCH  36  37
HETATM   37  C   UNL     1      18.818  49.092  50.674  1.00  0.00     0.171 C 
HETATM   38  C   UNL     1      18.525  48.434  52.012  1.00  0.00     0.034 C 
ENDBRANCH  36  37
ENDBRANCH  31  36
ENDBRANCH   1  30
BRANCH   6  39
HETATM   39  O   UNL     1      21.520  46.261  45.929  1.00  0.00    -0.389 OA
HETATM   40  H   UNL     1      21.456  47.121  46.384  1.00  0.00     0.210 HD
ENDBRANCH   6  39
TORSDOF 9
ENDMDL
MODEL 9
REMARK VINA RESULT:      -7.7      2.328      3.966
REMARK  9 active torsions:
REMARK  status: ('A' for Active; 'I' for Inactive)
REMARK    1  A    between atoms: C_2  and  O_3 
REMARK    2  A    between atoms: O_3  and  C_4 
REMARK    3  A    between atoms: C_5  and  C_6 
REMARK    4  A    between atoms: N_7  and  C_9 
REMARK    5  A    between atoms: C_9  and  C_10 
REMARK       I    between atoms: C_10  and  N_11 
REMARK    6  A    between atoms: N_11  and  C_12 
REMARK    7  A    between atoms: C_20  and  C_21 
REMARK    8  A    between atoms: C_21  and  O_22 
REMARK    9  A    between atoms: C_28  and  O_29 
ROOT
HETATM    1  C   UNL     1      27.022  42.716  50.030  1.00  0.00     0.231 C 
HETATM    2  N   UNL     1      25.645  43.404  50.169  1.00  0.00    -0.054 N 
HETATM    3  H   UNL     1      25.722  43.861  51.092  1.00  0.00     0.281 HD
HETATM    4  C   UNL     1      24.455  42.491  50.206  1.00  0.00     0.239 C 
HETATM    5  C   UNL     1      24.465  41.524  49.035  1.00  0.00     0.066 C 
HETATM    6  C   UNL     1      25.741  40.679  49.027  1.00  0.00     0.065 C 
HETATM    7  C   UNL     1      26.970  41.603  48.947  1.00  0.00     0.055 C 
HETATM    8  C   UNL     1      25.721  39.696  47.840  1.00  0.00     0.038 C 
HETATM    9  C   UNL     1      27.029  38.917  47.687  1.00  0.00     0.003 C 
HETATM   10  C   UNL     1      28.244  39.839  47.651  1.00  0.00     0.001 C 
HETATM   11  C   UNL     1      28.277  40.796  48.841  1.00  0.00     0.010 C 
ENDROOT
BRANCH   2  12
HETATM   12  C   UNL     1      25.450  44.589  49.206  1.00  0.00     0.338 C 
BRANCH  12  13
HETATM   13  C   UNL     1      24.388  45.583  49.689  1.00  0.00     0.248 C 
HETATM   14  N   UNL     1      23.674  46.155  48.655  1.00  0.00    -0.319 N 
HETATM   15  H   UNL     1      23.537  45.621  47.795  1.00  0.00     0.169 HD
HETATM   16  O   UNL     1      24.217  45.754  50.892  1.00  0.00    -0.271 OA
BRANCH  14  17
HETATM   17  C   UNL     1      22.806  47.231  48.789  1.00  0.00     0.094 A 
HETATM   18  S   UNL     1      23.406  48.759  49.213  1.00  0.00    -0.075 SA
HETATM   19  C   UNL     1      21.879  49.474  49.033  1.00  0.00    -0.008 A 
HETATM   20  C   UNL     1      20.902  48.569  48.656  1.00  0.00    -0.026 A 
HETATM   21  C   UNL     1      21.673  50.945  49.235  1.00  0.00     0.047 C 
HETATM   22  C   UNL     1      19.474  49.004  48.460  1.00  0.00     0.041 C 
HETATM   23  C   UNL     1      21.444  47.233  48.513  1.00  0.00     0.080 A 
HETATM   24  C   UNL     1      19.338  50.530  48.345  1.00  0.00     0.005 C 
HETATM   25  C   UNL     1      20.181  51.260  49.397  1.00  0.00     0.005 C 
BRANCH  23  26
HETATM   26  C   UNL     1      20.742  45.994  48.164  1.00  0.00     0.296 C 
HETATM   27  O   UNL     1      19.858  45.525  48.878  1.00  0.00    -0.259 OA
BRANCH  26  28
HETATM   28  O   UNL     1      21.134  45.463  46.975  1.00  0.00    -0.322 OA
HETATM   29  C   UNL     1      20.454  44.263  46.602  1.00  0.00     0.213 C 
ENDBRANCH  26  28
ENDBRANCH  23  26
ENDBRANCH  14  17
ENDBRANCH  12  13
ENDBRANCH   2  12
BRANCH   1  30
HETATM   30  C   UNL     1      27.683  42.384  51.368  1.00  0.00     0.006 A 
HETATM   31  C   UNL     1      27.810  43.389  52.360  1.00  0.00     0.077 A 
HETATM   32  C   UNL     1      28.397  43.089  53.596  1.00  0.00     0.037 A 
HETATM   33  C   UNL     1      28.871  41.807  53.865  1.00  0.00     0.003 A 
HETATM   34  C   UNL     1      28.770  40.817  52.900  1.00  0.00     0.001 A 
HETATM   35  C   UNL     1      28.185  41.104  51.665  1.00  0.00     0.012 A 
BRANCH  31  36
HETATM   36  O   UNL     1      27.342  44.630  52.013  1.00  0.00    -0.351 OA
BRANCH  36  37
HETATM   37  C   UNL     1      26.737  45.466  53.002  1.00  0.00     0.171 C 
HETATM   38  C   UNL     1      25.598  44.753  53.709  1.00  0.00     0.034 C 
ENDBRANCH  36  37
ENDBRANCH  31  36
ENDBRANCH   1  30
BRANCH   6  39
HETATM   39  O   UNL     1      25.738  39.934  50.241  1.00  0.00    -0.389 OA
HETATM   40  H   UNL     1      25.905  40.525  50.998  1.00  0.00     0.210 HD
ENDBRANCH   6  39
TORSDOF 9
ENDMDL
MODEL 10
REMARK VINA RESULT:      -7.6      4.938      8.127
REMARK  9 active torsions:
REMARK  status: ('A' for Active; 'I' for Inactive)
REMARK    1  A    between atoms: C_2  and  O_3 
REMARK    2  A    between atoms: O_3  and  C_4 
REMARK    3  A    between atoms: C_5  and  C_6 
REMARK    4  A    between atoms: N_7  and  C_9 
REMARK    5  A    between atoms: C_9  and  C_10 
REMARK       I    between atoms: C_10  and  N_11 
REMARK    6  A    between atoms: N_11  and  C_12 
REMARK    7  A    between atoms: C_20  and  C_21 
REMARK    8  A    between atoms: C_21  and  O_22 
REMARK    9  A    between atoms: C_28  and  O_29 
ROOT
HETATM    1  C   UNL     1      26.304  40.441  47.048  1.00  0.00     0.231 C 
HETATM    2  N   UNL     1      26.975  41.331  48.120  1.00  0.00    -0.054 N 
HETATM    3  H   UNL     1      27.322  42.125  47.557  1.00  0.00     0.281 HD
HETATM    4  C   UNL     1      28.149  40.727  48.833  1.00  0.00     0.239 C 
HETATM    5  C   UNL     1      27.808  39.359  49.397  1.00  0.00     0.066 C 
HETATM    6  C   UNL     1      27.352  38.403  48.291  1.00  0.00     0.065 C 
HETATM    7  C   UNL     1      26.121  38.992  47.578  1.00  0.00     0.055 C 
HETATM    8  C   UNL     1      27.026  37.019  48.886  1.00  0.00     0.038 C 
HETATM    9  C   UNL     1      26.428  36.054  47.860  1.00  0.00     0.003 C 
HETATM   10  C   UNL     1      25.236  36.662  47.129  1.00  0.00     0.001 C 
HETATM   11  C   UNL     1      25.566  38.023  46.518  1.00  0.00     0.010 C 
ENDROOT
BRANCH   2  12
HETATM   12  C   UNL     1      25.975  41.993  49.083  1.00  0.00     0.338 C 
BRANCH  12  13
HETATM   13  C   UNL     1      26.615  43.081  49.953  1.00  0.00     0.248 C 
HETATM   14  N   UNL     1      26.446  42.861  51.305  1.00  0.00    -0.319 N 
HETATM   15  H   UNL     1      26.371  41.899  51.643  1.00  0.00     0.169 HD
HETATM   16  O   UNL     1      27.242  43.994  49.422  1.00  0.00    -0.271 OA
BRANCH  14  17
HETATM   17  C   UNL     1      26.736  43.783  52.303  1.00  0.00     0.094 A 
HETATM   18  S   UNL     1      28.064  43.534  53.328  1.00  0.00    -0.075 SA
HETATM   19  C   UNL     1      27.837  45.035  54.083  1.00  0.00    -0.008 A 
HETATM   20  C   UNL     1      26.758  45.737  53.572  1.00  0.00    -0.026 A 
HETATM   21  C   UNL     1      28.763  45.520  55.157  1.00  0.00     0.047 C 
HETATM   22  C   UNL     1      26.381  47.087  54.122  1.00  0.00     0.041 C 
HETATM   23  C   UNL     1      26.097  44.997  52.518  1.00  0.00     0.080 A 
HETATM   24  C   UNL     1      27.501  47.709  54.969  1.00  0.00     0.005 C 
HETATM   25  C   UNL     1      28.129  46.688  55.924  1.00  0.00     0.005 C 
BRANCH  23  26
HETATM   26  C   UNL     1      24.905  45.370  51.749  1.00  0.00     0.296 C 
HETATM   27  O   UNL     1      24.826  46.441  51.151  1.00  0.00    -0.259 OA
BRANCH  26  28
HETATM   28  O   UNL     1      23.944  44.407  51.733  1.00  0.00    -0.322 OA
HETATM   29  C   UNL     1      23.288  44.236  50.475  1.00  0.00     0.213 C 
ENDBRANCH  26  28
ENDBRANCH  23  26
ENDBRANCH  14  17
ENDBRANCH  12  13
ENDBRANCH   2  12
BRANCH   1  30
HETATM   30  C   UNL     1      26.882  40.623  45.644  1.00  0.00     0.006 A 
HETATM   31  C   UNL     1      26.013  40.883  44.554  1.00  0.00     0.077 A 
HETATM   32  C   UNL     1      26.534  41.070  43.267  1.00  0.00     0.037 A 
HETATM   33  C   UNL     1      27.906  40.996  43.039  1.00  0.00     0.003 A 
HETATM   34  C   UNL     1      28.768  40.726  44.091  1.00  0.00     0.001 A 
HETATM   35  C   UNL     1      28.260  40.540  45.378  1.00  0.00     0.012 A 
BRANCH  31  36
HETATM   36  O   UNL     1      24.676  40.917  44.853  1.00  0.00    -0.351 OA
BRANCH  36  37
HETATM   37  C   UNL     1      23.855  41.964  44.331  1.00  0.00     0.171 C 
HETATM   38  C   UNL     1      23.538  43.002  45.394  1.00  0.00     0.034 C 
ENDBRANCH  36  37
ENDBRANCH  31  36
ENDBRANCH   1  30
BRANCH   6  39
HETATM   39  O   UNL     1      28.450  38.271  47.395  1.00  0.00    -0.389 OA
HETATM   40  H   UNL     1      29.183  38.852  47.674  1.00  0.00     0.210 HD
ENDBRANCH   6  39
TORSDOF 9
ENDMDL
