MODEL 1
REMARK VINA RESULT:      -8.7      0.000      0.000
REMARK  4 active torsions:
REMARK  status: ('A' for Active; 'I' for Inactive)
REMARK    1  A    between atoms: C_9  and  C_10 
REMARK    2  A    between atoms: C_17  and  C_18 
REMARK       I    between atoms: C_18  and  N_19 
REMARK    3  A    between atoms: N_19  and  C_20 
REMARK    4  A    between atoms: C_23  and  O_24 
ROOT
HETATM    1  C   UNL     1      28.358  40.816  51.964  1.00  0.00     0.070 C 
HETATM    2  C   UNL     1      27.211  41.533  51.297  1.00  0.00     0.037 C 
HETATM    3  N   UNL     1      26.753  40.961  50.114  1.00  0.00    -0.192 N 
HETATM    4  C   UNL     1      25.591  41.313  49.530  1.00  0.00     0.725 A 
HETATM    5  N   UNL     1      24.894  42.387  50.015  1.00  0.00    -0.084 N 
HETATM    6  N   UNL     1      23.719  42.541  49.369  1.00  0.00    -0.149 NA
HETATM    7  C   UNL     1      23.798  41.549  48.474  1.00  0.00     0.275 A 
HETATM    8  N   UNL     1      24.930  40.777  48.537  1.00  0.00    -0.054 NA
HETATM    9  C   UNL     1      25.348  43.224  51.132  1.00  0.00     0.202 C 
HETATM   10  C   UNL     1      26.579  42.622  51.803  1.00  0.00     0.062 C 
HETATM   11  H   UNL     1      27.190  40.093  49.812  1.00  0.00     0.184 HD
ENDROOT
BRANCH  10  12
HETATM   12  C   UNL     1      26.925  43.269  53.096  1.00  0.00     0.256 C 
HETATM   13  N   UNL     1      28.224  43.721  53.157  1.00  0.00    -0.323 N 
HETATM   14  H   UNL     1      28.798  43.588  52.334  1.00  0.00     0.169 HD
HETATM   15  O   UNL     1      26.048  43.388  53.943  1.00  0.00    -0.267 OA
BRANCH  13  16
HETATM   16  C   UNL     1      28.858  44.347  54.251  1.00  0.00     0.035 A 
HETATM   17  C   UNL     1      28.469  45.579  54.778  1.00  0.00     0.032 A 
HETATM   18  C   UNL     1      29.147  46.124  55.874  1.00  0.00     0.039 A 
HETATM   19  C   UNL     1      30.214  45.450  56.467  1.00  0.00     0.068 A 
HETATM   20  C   UNL     1      30.608  44.221  55.945  1.00  0.00     0.039 A 
HETATM   21  C   UNL     1      29.936  43.677  54.841  1.00  0.00     0.032 A 
BRANCH  19  22
HETATM   22  O   UNL     1      30.777  46.095  57.532  1.00  0.00    -0.356 OA
HETATM   23  C   UNL     1      31.040  45.316  58.693  1.00  0.00     0.210 C 
ENDBRANCH  19  22
ENDBRANCH  13  16
ENDBRANCH  10  12
BRANCH   9  24
HETATM   24  C   UNL     1      25.604  44.655  50.657  1.00  0.00    -0.028 A 
HETATM   25  C   UNL     1      24.682  45.666  50.981  1.00  0.00     0.011 A 
HETATM   26  C   UNL     1      24.896  46.985  50.571  1.00  0.00     0.024 A 
HETATM   27  C   UNL     1      26.036  47.306  49.839  1.00  0.00     0.034 A 
HETATM   28 CL   UNL     1      26.297  48.928  49.329  1.00  0.00    -0.084 Cl
HETATM   29  C   UNL     1      26.968  46.321  49.519  1.00  0.00     0.024 A 
HETATM   30  C   UNL     1      26.757  45.003  49.930  1.00  0.00     0.011 A 
ENDBRANCH   9  24
TORSDOF 4
ENDMDL
MODEL 2
REMARK VINA RESULT:      -8.2      1.508      2.234
REMARK  4 active torsions:
REMARK  status: ('A' for Active; 'I' for Inactive)
REMARK    1  A    between atoms: C_9  and  C_10 
REMARK    2  A    between atoms: C_17  and  C_18 
REMARK       I    between atoms: C_18  and  N_19 
REMARK    3  A    between atoms: N_19  and  C_20 
REMARK    4  A    between atoms: C_23  and  O_24 
ROOT
HETATM    1  C   UNL     1      28.814  39.913  49.451  1.00  0.00     0.070 C 
HETATM    2  C   UNL     1      27.455  40.563  49.390  1.00  0.00     0.037 C 
HETATM    3  N   UNL     1      26.752  40.375  48.204  1.00  0.00    -0.192 N 
HETATM    4  C   UNL     1      25.442  40.661  48.074  1.00  0.00     0.725 A 
HETATM    5  N   UNL     1      24.792  41.314  49.087  1.00  0.00    -0.084 N 
HETATM    6  N   UNL     1      23.474  41.440  48.824  1.00  0.00    -0.149 NA
HETATM    7  C   UNL     1      23.411  40.880  47.610  1.00  0.00     0.275 A 
HETATM    8  N   UNL     1      24.594  40.394  47.114  1.00  0.00    -0.054 NA
HETATM    9  C   UNL     1      25.444  41.767  50.322  1.00  0.00     0.202 C 
HETATM   10  C   UNL     1      26.871  41.236  50.414  1.00  0.00     0.062 C 
HETATM   11  H   UNL     1      27.180  39.788  47.492  1.00  0.00     0.184 HD
ENDROOT
BRANCH  10  12
HETATM   12  C   UNL     1      27.489  41.429  51.753  1.00  0.00     0.256 C 
HETATM   13  N   UNL     1      28.099  42.654  51.907  1.00  0.00    -0.323 N 
HETATM   14  H   UNL     1      28.056  43.293  51.124  1.00  0.00     0.169 HD
HETATM   15  O   UNL     1      27.365  40.542  52.588  1.00  0.00    -0.267 OA
BRANCH  13  16
HETATM   16  C   UNL     1      28.794  43.122  53.043  1.00  0.00     0.035 A 
HETATM   17  C   UNL     1      30.018  42.611  53.474  1.00  0.00     0.032 A 
HETATM   18  C   UNL     1      30.646  43.142  54.607  1.00  0.00     0.039 A 
HETATM   19  C   UNL     1      30.071  44.193  55.321  1.00  0.00     0.068 A 
HETATM   20  C   UNL     1      28.848  44.707  54.896  1.00  0.00     0.039 A 
HETATM   21  C   UNL     1      28.214  44.170  53.767  1.00  0.00     0.032 A 
BRANCH  19  22
HETATM   22  O   UNL     1      30.795  44.616  56.399  1.00  0.00    -0.356 OA
HETATM   23  C   UNL     1      31.628  43.655  57.036  1.00  0.00     0.210 C 
ENDBRANCH  19  22
ENDBRANCH  13  16
ENDBRANCH  10  12
BRANCH   9  24
HETATM   24  C   UNL     1      25.397  43.292  50.422  1.00  0.00    -0.028 A 
HETATM   25  C   UNL     1      26.045  44.069  49.445  1.00  0.00     0.011 A 
HETATM   26  C   UNL     1      26.008  45.464  49.504  1.00  0.00     0.024 A 
HETATM   27  C   UNL     1      25.320  46.096  50.537  1.00  0.00     0.034 A 
HETATM   28 CL   UNL     1      25.280  47.815  50.615  1.00  0.00    -0.084 Cl
HETATM   29  C   UNL     1      24.662  45.344  51.508  1.00  0.00     0.024 A 
HETATM   30  C   UNL     1      24.695  43.949  51.449  1.00  0.00     0.011 A 
ENDBRANCH   9  24
TORSDOF 4
ENDMDL
MODEL 3
REMARK VINA RESULT:      -7.9      5.660      9.299
REMARK  4 active torsions:
REMARK  status: ('A' for Active; 'I' for Inactive)
REMARK    1  A    between atoms: C_9  and  C_10 
REMARK    2  A    between atoms: C_17  and  C_18 
REMARK       I    between atoms: C_18  and  N_19 
REMARK    3  A    between atoms: N_19  and  C_20 
REMARK    4  A    between atoms: C_23  and  O_24 
ROOT
HETATM    1  C   UNL     1      25.718  49.375  48.833  1.00  0.00     0.070 C 
HETATM    2  C   UNL     1      25.196  48.049  49.327  1.00  0.00     0.037 C 
HETATM    3  N   UNL     1      26.135  47.226  49.942  1.00  0.00    -0.192 N 
HETATM    4  C   UNL     1      25.798  46.136  50.658  1.00  0.00     0.725 A 
HETATM    5  N   UNL     1      24.497  45.710  50.663  1.00  0.00    -0.084 N 
HETATM    6  N   UNL     1      24.326  44.663  51.497  1.00  0.00    -0.149 NA
HETATM    7  C   UNL     1      25.580  44.484  51.927  1.00  0.00     0.275 A 
HETATM    8  N   UNL     1      26.512  45.361  51.434  1.00  0.00    -0.054 NA
HETATM    9  C   UNL     1      23.421  46.351  49.897  1.00  0.00     0.202 C 
HETATM   10  C   UNL     1      23.898  47.658  49.271  1.00  0.00     0.062 C 
HETATM   11  H   UNL     1      27.079  47.589  50.049  1.00  0.00     0.184 HD
ENDROOT
BRANCH  10  12
HETATM   12  C   UNL     1      22.794  48.485  48.714  1.00  0.00     0.256 C 
HETATM   13  N   UNL     1      22.122  49.220  49.664  1.00  0.00    -0.323 N 
HETATM   14  H   UNL     1      22.444  49.143  50.621  1.00  0.00     0.169 HD
HETATM   15  O   UNL     1      22.617  48.483  47.502  1.00  0.00    -0.267 OA
BRANCH  13  16
HETATM   16  C   UNL     1      21.017  50.073  49.457  1.00  0.00     0.035 A 
HETATM   17  C   UNL     1      21.057  51.225  48.672  1.00  0.00     0.032 A 
HETATM   18  C   UNL     1      19.909  52.009  48.510  1.00  0.00     0.039 A 
HETATM   19  C   UNL     1      18.705  51.656  49.118  1.00  0.00     0.068 A 
HETATM   20  C   UNL     1      18.659  50.507  49.904  1.00  0.00     0.039 A 
HETATM   21  C   UNL     1      19.810  49.725  50.075  1.00  0.00     0.032 A 
BRANCH  19  22
HETATM   22  O   UNL     1      17.666  52.507  48.869  1.00  0.00    -0.356 OA
HETATM   23  C   UNL     1      16.704  52.673  49.903  1.00  0.00     0.210 C 
ENDBRANCH  19  22
ENDBRANCH  13  16
ENDBRANCH  10  12
BRANCH   9  24
HETATM   24  C   UNL     1      22.866  45.388  48.847  1.00  0.00    -0.028 A 
HETATM   25  C   UNL     1      21.477  45.326  48.632  1.00  0.00     0.011 A 
HETATM   26  C   UNL     1      20.943  44.465  47.670  1.00  0.00     0.024 A 
HETATM   27  C   UNL     1      21.791  43.662  46.912  1.00  0.00     0.034 A 
HETATM   28 CL   UNL     1      21.133  42.596  45.732  1.00  0.00    -0.084 Cl
HETATM   29  C   UNL     1      23.170  43.717  47.101  1.00  0.00     0.024 A 
HETATM   30  C   UNL     1      23.706  44.580  48.059  1.00  0.00     0.011 A 
ENDBRANCH   9  24
TORSDOF 4
ENDMDL
MODEL 4
REMARK VINA RESULT:      -7.7      3.213      4.970
REMARK  4 active torsions:
REMARK  status: ('A' for Active; 'I' for Inactive)
REMARK    1  A    between atoms: C_9  and  C_10 
REMARK    2  A    between atoms: C_17  and  C_18 
REMARK       I    between atoms: C_18  and  N_19 
REMARK    3  A    between atoms: N_19  and  C_20 
REMARK    4  A    between atoms: C_23  and  O_24 
ROOT
HETATM    1  C   UNL     1      23.699  43.418  50.408  1.00  0.00     0.070 C 
HETATM    2  C   UNL     1      24.429  42.537  49.425  1.00  0.00     0.037 C 
HETATM    3  N   UNL     1      23.623  41.850  48.522  1.00  0.00    -0.192 N 
HETATM    4  C   UNL     1      24.110  41.231  47.428  1.00  0.00     0.725 A 
HETATM    5  N   UNL     1      25.464  41.124  47.263  1.00  0.00    -0.084 N 
HETATM    6  N   UNL     1      25.771  40.555  46.078  1.00  0.00    -0.149 NA
HETATM    7  C   UNL     1      24.546  40.303  45.602  1.00  0.00     0.275 A 
HETATM    8  N   UNL     1      23.502  40.698  46.400  1.00  0.00    -0.054 NA
HETATM    9  C   UNL     1      26.451  41.616  48.232  1.00  0.00     0.202 C 
HETATM   10  C   UNL     1      25.779  42.436  49.329  1.00  0.00     0.062 C 
HETATM   11  H   UNL     1      22.621  42.021  48.562  1.00  0.00     0.184 HD
ENDROOT
BRANCH  10  12
HETATM   12  C   UNL     1      26.740  43.184  50.183  1.00  0.00     0.256 C 
HETATM   13  N   UNL     1      26.972  42.591  51.403  1.00  0.00    -0.323 N 
HETATM   14  H   UNL     1      26.493  41.719  51.591  1.00  0.00     0.169 HD
HETATM   15  O   UNL     1      27.262  44.194  49.728  1.00  0.00    -0.267 OA
BRANCH  13  16
HETATM   16  C   UNL     1      27.804  43.068  52.438  1.00  0.00     0.035 A 
HETATM   17  C   UNL     1      27.419  44.038  53.364  1.00  0.00     0.032 A 
HETATM   18  C   UNL     1      28.304  44.447  54.368  1.00  0.00     0.039 A 
HETATM   19  C   UNL     1      29.579  43.894  54.470  1.00  0.00     0.068 A 
HETATM   20  C   UNL     1      29.971  42.926  53.548  1.00  0.00     0.039 A 
HETATM   21  C   UNL     1      29.088  42.521  52.537  1.00  0.00     0.032 A 
BRANCH  19  22
HETATM   22  O   UNL     1      30.333  44.381  55.500  1.00  0.00    -0.356 OA
HETATM   23  C   UNL     1      29.819  45.505  56.203  1.00  0.00     0.210 C 
ENDBRANCH  19  22
ENDBRANCH  13  16
ENDBRANCH  10  12
BRANCH   9  24
HETATM   24  C   UNL     1      27.261  40.454  48.808  1.00  0.00    -0.028 A 
HETATM   25  C   UNL     1      26.603  39.447  49.536  1.00  0.00     0.011 A 
HETATM   26  C   UNL     1      27.316  38.366  50.062  1.00  0.00     0.024 A 
HETATM   27  C   UNL     1      28.691  38.280  49.862  1.00  0.00     0.034 A 
HETATM   28 CL   UNL     1      29.571  36.953  50.515  1.00  0.00    -0.084 Cl
HETATM   29  C   UNL     1      29.359  39.261  49.133  1.00  0.00     0.024 A 
HETATM   30  C   UNL     1      28.648  40.340  48.603  1.00  0.00     0.011 A 
ENDBRANCH   9  24
TORSDOF 4
ENDMDL
MODEL 5
REMARK VINA RESULT:      -7.5     16.916     18.313
REMARK  4 active torsions:
REMARK  status: ('A' for Active; 'I' for Inactive)
REMARK    1  A    between atoms: C_9  and  C_10 
REMARK    2  A    between atoms: C_17  and  C_18 
REMARK       I    between atoms: C_18  and  N_19 
REMARK    3  A    between atoms: N_19  and  C_20 
REMARK    4  A    between atoms: C_23  and  O_24 
ROOT
HETATM    1  C   UNL     1      35.647  43.992  66.046  1.00  0.00     0.070 C 
HETATM    2  C   UNL     1      36.895  43.521  65.341  1.00  0.00     0.037 C 
HETATM    3  N   UNL     1      37.097  42.144  65.332  1.00  0.00    -0.192 N 
HETATM    4  C   UNL     1      38.006  41.541  64.542  1.00  0.00     0.725 A 
HETATM    5  N   UNL     1      38.889  42.305  63.828  1.00  0.00    -0.084 N 
HETATM    6  N   UNL     1      39.665  41.541  63.030  1.00  0.00    -0.149 NA
HETATM    7  C   UNL     1      39.222  40.320  63.352  1.00  0.00     0.275 A 
HETATM    8  N   UNL     1      38.210  40.276  64.277  1.00  0.00    -0.054 NA
HETATM    9  C   UNL     1      38.941  43.771  63.887  1.00  0.00     0.202 C 
HETATM   10  C   UNL     1      37.762  44.328  64.679  1.00  0.00     0.062 C 
HETATM   11  H   UNL     1      36.379  41.562  65.758  1.00  0.00     0.184 HD
ENDROOT
BRANCH  10  12
HETATM   12  C   UNL     1      37.606  45.802  64.549  1.00  0.00     0.256 C 
HETATM   13  N   UNL     1      38.312  46.516  65.491  1.00  0.00    -0.323 N 
HETATM   14  H   UNL     1      38.866  45.987  66.153  1.00  0.00     0.169 HD
HETATM   15  O   UNL     1      36.934  46.239  63.624  1.00  0.00    -0.267 OA
BRANCH  13  16
HETATM   16  C   UNL     1      38.344  47.919  65.649  1.00  0.00     0.035 A 
HETATM   17  C   UNL     1      37.376  48.649  66.336  1.00  0.00     0.032 A 
HETATM   18  C   UNL     1      37.491  50.039  66.455  1.00  0.00     0.039 A 
HETATM   19  C   UNL     1      38.573  50.720  65.899  1.00  0.00     0.068 A 
HETATM   20  C   UNL     1      39.543  49.997  65.209  1.00  0.00     0.039 A 
HETATM   21  C   UNL     1      39.425  48.606  65.082  1.00  0.00     0.032 A 
BRANCH  19  22
HETATM   22  O   UNL     1      38.561  52.072  66.097  1.00  0.00    -0.356 OA
HETATM   23  C   UNL     1      37.695  52.569  67.109  1.00  0.00     0.210 C 
ENDBRANCH  19  22
ENDBRANCH  13  16
ENDBRANCH  10  12
BRANCH   9  24
HETATM   24  C   UNL     1      40.280  44.235  64.461  1.00  0.00    -0.028 A 
HETATM   25  C   UNL     1      40.664  43.815  65.747  1.00  0.00     0.011 A 
HETATM   26  C   UNL     1      41.888  44.213  66.291  1.00  0.00     0.024 A 
HETATM   27  C   UNL     1      42.741  45.029  65.554  1.00  0.00     0.034 A 
HETATM   28 CL   UNL     1      44.246  45.525  66.226  1.00  0.00    -0.084 Cl
HETATM   29  C   UNL     1      42.385  45.445  64.273  1.00  0.00     0.024 A 
HETATM   30  C   UNL     1      41.164  45.046  63.726  1.00  0.00     0.011 A 
ENDBRANCH   9  24
TORSDOF 4
ENDMDL
MODEL 6
REMARK VINA RESULT:      -7.5      3.701      6.706
REMARK  4 active torsions:
REMARK  status: ('A' for Active; 'I' for Inactive)
REMARK    1  A    between atoms: C_9  and  C_10 
REMARK    2  A    between atoms: C_17  and  C_18 
REMARK       I    between atoms: C_18  and  N_19 
REMARK    3  A    between atoms: N_19  and  C_20 
REMARK    4  A    between atoms: C_23  and  O_24 
ROOT
HETATM    1  C   UNL     1      22.725  41.495  48.818  1.00  0.00     0.070 C 
HETATM    2  C   UNL     1      24.233  41.481  48.825  1.00  0.00     0.037 C 
HETATM    3  N   UNL     1      24.826  40.358  48.257  1.00  0.00    -0.192 N 
HETATM    4  C   UNL     1      26.137  40.295  47.951  1.00  0.00     0.725 A 
HETATM    5  N   UNL     1      26.970  41.304  48.353  1.00  0.00    -0.084 N 
HETATM    6  N   UNL     1      28.223  41.120  47.888  1.00  0.00    -0.149 NA
HETATM    7  C   UNL     1      28.080  39.952  47.252  1.00  0.00     0.275 A 
HETATM    8  N   UNL     1      26.819  39.411  47.270  1.00  0.00    -0.054 NA
HETATM    9  C   UNL     1      26.534  42.463  49.142  1.00  0.00     0.202 C 
HETATM   10  C   UNL     1      25.015  42.496  49.274  1.00  0.00     0.062 C 
HETATM   11  H   UNL     1      24.211  39.658  47.847  1.00  0.00     0.184 HD
ENDROOT
BRANCH  10  12
HETATM   12  C   UNL     1      24.495  43.777  49.824  1.00  0.00     0.256 C 
HETATM   13  N   UNL     1      24.467  44.800  48.904  1.00  0.00    -0.323 N 
HETATM   14  H   UNL     1      24.777  44.586  47.964  1.00  0.00     0.169 HD
HETATM   15  O   UNL     1      24.105  43.799  50.984  1.00  0.00    -0.267 OA
BRANCH  13  16
HETATM   16  C   UNL     1      24.058  46.133  49.125  1.00  0.00     0.035 A 
HETATM   17  C   UNL     1      24.825  47.082  49.801  1.00  0.00     0.032 A 
HETATM   18  C   UNL     1      24.347  48.387  49.967  1.00  0.00     0.039 A 
HETATM   19  C   UNL     1      23.107  48.769  49.457  1.00  0.00     0.068 A 
HETATM   20  C   UNL     1      22.336  47.826  48.782  1.00  0.00     0.039 A 
HETATM   21  C   UNL     1      22.809  46.516  48.622  1.00  0.00     0.032 A 
BRANCH  19  22
HETATM   22  O   UNL     1      22.772  50.074  49.685  1.00  0.00    -0.356 OA
HETATM   23  C   UNL     1      21.386  50.395  49.683  1.00  0.00     0.210 C 
ENDBRANCH  19  22
ENDBRANCH  13  16
ENDBRANCH  10  12
BRANCH   9  24
HETATM   24  C   UNL     1      27.222  42.469  50.507  1.00  0.00    -0.028 A 
HETATM   25  C   UNL     1      27.780  43.664  50.995  1.00  0.00     0.011 A 
HETATM   26  C   UNL     1      28.403  43.702  52.245  1.00  0.00     0.024 A 
HETATM   27  C   UNL     1      28.471  42.547  53.021  1.00  0.00     0.034 A 
HETATM   28 CL   UNL     1      29.245  42.591  54.557  1.00  0.00    -0.084 Cl
HETATM   29  C   UNL     1      27.915  41.356  52.561  1.00  0.00     0.024 A 
HETATM   30  C   UNL     1      27.288  41.317  51.313  1.00  0.00     0.011 A 
ENDBRANCH   9  24
TORSDOF 4
ENDMDL
MODEL 7
REMARK VINA RESULT:      -7.4     10.083     13.293
REMARK  4 active torsions:
REMARK  status: ('A' for Active; 'I' for Inactive)
REMARK    1  A    between atoms: C_9  and  C_10 
REMARK    2  A    between atoms: C_17  and  C_18 
REMARK       I    between atoms: C_18  and  N_19 
REMARK    3  A    between atoms: N_19  and  C_20 
REMARK    4  A    between atoms: C_23  and  O_24 
ROOT
HETATM    1  C   UNL     1      14.779  50.155  45.571  1.00  0.00     0.070 C 
HETATM    2  C   UNL     1      15.316  50.837  46.804  1.00  0.00     0.037 C 
HETATM    3  N   UNL     1      15.014  52.190  46.921  1.00  0.00    -0.192 N 
HETATM    4  C   UNL     1      15.190  52.885  48.062  1.00  0.00     0.725 A 
HETATM    5  N   UNL     1      15.840  52.298  49.114  1.00  0.00    -0.084 N 
HETATM    6  N   UNL     1      15.849  53.103  50.197  1.00  0.00    -0.149 NA
HETATM    7  C   UNL     1      15.225  54.181  49.707  1.00  0.00     0.275 A 
HETATM    8  N   UNL     1      14.809  54.090  48.403  1.00  0.00    -0.054 NA
HETATM    9  C   UNL     1      16.403  50.943  49.077  1.00  0.00     0.202 C 
HETATM   10  C   UNL     1      15.992  50.213  47.802  1.00  0.00     0.062 C 
HETATM   11  H   UNL     1      14.428  52.605  46.201  1.00  0.00     0.184 HD
ENDROOT
BRANCH  10  12
HETATM   12  C   UNL     1      16.299  48.758  47.826  1.00  0.00     0.256 C 
HETATM   13  N   UNL     1      17.506  48.440  47.244  1.00  0.00    -0.323 N 
HETATM   14  H   UNL     1      18.059  49.205  46.880  1.00  0.00     0.169 HD
HETATM   15  O   UNL     1      15.513  48.004  48.384  1.00  0.00    -0.267 OA
BRANCH  13  16
HETATM   16  C   UNL     1      18.062  47.152  47.086  1.00  0.00     0.035 A 
HETATM   17  C   UNL     1      18.004  46.418  45.902  1.00  0.00     0.032 A 
HETATM   18  C   UNL     1      18.593  45.150  45.828  1.00  0.00     0.039 A 
HETATM   19  C   UNL     1      19.252  44.598  46.926  1.00  0.00     0.068 A 
HETATM   20  C   UNL     1      19.312  45.327  48.112  1.00  0.00     0.039 A 
HETATM   21  C   UNL     1      18.716  46.593  48.190  1.00  0.00     0.032 A 
BRANCH  19  22
HETATM   22  O   UNL     1      19.786  43.359  46.710  1.00  0.00    -0.356 OA
HETATM   23  C   UNL     1      19.698  42.839  45.389  1.00  0.00     0.210 C 
ENDBRANCH  19  22
ENDBRANCH  13  16
ENDBRANCH  10  12
BRANCH   9  24
HETATM   24  C   UNL     1      17.923  50.992  49.237  1.00  0.00    -0.028 A 
HETATM   25  C   UNL     1      18.542  50.186  50.210  1.00  0.00     0.011 A 
HETATM   26  C   UNL     1      19.930  50.201  50.370  1.00  0.00     0.024 A 
HETATM   27  C   UNL     1      20.712  51.016  49.557  1.00  0.00     0.034 A 
HETATM   28 CL   UNL     1      22.421  51.039  49.758  1.00  0.00    -0.084 Cl
HETATM   29  C   UNL     1      20.120  51.812  48.579  1.00  0.00     0.024 A 
HETATM   30  C   UNL     1      18.733  51.796  48.415  1.00  0.00     0.011 A 
ENDBRANCH   9  24
TORSDOF 4
ENDMDL
MODEL 8
REMARK VINA RESULT:      -7.3      8.272     11.305
REMARK  4 active torsions:
REMARK  status: ('A' for Active; 'I' for Inactive)
REMARK    1  A    between atoms: C_9  and  C_10 
REMARK    2  A    between atoms: C_17  and  C_18 
REMARK       I    between atoms: C_18  and  N_19 
REMARK    3  A    between atoms: N_19  and  C_20 
REMARK    4  A    between atoms: C_23  and  O_24 
ROOT
HETATM    1  C   UNL     1      18.452  52.382  49.459  1.00  0.00     0.070 C 
HETATM    2  C   UNL     1      18.298  51.778  48.085  1.00  0.00     0.037 C 
HETATM    3  N   UNL     1      17.352  52.385  47.265  1.00  0.00    -0.192 N 
HETATM    4  C   UNL     1      17.265  52.145  45.942  1.00  0.00     0.725 A 
HETATM    5  N   UNL     1      18.023  51.148  45.389  1.00  0.00    -0.084 N 
HETATM    6  N   UNL     1      17.875  51.106  44.048  1.00  0.00    -0.149 NA
HETATM    7  C   UNL     1      16.974  52.080  43.870  1.00  0.00     0.275 A 
HETATM    8  N   UNL     1      16.572  52.738  45.004  1.00  0.00    -0.054 NA
HETATM    9  C   UNL     1      18.921  50.277  46.157  1.00  0.00     0.202 C 
HETATM   10  C   UNL     1      19.052  50.760  47.598  1.00  0.00     0.062 C 
HETATM   11  H   UNL     1      16.870  53.204  47.630  1.00  0.00     0.184 HD
ENDROOT
BRANCH  10  12
HETATM   12  C   UNL     1      20.146  50.090  48.350  1.00  0.00     0.256 C 
HETATM   13  N   UNL     1      21.392  50.275  47.793  1.00  0.00    -0.323 N 
HETATM   14  H   UNL     1      21.445  50.847  46.960  1.00  0.00     0.169 HD
HETATM   15  O   UNL     1      19.867  49.498  49.385  1.00  0.00    -0.267 OA
BRANCH  13  16
HETATM   16  C   UNL     1      22.617  49.746  48.252  1.00  0.00     0.035 A 
HETATM   17  C   UNL     1      22.732  48.560  48.975  1.00  0.00     0.032 A 
HETATM   18  C   UNL     1      23.990  48.100  49.383  1.00  0.00     0.039 A 
HETATM   19  C   UNL     1      25.150  48.808  49.071  1.00  0.00     0.068 A 
HETATM   20  C   UNL     1      25.041  49.995  48.350  1.00  0.00     0.039 A 
HETATM   21  C   UNL     1      23.782  50.461  47.949  1.00  0.00     0.032 A 
BRANCH  19  22
HETATM   22  O   UNL     1      26.306  48.241  49.525  1.00  0.00    -0.356 OA
HETATM   23  C   UNL     1      27.528  48.815  49.075  1.00  0.00     0.210 C 
ENDBRANCH  19  22
ENDBRANCH  13  16
ENDBRANCH  10  12
BRANCH   9  24
HETATM   24  C   UNL     1      18.447  48.825  46.085  1.00  0.00    -0.028 A 
HETATM   25  C   UNL     1      19.313  47.840  45.580  1.00  0.00     0.011 A 
HETATM   26  C   UNL     1      18.912  46.503  45.515  1.00  0.00     0.024 A 
HETATM   27  C   UNL     1      17.644  46.138  45.958  1.00  0.00     0.034 A 
HETATM   28 CL   UNL     1      17.146  44.493  45.872  1.00  0.00    -0.084 Cl
HETATM   29  C   UNL     1      16.775  47.098  46.473  1.00  0.00     0.024 A 
HETATM   30  C   UNL     1      17.175  48.434  46.543  1.00  0.00     0.011 A 
ENDBRANCH   9  24
TORSDOF 4
ENDMDL
MODEL 9
REMARK VINA RESULT:      -7.3      6.624      9.501
REMARK  4 active torsions:
REMARK  status: ('A' for Active; 'I' for Inactive)
REMARK    1  A    between atoms: C_9  and  C_10 
REMARK    2  A    between atoms: C_17  and  C_18 
REMARK       I    between atoms: C_18  and  N_19 
REMARK    3  A    between atoms: N_19  and  C_20 
REMARK    4  A    between atoms: C_23  and  O_24 
ROOT
HETATM    1  C   UNL     1      21.835  51.037  50.921  1.00  0.00     0.070 C 
HETATM    2  C   UNL     1      20.901  50.774  49.766  1.00  0.00     0.037 C 
HETATM    3  N   UNL     1      19.685  51.449  49.812  1.00  0.00    -0.192 N 
HETATM    4  C   UNL     1      18.852  51.532  48.757  1.00  0.00     0.725 A 
HETATM    5  N   UNL     1      19.114  50.796  47.633  1.00  0.00    -0.084 N 
HETATM    6  N   UNL     1      18.229  51.067  46.651  1.00  0.00    -0.149 NA
HETATM    7  C   UNL     1      17.432  51.944  47.273  1.00  0.00     0.275 A 
HETATM    8  N   UNL     1      17.776  52.253  48.565  1.00  0.00    -0.054 NA
HETATM    9  C   UNL     1      20.249  49.874  47.503  1.00  0.00     0.202 C 
HETATM   10  C   UNL     1      21.197  50.001  48.691  1.00  0.00     0.062 C 
HETATM   11  H   UNL     1      19.534  52.093  50.586  1.00  0.00     0.184 HD
ENDROOT
BRANCH  10  12
HETATM   12  C   UNL     1      22.493  49.298  48.493  1.00  0.00     0.256 C 
HETATM   13  N   UNL     1      22.715  48.284  49.398  1.00  0.00    -0.323 N 
HETATM   14  H   UNL     1      21.989  48.108  50.082  1.00  0.00     0.169 HD
HETATM   15  O   UNL     1      23.199  49.631  47.550  1.00  0.00    -0.267 OA
BRANCH  13  16
HETATM   16  C   UNL     1      23.856  47.458  49.489  1.00  0.00     0.035 A 
HETATM   17  C   UNL     1      23.829  46.072  49.339  1.00  0.00     0.032 A 
HETATM   18  C   UNL     1      25.011  45.329  49.434  1.00  0.00     0.039 A 
HETATM   19  C   UNL     1      26.236  45.953  49.669  1.00  0.00     0.068 A 
HETATM   20  C   UNL     1      26.269  47.337  49.820  1.00  0.00     0.039 A 
HETATM   21  C   UNL     1      25.084  48.082  49.735  1.00  0.00     0.032 A 
BRANCH  19  22
HETATM   22  O   UNL     1      27.307  45.107  49.730  1.00  0.00    -0.356 OA
HETATM   23  C   UNL     1      27.078  43.812  50.272  1.00  0.00     0.210 C 
ENDBRANCH  19  22
ENDBRANCH  13  16
ENDBRANCH  10  12
BRANCH   9  24
HETATM   24  C   UNL     1      19.752  48.439  47.324  1.00  0.00    -0.028 A 
HETATM   25  C   UNL     1      19.878  47.815  46.069  1.00  0.00     0.011 A 
HETATM   26  C   UNL     1      19.445  46.500  45.880  1.00  0.00     0.024 A 
HETATM   27  C   UNL     1      18.887  45.795  46.942  1.00  0.00     0.034 A 
HETATM   28 CL   UNL     1      18.347  44.178  46.708  1.00  0.00    -0.084 Cl
HETATM   29  C   UNL     1      18.765  46.390  48.196  1.00  0.00     0.024 A 
HETATM   30  C   UNL     1      19.200  47.703  48.389  1.00  0.00     0.011 A 
ENDBRANCH   9  24
TORSDOF 4
ENDMDL
MODEL 10
REMARK VINA RESULT:      -7.2      3.931      6.404
REMARK  4 active torsions:
REMARK  status: ('A' for Active; 'I' for Inactive)
REMARK    1  A    between atoms: C_9  and  C_10 
REMARK    2  A    between atoms: C_17  and  C_18 
REMARK       I    between atoms: C_18  and  N_19 
REMARK    3  A    between atoms: N_19  and  C_20 
REMARK    4  A    between atoms: C_23  and  O_24 
ROOT
HETATM    1  C   UNL     1      28.661  42.336  52.317  1.00  0.00     0.070 C 
HETATM    2  C   UNL     1      28.310  41.246  51.335  1.00  0.00     0.037 C 
HETATM    3  N   UNL     1      29.167  40.150  51.323  1.00  0.00    -0.192 N 
HETATM    4  C   UNL     1      28.868  38.991  50.704  1.00  0.00     0.725 A 
HETATM    5  N   UNL     1      27.752  38.919  49.915  1.00  0.00    -0.084 N 
HETATM    6  N   UNL     1      27.561  37.668  49.448  1.00  0.00    -0.149 NA
HETATM    7  C   UNL     1      28.630  37.048  49.961  1.00  0.00     0.275 A 
HETATM    8  N   UNL     1      29.458  37.824  50.733  1.00  0.00    -0.054 NA
HETATM    9  C   UNL     1      26.853  40.051  49.660  1.00  0.00     0.202 C 
HETATM   10  C   UNL     1      27.208  41.243  50.544  1.00  0.00     0.062 C 
HETATM   11  H   UNL     1      29.932  40.144  51.994  1.00  0.00     0.184 HD
ENDROOT
BRANCH  10  12
HETATM   12  C   UNL     1      26.179  42.317  50.531  1.00  0.00     0.256 C 
HETATM   13  N   UNL     1      26.677  43.553  50.188  1.00  0.00    -0.323 N 
HETATM   14  H   UNL     1      27.663  43.609  49.967  1.00  0.00     0.169 HD
HETATM   15  O   UNL     1      25.016  42.015  50.767  1.00  0.00    -0.267 OA
BRANCH  13  16
HETATM   16  C   UNL     1      25.963  44.769  50.116  1.00  0.00     0.035 A 
HETATM   17  C   UNL     1      24.836  44.966  49.320  1.00  0.00     0.032 A 
HETATM   18  C   UNL     1      24.180  46.203  49.317  1.00  0.00     0.039 A 
HETATM   19  C   UNL     1      24.631  47.257  50.110  1.00  0.00     0.068 A 
HETATM   20  C   UNL     1      25.758  47.067  50.906  1.00  0.00     0.039 A 
HETATM   21  C   UNL     1      26.421  45.832  50.904  1.00  0.00     0.032 A 
BRANCH  19  22
HETATM   22  O   UNL     1      23.893  48.402  50.014  1.00  0.00    -0.356 OA
HETATM   23  C   UNL     1      23.963  49.115  48.785  1.00  0.00     0.210 C 
ENDBRANCH  19  22
ENDBRANCH  13  16
ENDBRANCH  10  12
BRANCH   9  24
HETATM   24  C   UNL     1      26.868  40.421  48.176  1.00  0.00    -0.028 A 
HETATM   25  C   UNL     1      28.092  40.720  47.550  1.00  0.00     0.011 A 
HETATM   26  C   UNL     1      28.137  41.048  46.193  1.00  0.00     0.024 A 
HETATM   27  C   UNL     1      26.962  41.077  45.448  1.00  0.00     0.034 A 
HETATM   28 CL   UNL     1      27.016  41.488  43.777  1.00  0.00    -0.084 Cl
HETATM   29  C   UNL     1      25.741  40.773  46.046  1.00  0.00     0.024 A 
HETATM   30  C   UNL     1      25.694  40.440  47.401  1.00  0.00     0.011 A 
ENDBRANCH   9  24
TORSDOF 4
ENDMDL
