MODEL 1
REMARK VINA RESULT:      -9.1      0.000      0.000
REMARK  11 active torsions:
REMARK  status: ('A' for Active; 'I' for Inactive)
REMARK    1  A    between atoms: C_2  and  O_3 
REMARK    2  A    between atoms: O_3  and  C_4 
REMARK    3  A    between atoms: C_5  and  O_6 
REMARK    4  A    between atoms: O_6  and  C_7 
REMARK    5  A    between atoms: C_7  and  C_8 
REMARK       I    between atoms: C_8  and  N_9 
REMARK    6  A    between atoms: N_9  and  C_10 
REMARK    7  A    between atoms: C_11  and  O_12 
REMARK    8  A    between atoms: C_21  and  C_22 
REMARK    9  A    between atoms: C_27  and  C_28 
REMARK   10  A    between atoms: C_34  and  C_35 
REMARK   11  A    between atoms: C_35  and  C_36 
ROOT
HETATM    1  C   UNL     1      24.448  44.578  49.557  1.00  0.00     0.102 A 
HETATM    2  C   UNL     1      23.260  43.886  49.299  1.00  0.00     0.102 A 
HETATM    3  C   UNL     1      23.294  42.596  48.769  1.00  0.00     0.040 A 
HETATM    4  C   UNL     1      24.515  41.970  48.532  1.00  0.00     0.012 A 
HETATM    5  C   UNL     1      25.718  42.633  48.811  1.00  0.00    -0.028 A 
HETATM    6  C   UNL     1      25.670  43.929  49.357  1.00  0.00     0.049 A 
ENDROOT
BRANCH   5   7
HETATM    7  C   UNL     1      27.040  41.952  48.504  1.00  0.00     0.157 C 
HETATM    8  N   UNL     1      27.069  41.591  47.098  1.00  0.00    -0.354 N 
HETATM    9  C   UNL     1      27.832  40.583  46.607  1.00  0.00     0.173 C 
HETATM   10  H   UNL     1      26.745  42.272  46.421  1.00  0.00     0.163 HD
HETATM   11  S   UNL     1      28.128  40.436  44.981  1.00  0.00    -0.041 SA
HETATM   12  N   UNL     1      28.305  39.680  47.507  1.00  0.00    -0.332 N 
HETATM   13  C   UNL     1      28.021  39.701  48.854  1.00  0.00     0.057 C 
HETATM   14  H   UNL     1      28.799  38.877  47.128  1.00  0.00     0.168 HD
HETATM   15  C   UNL     1      27.392  40.772  49.376  1.00  0.00     0.047 C 
BRANCH  13  16
HETATM   16  C   UNL     1      28.478  38.526  49.611  1.00  0.00    -0.009 A 
HETATM   17  C   UNL     1      29.700  38.552  50.294  1.00  0.00     0.014 A 
HETATM   18  C   UNL     1      30.106  37.453  51.053  1.00  0.00     0.001 A 
HETATM   19  C   UNL     1      29.291  36.325  51.139  1.00  0.00     0.000 A 
HETATM   20  C   UNL     1      28.072  36.293  50.464  1.00  0.00     0.001 A 
HETATM   21  C   UNL     1      27.664  37.389  49.702  1.00  0.00     0.014 A 
ENDBRANCH  13  16
BRANCH  15  22
HETATM   22  C   UNL     1      26.996  40.809  50.814  1.00  0.00     0.193 C 
HETATM   23  O   UNL     1      25.991  40.226  51.210  1.00  0.00    -0.287 OA
BRANCH  22  24
HETATM   24  C   UNL     1      27.749  41.696  51.739  1.00  0.00     0.015 A 
HETATM   25  C   UNL     1      27.139  42.890  52.145  1.00  0.00     0.015 A 
HETATM   26  C   UNL     1      27.823  43.781  52.973  1.00  0.00     0.001 A 
HETATM   27  C   UNL     1      29.112  43.477  53.406  1.00  0.00     0.000 A 
HETATM   28  C   UNL     1      29.716  42.278  53.022  1.00  0.00     0.001 A 
HETATM   29  C   UNL     1      29.034  41.382  52.195  1.00  0.00     0.015 A 
ENDBRANCH  22  24
ENDBRANCH  15  22
ENDBRANCH   5   7
BRANCH   1  30
HETATM   30  O   UNL     1      24.355  45.859  50.032  1.00  0.00    -0.349 OA
BRANCH  30  31
HETATM   31  C   UNL     1      25.123  46.138  51.210  1.00  0.00     0.171 C 
HETATM   32  C   UNL     1      26.061  47.301  50.946  1.00  0.00     0.034 C 
ENDBRANCH  30  31
ENDBRANCH   1  30
BRANCH   2  33
HETATM   33  O   UNL     1      22.019  44.450  49.440  1.00  0.00    -0.339 OA
BRANCH  33  34
HETATM   34  C   UNL     1      21.391  44.740  48.183  1.00  0.00     0.278 C 
BRANCH  34  35
HETATM   35  C   UNL     1      21.656  46.193  47.754  1.00  0.00     0.246 C 
HETATM   36  N   UNL     1      21.754  47.049  48.841  1.00  0.00    -0.323 N 
HETATM   37  H   UNL     1      21.843  46.568  49.727  1.00  0.00     0.169 HD
HETATM   38  O   UNL     1      21.835  46.472  46.572  1.00  0.00    -0.271 OA
BRANCH  36  39
HETATM   39  C   UNL     1      22.068  48.423  48.822  1.00  0.00     0.068 A 
HETATM   40  C   UNL     1      21.143  49.459  49.047  1.00  0.00     0.095 A 
HETATM   41  C   UNL     1      21.575  50.789  48.938  1.00  0.00     0.039 A 
HETATM   42  C   UNL     1      22.912  51.088  48.656  1.00  0.00     0.003 A 
HETATM   43  C   UNL     1      23.836  50.062  48.502  1.00  0.00     0.002 A 
HETATM   44  C   UNL     1      23.418  48.737  48.596  1.00  0.00     0.032 A 
BRANCH  40  45
HETATM   45  O   UNL     1      19.893  49.101  49.472  1.00  0.00    -0.354 OA
HETATM   46  C   UNL     1      19.290  49.869  50.503  1.00  0.00     0.210 C 
ENDBRANCH  40  45
ENDBRANCH  36  39
ENDBRANCH  34  35
ENDBRANCH  33  34
ENDBRANCH   2  33
TORSDOF 11
ENDMDL
MODEL 2
REMARK VINA RESULT:      -8.9      4.122     10.970
REMARK  11 active torsions:
REMARK  status: ('A' for Active; 'I' for Inactive)
REMARK    1  A    between atoms: C_2  and  O_3 
REMARK    2  A    between atoms: O_3  and  C_4 
REMARK    3  A    between atoms: C_5  and  O_6 
REMARK    4  A    between atoms: O_6  and  C_7 
REMARK    5  A    between atoms: C_7  and  C_8 
REMARK       I    between atoms: C_8  and  N_9 
REMARK    6  A    between atoms: N_9  and  C_10 
REMARK    7  A    between atoms: C_11  and  O_12 
REMARK    8  A    between atoms: C_21  and  C_22 
REMARK    9  A    between atoms: C_27  and  C_28 
REMARK   10  A    between atoms: C_34  and  C_35 
REMARK   11  A    between atoms: C_35  and  C_36 
ROOT
HETATM    1  C   UNL     1      23.502  48.281  49.053  1.00  0.00     0.102 A 
HETATM    2  C   UNL     1      24.144  47.204  49.672  1.00  0.00     0.102 A 
HETATM    3  C   UNL     1      23.636  45.911  49.546  1.00  0.00     0.040 A 
HETATM    4  C   UNL     1      22.506  45.677  48.766  1.00  0.00     0.012 A 
HETATM    5  C   UNL     1      21.863  46.737  48.113  1.00  0.00    -0.028 A 
HETATM    6  C   UNL     1      22.394  48.035  48.237  1.00  0.00     0.049 A 
ENDROOT
BRANCH   5   7
HETATM    7  C   UNL     1      20.607  46.469  47.303  1.00  0.00     0.157 C 
HETATM    8  N   UNL     1      20.969  46.326  45.905  1.00  0.00    -0.354 N 
HETATM    9  C   UNL     1      20.105  46.565  44.887  1.00  0.00     0.173 C 
HETATM   10  H   UNL     1      21.781  45.766  45.675  1.00  0.00     0.163 HD
HETATM   11  S   UNL     1      20.422  46.044  43.344  1.00  0.00    -0.041 SA
HETATM   12  N   UNL     1      18.991  47.285  45.187  1.00  0.00    -0.332 N 
HETATM   13  C   UNL     1      18.718  47.817  46.428  1.00  0.00     0.057 C 
HETATM   14  H   UNL     1      18.391  47.540  44.408  1.00  0.00     0.168 HD
HETATM   15  C   UNL     1      19.486  47.465  47.477  1.00  0.00     0.047 C 
BRANCH  13  16
HETATM   16  C   UNL     1      17.557  48.719  46.483  1.00  0.00    -0.009 A 
HETATM   17  C   UNL     1      16.370  48.312  47.104  1.00  0.00     0.014 A 
HETATM   18  C   UNL     1      15.289  49.189  47.199  1.00  0.00     0.001 A 
HETATM   19  C   UNL     1      15.389  50.478  46.682  1.00  0.00     0.000 A 
HETATM   20  C   UNL     1      16.568  50.893  46.064  1.00  0.00     0.001 A 
HETATM   21  C   UNL     1      17.651  50.017  45.965  1.00  0.00     0.014 A 
ENDBRANCH  13  16
BRANCH  15  22
HETATM   22  C   UNL     1      19.278  48.072  48.823  1.00  0.00     0.193 C 
HETATM   23  O   UNL     1      19.027  47.374  49.801  1.00  0.00    -0.287 OA
BRANCH  22  24
HETATM   24  C   UNL     1      19.220  49.553  48.938  1.00  0.00     0.015 A 
HETATM   25  C   UNL     1      18.158  50.115  49.659  1.00  0.00     0.015 A 
HETATM   26  C   UNL     1      18.031  51.501  49.754  1.00  0.00     0.001 A 
HETATM   27  C   UNL     1      18.969  52.329  49.140  1.00  0.00     0.000 A 
HETATM   28  C   UNL     1      20.041  51.774  48.439  1.00  0.00     0.001 A 
HETATM   29  C   UNL     1      20.174  50.386  48.343  1.00  0.00     0.015 A 
ENDBRANCH  22  24
ENDBRANCH  15  22
ENDBRANCH   5   7
BRANCH   1  30
HETATM   30  O   UNL     1      24.017  49.535  49.249  1.00  0.00    -0.349 OA
BRANCH  30  31
HETATM   31  C   UNL     1      24.624  50.140  48.101  1.00  0.00     0.171 C 
HETATM   32  C   UNL     1      26.121  49.893  48.124  1.00  0.00     0.034 C 
ENDBRANCH  30  31
ENDBRANCH   1  30
BRANCH   2  33
HETATM   33  O   UNL     1      25.218  47.353  50.509  1.00  0.00    -0.339 OA
BRANCH  33  34
HETATM   34  C   UNL     1      25.128  46.536  51.686  1.00  0.00     0.278 C 
BRANCH  34  35
HETATM   35  C   UNL     1      26.375  45.649  51.839  1.00  0.00     0.246 C 
HETATM   36  N   UNL     1      26.597  45.284  53.159  1.00  0.00    -0.323 N 
HETATM   37  H   UNL     1      25.813  45.476  53.769  1.00  0.00     0.169 HD
HETATM   38  O   UNL     1      27.002  45.278  50.852  1.00  0.00    -0.271 OA
BRANCH  36  39
HETATM   39  C   UNL     1      27.595  44.419  53.650  1.00  0.00     0.068 A 
HETATM   40  C   UNL     1      28.678  44.819  54.455  1.00  0.00     0.095 A 
HETATM   41  C   UNL     1      29.637  43.865  54.826  1.00  0.00     0.039 A 
HETATM   42  C   UNL     1      29.501  42.526  54.444  1.00  0.00     0.003 A 
HETATM   43  C   UNL     1      28.395  42.122  53.708  1.00  0.00     0.002 A 
HETATM   44  C   UNL     1      27.441  43.062  53.323  1.00  0.00     0.032 A 
BRANCH  40  45
HETATM   45  O   UNL     1      28.668  46.105  54.923  1.00  0.00    -0.354 OA
HETATM   46  C   UNL     1      28.475  46.310  56.314  1.00  0.00     0.210 C 
ENDBRANCH  40  45
ENDBRANCH  36  39
ENDBRANCH  34  35
ENDBRANCH  33  34
ENDBRANCH   2  33
TORSDOF 11
ENDMDL
MODEL 3
REMARK VINA RESULT:      -8.5      4.653     10.525
REMARK  11 active torsions:
REMARK  status: ('A' for Active; 'I' for Inactive)
REMARK    1  A    between atoms: C_2  and  O_3 
REMARK    2  A    between atoms: O_3  and  C_4 
REMARK    3  A    between atoms: C_5  and  O_6 
REMARK    4  A    between atoms: O_6  and  C_7 
REMARK    5  A    between atoms: C_7  and  C_8 
REMARK       I    between atoms: C_8  and  N_9 
REMARK    6  A    between atoms: N_9  and  C_10 
REMARK    7  A    between atoms: C_11  and  O_12 
REMARK    8  A    between atoms: C_21  and  C_22 
REMARK    9  A    between atoms: C_27  and  C_28 
REMARK   10  A    between atoms: C_34  and  C_35 
REMARK   11  A    between atoms: C_35  and  C_36 
ROOT
HETATM    1  C   UNL     1      21.978  45.291  46.309  1.00  0.00     0.102 A 
HETATM    2  C   UNL     1      22.366  44.612  47.468  1.00  0.00     0.102 A 
HETATM    3  C   UNL     1      21.556  44.632  48.604  1.00  0.00     0.040 A 
HETATM    4  C   UNL     1      20.332  45.295  48.577  1.00  0.00     0.012 A 
HETATM    5  C   UNL     1      19.908  45.957  47.417  1.00  0.00    -0.028 A 
HETATM    6  C   UNL     1      20.729  45.918  46.274  1.00  0.00     0.049 A 
ENDROOT
BRANCH   5   7
HETATM    7  C   UNL     1      18.591  46.712  47.420  1.00  0.00     0.157 C 
HETATM    8  N   UNL     1      18.070  46.755  46.066  1.00  0.00    -0.354 N 
HETATM    9  C   UNL     1      17.219  47.718  45.630  1.00  0.00     0.173 C 
HETATM   10  H   UNL     1      18.102  45.908  45.512  1.00  0.00     0.163 HD
HETATM   11  S   UNL     1      16.361  47.539  44.221  1.00  0.00    -0.041 SA
HETATM   12  N   UNL     1      17.136  48.848  46.382  1.00  0.00    -0.332 N 
HETATM   13  C   UNL     1      17.887  49.088  47.511  1.00  0.00     0.057 C 
HETATM   14  H   UNL     1      16.569  49.603  46.007  1.00  0.00     0.168 HD
HETATM   15  C   UNL     1      18.622  48.089  48.036  1.00  0.00     0.047 C 
BRANCH  13  16
HETATM   16  C   UNL     1      17.778  50.449  48.059  1.00  0.00    -0.009 A 
HETATM   17  C   UNL     1      16.876  50.728  49.093  1.00  0.00     0.014 A 
HETATM   18  C   UNL     1      16.812  52.008  49.646  1.00  0.00     0.001 A 
HETATM   19  C   UNL     1      17.653  53.014  49.173  1.00  0.00     0.000 A 
HETATM   20  C   UNL     1      18.556  52.744  48.146  1.00  0.00     0.001 A 
HETATM   21  C   UNL     1      18.620  51.465  47.589  1.00  0.00     0.014 A 
ENDBRANCH  13  16
BRANCH  15  22
HETATM   22  C   UNL     1      19.509  48.321  49.213  1.00  0.00     0.193 C 
HETATM   23  O   UNL     1      19.183  47.947  50.335  1.00  0.00    -0.287 OA
BRANCH  22  24
HETATM   24  C   UNL     1      20.727  49.155  49.035  1.00  0.00     0.015 A 
HETATM   25  C   UNL     1      20.971  50.168  49.972  1.00  0.00     0.015 A 
HETATM   26  C   UNL     1      22.073  51.011  49.823  1.00  0.00     0.001 A 
HETATM   27  C   UNL     1      22.940  50.837  48.746  1.00  0.00     0.000 A 
HETATM   28  C   UNL     1      22.713  49.814  47.822  1.00  0.00     0.001 A 
HETATM   29  C   UNL     1      21.612  48.967  47.968  1.00  0.00     0.015 A 
ENDBRANCH  22  24
ENDBRANCH  15  22
ENDBRANCH   5   7
BRANCH   1  30
HETATM   30  O   UNL     1      22.834  45.278  45.240  1.00  0.00    -0.349 OA
BRANCH  30  31
HETATM   31  C   UNL     1      22.245  44.926  43.982  1.00  0.00     0.171 C 
HETATM   32  C   UNL     1      22.303  43.421  43.793  1.00  0.00     0.034 C 
ENDBRANCH  30  31
ENDBRANCH   1  30
BRANCH   2  33
HETATM   33  O   UNL     1      23.581  43.994  47.603  1.00  0.00    -0.339 OA
BRANCH  33  34
HETATM   34  C   UNL     1      23.764  43.394  48.894  1.00  0.00     0.278 C 
BRANCH  34  35
HETATM   35  C   UNL     1      24.805  44.167  49.720  1.00  0.00     0.246 C 
HETATM   36  N   UNL     1      24.277  44.647  50.910  1.00  0.00    -0.323 N 
HETATM   37  H   UNL     1      23.376  44.248  51.142  1.00  0.00     0.169 HD
HETATM   38  O   UNL     1      25.972  44.237  49.345  1.00  0.00    -0.271 OA
BRANCH  36  39
HETATM   39  C   UNL     1      24.962  45.326  51.937  1.00  0.00     0.068 A 
HETATM   40  C   UNL     1      25.283  46.696  51.918  1.00  0.00     0.095 A 
HETATM   41  C   UNL     1      26.024  47.234  52.981  1.00  0.00     0.039 A 
HETATM   42  C   UNL     1      26.401  46.438  54.067  1.00  0.00     0.003 A 
HETATM   43  C   UNL     1      26.024  45.102  54.115  1.00  0.00     0.002 A 
HETATM   44  C   UNL     1      25.298  44.552  53.060  1.00  0.00     0.032 A 
BRANCH  40  45
HETATM   45  O   UNL     1      24.751  47.449  50.907  1.00  0.00    -0.354 OA
HETATM   46  C   UNL     1      25.613  47.870  49.861  1.00  0.00     0.210 C 
ENDBRANCH  40  45
ENDBRANCH  36  39
ENDBRANCH  34  35
ENDBRANCH  33  34
ENDBRANCH   2  33
TORSDOF 11
ENDMDL
MODEL 4
REMARK VINA RESULT:      -8.4      4.037      9.812
REMARK  11 active torsions:
REMARK  status: ('A' for Active; 'I' for Inactive)
REMARK    1  A    between atoms: C_2  and  O_3 
REMARK    2  A    between atoms: O_3  and  C_4 
REMARK    3  A    between atoms: C_5  and  O_6 
REMARK    4  A    between atoms: O_6  and  C_7 
REMARK    5  A    between atoms: C_7  and  C_8 
REMARK       I    between atoms: C_8  and  N_9 
REMARK    6  A    between atoms: N_9  and  C_10 
REMARK    7  A    between atoms: C_11  and  O_12 
REMARK    8  A    between atoms: C_21  and  C_22 
REMARK    9  A    between atoms: C_27  and  C_28 
REMARK   10  A    between atoms: C_34  and  C_35 
REMARK   11  A    between atoms: C_35  and  C_36 
ROOT
HETATM    1  C   UNL     1      23.929  45.516  49.404  1.00  0.00     0.102 A 
HETATM    2  C   UNL     1      23.761  44.473  50.322  1.00  0.00     0.102 A 
HETATM    3  C   UNL     1      22.865  43.437  50.059  1.00  0.00     0.040 A 
HETATM    4  C   UNL     1      22.159  43.412  48.859  1.00  0.00     0.012 A 
HETATM    5  C   UNL     1      22.333  44.430  47.911  1.00  0.00    -0.028 A 
HETATM    6  C   UNL     1      23.251  45.462  48.183  1.00  0.00     0.049 A 
ENDROOT
BRANCH   5   7
HETATM    7  C   UNL     1      21.523  44.409  46.627  1.00  0.00     0.157 C 
HETATM    8  N   UNL     1      22.400  44.710  45.511  1.00  0.00    -0.354 N 
HETATM    9  C   UNL     1      21.959  45.240  44.343  1.00  0.00     0.173 C 
HETATM   10  H   UNL     1      23.307  44.259  45.479  1.00  0.00     0.163 HD
HETATM   11  S   UNL     1      22.901  45.226  42.977  1.00  0.00    -0.041 SA
HETATM   12  N   UNL     1      20.728  45.817  44.360  1.00  0.00    -0.332 N 
HETATM   13  C   UNL     1      19.938  45.935  45.483  1.00  0.00     0.057 C 
HETATM   14  H   UNL     1      20.437  46.292  43.511  1.00  0.00     0.168 HD
HETATM   15  C   UNL     1      20.296  45.287  46.608  1.00  0.00     0.047 C 
BRANCH  13  16
HETATM   16  C   UNL     1      18.732  46.760  45.318  1.00  0.00    -0.009 A 
HETATM   17  C   UNL     1      17.475  46.160  45.179  1.00  0.00     0.014 A 
HETATM   18  C   UNL     1      16.327  46.947  45.074  1.00  0.00     0.001 A 
HETATM   19  C   UNL     1      16.427  48.336  45.114  1.00  0.00     0.000 A 
HETATM   20  C   UNL     1      17.675  48.941  45.254  1.00  0.00     0.001 A 
HETATM   21  C   UNL     1      18.825  48.157  45.357  1.00  0.00     0.014 A 
ENDBRANCH  13  16
BRANCH  15  22
HETATM   22  C   UNL     1      19.515  45.445  47.869  1.00  0.00     0.193 C 
HETATM   23  O   UNL     1      18.836  44.525  48.313  1.00  0.00    -0.287 OA
BRANCH  22  24
HETATM   24  C   UNL     1      19.444  46.789  48.501  1.00  0.00     0.015 A 
HETATM   25  C   UNL     1      18.184  47.269  48.883  1.00  0.00     0.015 A 
HETATM   26  C   UNL     1      18.057  48.544  49.435  1.00  0.00     0.001 A 
HETATM   27  C   UNL     1      19.188  49.338  49.617  1.00  0.00     0.000 A 
HETATM   28  C   UNL     1      20.448  48.855  49.259  1.00  0.00     0.001 A 
HETATM   29  C   UNL     1      20.581  47.578  48.708  1.00  0.00     0.015 A 
ENDBRANCH  22  24
ENDBRANCH  15  22
ENDBRANCH   5   7
BRANCH   1  30
HETATM   30  O   UNL     1      24.786  46.531  49.735  1.00  0.00    -0.349 OA
BRANCH  30  31
HETATM   31  C   UNL     1      24.181  47.817  49.914  1.00  0.00     0.171 C 
HETATM   32  C   UNL     1      24.896  48.844  49.054  1.00  0.00     0.034 C 
ENDBRANCH  30  31
ENDBRANCH   1  30
BRANCH   2  33
HETATM   33  O   UNL     1      24.363  44.455  51.552  1.00  0.00    -0.339 OA
BRANCH  33  34
HETATM   34  C   UNL     1      25.327  43.401  51.688  1.00  0.00     0.278 C 
BRANCH  34  35
HETATM   35  C   UNL     1      26.678  43.947  52.180  1.00  0.00     0.246 C 
HETATM   36  N   UNL     1      26.884  43.697  53.528  1.00  0.00    -0.323 N 
HETATM   37  H   UNL     1      26.230  43.030  53.920  1.00  0.00     0.169 HD
HETATM   38  O   UNL     1      27.467  44.459  51.392  1.00  0.00    -0.271 OA
BRANCH  36  39
HETATM   39  C   UNL     1      28.037  43.985  54.286  1.00  0.00     0.068 A 
HETATM   40  C   UNL     1      28.237  45.166  55.024  1.00  0.00     0.095 A 
HETATM   41  C   UNL     1      29.459  45.354  55.686  1.00  0.00     0.039 A 
HETATM   42  C   UNL     1      30.450  44.367  55.654  1.00  0.00     0.003 A 
HETATM   43  C   UNL     1      30.222  43.174  54.981  1.00  0.00     0.002 A 
HETATM   44  C   UNL     1      29.017  42.979  54.310  1.00  0.00     0.032 A 
BRANCH  40  45
HETATM   45  O   UNL     1      27.172  46.017  55.143  1.00  0.00    -0.354 OA
HETATM   46  C   UNL     1      27.191  47.222  54.394  1.00  0.00     0.210 C 
ENDBRANCH  40  45
ENDBRANCH  36  39
ENDBRANCH  34  35
ENDBRANCH  33  34
ENDBRANCH   2  33
TORSDOF 11
ENDMDL
MODEL 5
REMARK VINA RESULT:      -8.2     18.888     21.599
REMARK  11 active torsions:
REMARK  status: ('A' for Active; 'I' for Inactive)
REMARK    1  A    between atoms: C_2  and  O_3 
REMARK    2  A    between atoms: O_3  and  C_4 
REMARK    3  A    between atoms: C_5  and  O_6 
REMARK    4  A    between atoms: O_6  and  C_7 
REMARK    5  A    between atoms: C_7  and  C_8 
REMARK       I    between atoms: C_8  and  N_9 
REMARK    6  A    between atoms: N_9  and  C_10 
REMARK    7  A    between atoms: C_11  and  O_12 
REMARK    8  A    between atoms: C_21  and  C_22 
REMARK    9  A    between atoms: C_27  and  C_28 
REMARK   10  A    between atoms: C_34  and  C_35 
REMARK   11  A    between atoms: C_35  and  C_36 
ROOT
HETATM    1  C   UNL     1      38.388  47.609  66.212  1.00  0.00     0.102 A 
HETATM    2  C   UNL     1      38.138  48.717  65.395  1.00  0.00     0.102 A 
HETATM    3  C   UNL     1      37.380  48.580  64.232  1.00  0.00     0.040 A 
HETATM    4  C   UNL     1      36.828  47.346  63.897  1.00  0.00     0.012 A 
HETATM    5  C   UNL     1      37.040  46.229  64.717  1.00  0.00    -0.028 A 
HETATM    6  C   UNL     1      37.796  46.383  65.894  1.00  0.00     0.049 A 
ENDROOT
BRANCH   5   7
HETATM    7  C   UNL     1      36.468  44.881  64.314  1.00  0.00     0.157 C 
HETATM    8  N   UNL     1      35.519  44.452  65.323  1.00  0.00    -0.354 N 
HETATM    9  C   UNL     1      35.206  43.150  65.540  1.00  0.00     0.173 C 
HETATM   10  H   UNL     1      34.859  45.132  65.682  1.00  0.00     0.163 HD
HETATM   11  S   UNL     1      33.869  42.718  66.423  1.00  0.00    -0.041 SA
HETATM   12  N   UNL     1      36.062  42.223  65.034  1.00  0.00    -0.332 N 
HETATM   13  C   UNL     1      37.230  42.522  64.369  1.00  0.00     0.057 C 
HETATM   14  H   UNL     1      35.876  41.253  65.274  1.00  0.00     0.168 HD
HETATM   15  C   UNL     1      37.478  43.799  64.019  1.00  0.00     0.047 C 
BRANCH  13  16
HETATM   16  C   UNL     1      38.099  41.372  64.076  1.00  0.00    -0.009 A 
HETATM   17  C   UNL     1      38.568  41.150  62.775  1.00  0.00     0.014 A 
HETATM   18  C   UNL     1      39.433  40.087  62.511  1.00  0.00     0.001 A 
HETATM   19  C   UNL     1      39.839  39.245  63.543  1.00  0.00     0.000 A 
HETATM   20  C   UNL     1      39.378  39.460  64.842  1.00  0.00     0.001 A 
HETATM   21  C   UNL     1      38.511  40.521  65.109  1.00  0.00     0.014 A 
ENDBRANCH  13  16
BRANCH  15  22
HETATM   22  C   UNL     1      38.762  44.185  63.365  1.00  0.00     0.193 C 
HETATM   23  O   UNL     1      38.832  44.346  62.151  1.00  0.00    -0.287 OA
BRANCH  22  24
HETATM   24  C   UNL     1      40.000  44.216  64.188  1.00  0.00     0.015 A 
HETATM   25  C   UNL     1      41.154  44.770  63.617  1.00  0.00     0.015 A 
HETATM   26  C   UNL     1      42.353  44.779  64.330  1.00  0.00     0.001 A 
HETATM   27  C   UNL     1      42.402  44.245  65.616  1.00  0.00     0.000 A 
HETATM   28  C   UNL     1      41.250  43.712  66.197  1.00  0.00     0.001 A 
HETATM   29  C   UNL     1      40.046  43.703  65.489  1.00  0.00     0.015 A 
ENDBRANCH  22  24
ENDBRANCH  15  22
ENDBRANCH   5   7
BRANCH   1  30
HETATM   30  O   UNL     1      39.178  47.790  67.315  1.00  0.00    -0.349 OA
BRANCH  30  31
HETATM   31  C   UNL     1      40.412  47.061  67.317  1.00  0.00     0.171 C 
HETATM   32  C   UNL     1      41.477  47.856  66.584  1.00  0.00     0.034 C 
ENDBRANCH  30  31
ENDBRANCH   1  30
BRANCH   2  33
HETATM   33  O   UNL     1      38.696  49.949  65.612  1.00  0.00    -0.339 OA
BRANCH  33  34
HETATM   34  C   UNL     1      37.771  50.891  66.173  1.00  0.00     0.278 C 
BRANCH  34  35
HETATM   35  C   UNL     1      38.499  51.934  67.037  1.00  0.00     0.246 C 
HETATM   36  N   UNL     1      38.238  53.231  66.621  1.00  0.00    -0.323 N 
HETATM   37  H   UNL     1      37.468  53.299  65.967  1.00  0.00     0.169 HD
HETATM   38  O   UNL     1      39.151  51.587  68.017  1.00  0.00    -0.271 OA
BRANCH  36  39
HETATM   39  C   UNL     1      38.673  54.428  67.226  1.00  0.00     0.068 A 
HETATM   40  C   UNL     1      39.919  55.037  66.993  1.00  0.00     0.095 A 
HETATM   41  C   UNL     1      40.252  56.197  67.709  1.00  0.00     0.039 A 
HETATM   42  C   UNL     1      39.346  56.768  68.608  1.00  0.00     0.003 A 
HETATM   43  C   UNL     1      38.090  56.202  68.785  1.00  0.00     0.002 A 
HETATM   44  C   UNL     1      37.751  55.044  68.088  1.00  0.00     0.032 A 
BRANCH  40  45
HETATM   45  O   UNL     1      40.692  54.518  65.990  1.00  0.00    -0.354 OA
HETATM   46  C   UNL     1      41.873  55.217  65.624  1.00  0.00     0.210 C 
ENDBRANCH  40  45
ENDBRANCH  36  39
ENDBRANCH  34  35
ENDBRANCH  33  34
ENDBRANCH   2  33
TORSDOF 11
ENDMDL
MODEL 6
REMARK VINA RESULT:      -8.2      6.553     12.121
REMARK  11 active torsions:
REMARK  status: ('A' for Active; 'I' for Inactive)
REMARK    1  A    between atoms: C_2  and  O_3 
REMARK    2  A    between atoms: O_3  and  C_4 
REMARK    3  A    between atoms: C_5  and  O_6 
REMARK    4  A    between atoms: O_6  and  C_7 
REMARK    5  A    between atoms: C_7  and  C_8 
REMARK       I    between atoms: C_8  and  N_9 
REMARK    6  A    between atoms: N_9  and  C_10 
REMARK    7  A    between atoms: C_11  and  O_12 
REMARK    8  A    between atoms: C_21  and  C_22 
REMARK    9  A    between atoms: C_27  and  C_28 
REMARK   10  A    between atoms: C_34  and  C_35 
REMARK   11  A    between atoms: C_35  and  C_36 
ROOT
HETATM    1  C   UNL     1      19.055  45.352  45.964  1.00  0.00     0.102 A 
HETATM    2  C   UNL     1      19.343  44.967  47.277  1.00  0.00     0.102 A 
HETATM    3  C   UNL     1      18.652  45.534  48.348  1.00  0.00     0.040 A 
HETATM    4  C   UNL     1      17.638  46.460  48.114  1.00  0.00     0.012 A 
HETATM    5  C   UNL     1      17.312  46.839  46.804  1.00  0.00    -0.028 A 
HETATM    6  C   UNL     1      18.008  46.249  45.732  1.00  0.00     0.049 A 
ENDROOT
BRANCH   5   7
HETATM    7  C   UNL     1      16.234  47.883  46.570  1.00  0.00     0.157 C 
HETATM    8  N   UNL     1      15.170  47.291  45.781  1.00  0.00    -0.354 N 
HETATM    9  C   UNL     1      14.332  48.020  45.002  1.00  0.00     0.173 C 
HETATM   10  H   UNL     1      14.851  46.361  46.026  1.00  0.00     0.163 HD
HETATM   11  S   UNL     1      12.918  47.377  44.417  1.00  0.00    -0.041 SA
HETATM   12  N   UNL     1      14.728  49.283  44.693  1.00  0.00    -0.332 N 
HETATM   13  C   UNL     1      15.928  49.839  45.077  1.00  0.00     0.057 C 
HETATM   14  H   UNL     1      14.145  49.795  44.037  1.00  0.00     0.168 HD
HETATM   15  C   UNL     1      16.699  49.186  45.968  1.00  0.00     0.047 C 
BRANCH  13  16
HETATM   16  C   UNL     1      16.236  51.145  44.475  1.00  0.00    -0.009 A 
HETATM   17  C   UNL     1      16.977  51.223  43.289  1.00  0.00     0.014 A 
HETATM   18  C   UNL     1      17.224  52.461  42.694  1.00  0.00     0.001 A 
HETATM   19  C   UNL     1      16.727  53.626  43.275  1.00  0.00     0.000 A 
HETATM   20  C   UNL     1      15.987  53.557  44.454  1.00  0.00     0.001 A 
HETATM   21  C   UNL     1      15.740  52.320  45.054  1.00  0.00     0.014 A 
ENDBRANCH  13  16
BRANCH  15  22
HETATM   22  C   UNL     1      18.040  49.710  46.357  1.00  0.00     0.193 C 
HETATM   23  O   UNL     1      19.049  49.393  45.735  1.00  0.00    -0.287 OA
BRANCH  22  24
HETATM   24  C   UNL     1      18.162  50.499  47.611  1.00  0.00     0.015 A 
HETATM   25  C   UNL     1      18.524  51.848  47.505  1.00  0.00     0.015 A 
HETATM   26  C   UNL     1      18.700  52.619  48.655  1.00  0.00     0.001 A 
HETATM   27  C   UNL     1      18.504  52.049  49.911  1.00  0.00     0.000 A 
HETATM   28  C   UNL     1      18.121  50.711  50.021  1.00  0.00     0.001 A 
HETATM   29  C   UNL     1      17.942  49.935  48.873  1.00  0.00     0.015 A 
ENDBRANCH  22  24
ENDBRANCH  15  22
ENDBRANCH   5   7
BRANCH   1  30
HETATM   30  O   UNL     1      19.797  44.799  44.954  1.00  0.00    -0.349 OA
BRANCH  30  31
HETATM   31  C   UNL     1      19.697  45.453  43.684  1.00  0.00     0.171 C 
HETATM   32  C   UNL     1      20.964  45.214  42.883  1.00  0.00     0.034 C 
ENDBRANCH  30  31
ENDBRANCH   1  30
BRANCH   2  33
HETATM   33  O   UNL     1      20.367  44.116  47.601  1.00  0.00    -0.339 OA
BRANCH  33  34
HETATM   34  C   UNL     1      21.302  44.691  48.525  1.00  0.00     0.278 C 
BRANCH  34  35
HETATM   35  C   UNL     1      21.934  45.969  47.949  1.00  0.00     0.246 C 
HETATM   36  N   UNL     1      21.884  47.027  48.845  1.00  0.00    -0.323 N 
HETATM   37  H   UNL     1      21.637  46.748  49.786  1.00  0.00     0.169 HD
HETATM   38  O   UNL     1      22.478  45.954  46.849  1.00  0.00    -0.271 OA
BRANCH  36  39
HETATM   39  C   UNL     1      22.435  48.314  48.681  1.00  0.00     0.068 A 
HETATM   40  C   UNL     1      23.767  48.659  48.971  1.00  0.00     0.095 A 
HETATM   41  C   UNL     1      24.172  49.993  48.821  1.00  0.00     0.039 A 
HETATM   42  C   UNL     1      23.281  50.962  48.347  1.00  0.00     0.003 A 
HETATM   43  C   UNL     1      21.986  50.605  47.996  1.00  0.00     0.002 A 
HETATM   44  C   UNL     1      21.569  49.284  48.151  1.00  0.00     0.032 A 
BRANCH  40  45
HETATM   45  O   UNL     1      24.625  47.637  49.280  1.00  0.00    -0.354 OA
HETATM   46  C   UNL     1      25.907  47.970  49.789  1.00  0.00     0.210 C 
ENDBRANCH  40  45
ENDBRANCH  36  39
ENDBRANCH  34  35
ENDBRANCH  33  34
ENDBRANCH   2  33
TORSDOF 11
ENDMDL
MODEL 7
REMARK VINA RESULT:      -8.2     18.854     21.885
REMARK  11 active torsions:
REMARK  status: ('A' for Active; 'I' for Inactive)
REMARK    1  A    between atoms: C_2  and  O_3 
REMARK    2  A    between atoms: O_3  and  C_4 
REMARK    3  A    between atoms: C_5  and  O_6 
REMARK    4  A    between atoms: O_6  and  C_7 
REMARK    5  A    between atoms: C_7  and  C_8 
REMARK       I    between atoms: C_8  and  N_9 
REMARK    6  A    between atoms: N_9  and  C_10 
REMARK    7  A    between atoms: C_11  and  O_12 
REMARK    8  A    between atoms: C_21  and  C_22 
REMARK    9  A    between atoms: C_27  and  C_28 
REMARK   10  A    between atoms: C_34  and  C_35 
REMARK   11  A    between atoms: C_35  and  C_36 
ROOT
HETATM    1  C   UNL     1      36.840  47.601  66.637  1.00  0.00     0.102 A 
HETATM    2  C   UNL     1      37.113  48.578  65.674  1.00  0.00     0.102 A 
HETATM    3  C   UNL     1      37.092  48.256  64.316  1.00  0.00     0.040 A 
HETATM    4  C   UNL     1      36.757  46.968  63.908  1.00  0.00     0.012 A 
HETATM    5  C   UNL     1      36.450  45.981  64.855  1.00  0.00    -0.028 A 
HETATM    6  C   UNL     1      36.462  46.321  66.221  1.00  0.00     0.049 A 
ENDROOT
BRANCH   5   7
HETATM    7  C   UNL     1      36.130  44.570  64.393  1.00  0.00     0.157 C 
HETATM    8  N   UNL     1      35.209  43.964  65.337  1.00  0.00    -0.354 N 
HETATM    9  C   UNL     1      35.103  42.622  65.511  1.00  0.00     0.173 C 
HETATM   10  H   UNL     1      34.428  44.517  65.669  1.00  0.00     0.163 HD
HETATM   11  S   UNL     1      33.808  41.954  66.305  1.00  0.00    -0.041 SA
HETATM   12  N   UNL     1      36.126  41.861  65.039  1.00  0.00    -0.332 N 
HETATM   13  C   UNL     1      37.264  42.365  64.450  1.00  0.00     0.057 C 
HETATM   14  H   UNL     1      36.088  40.868  65.250  1.00  0.00     0.168 HD
HETATM   15  C   UNL     1      37.318  43.675  64.139  1.00  0.00     0.047 C 
BRANCH  13  16
HETATM   16  C   UNL     1      38.324  41.380  64.187  1.00  0.00    -0.009 A 
HETATM   17  C   UNL     1      39.040  40.808  65.246  1.00  0.00     0.014 A 
HETATM   18  C   UNL     1      40.010  39.836  64.996  1.00  0.00     0.001 A 
HETATM   19  C   UNL     1      40.266  39.425  63.690  1.00  0.00     0.000 A 
HETATM   20  C   UNL     1      39.555  39.988  62.630  1.00  0.00     0.001 A 
HETATM   21  C   UNL     1      38.587  40.963  62.876  1.00  0.00     0.014 A 
ENDBRANCH  13  16
BRANCH  15  22
HETATM   22  C   UNL     1      38.556  44.282  63.570  1.00  0.00     0.193 C 
HETATM   23  O   UNL     1      38.617  44.607  62.388  1.00  0.00    -0.287 OA
BRANCH  22  24
HETATM   24  C   UNL     1      39.776  44.343  64.418  1.00  0.00     0.015 A 
HETATM   25  C   UNL     1      41.022  44.262  63.782  1.00  0.00     0.015 A 
HETATM   26  C   UNL     1      42.195  44.265  64.537  1.00  0.00     0.001 A 
HETATM   27  C   UNL     1      42.128  44.360  65.925  1.00  0.00     0.000 A 
HETATM   28  C   UNL     1      40.890  44.464  66.562  1.00  0.00     0.001 A 
HETATM   29  C   UNL     1      39.712  44.463  65.810  1.00  0.00     0.015 A 
ENDBRANCH  22  24
ENDBRANCH  15  22
ENDBRANCH   5   7
BRANCH   1  30
HETATM   30  O   UNL     1      36.921  47.960  67.956  1.00  0.00    -0.349 OA
BRANCH  30  31
HETATM   31  C   UNL     1      35.852  47.494  68.790  1.00  0.00     0.171 C 
HETATM   32  C   UNL     1      34.616  48.345  68.561  1.00  0.00     0.034 C 
ENDBRANCH  30  31
ENDBRANCH   1  30
BRANCH   2  33
HETATM   33  O   UNL     1      37.516  49.848  65.988  1.00  0.00    -0.339 OA
BRANCH  33  34
HETATM   34  C   UNL     1      38.904  50.081  65.705  1.00  0.00     0.278 C 
BRANCH  34  35
HETATM   35  C   UNL     1      39.788  49.656  66.889  1.00  0.00     0.246 C 
HETATM   36  N   UNL     1      40.514  48.507  66.613  1.00  0.00    -0.323 N 
HETATM   37  H   UNL     1      40.510  48.252  65.633  1.00  0.00     0.169 HD
HETATM   38  O   UNL     1      39.857  50.351  67.898  1.00  0.00    -0.271 OA
BRANCH  36  39
HETATM   39  C   UNL     1      41.476  47.884  67.433  1.00  0.00     0.068 A 
HETATM   40  C   UNL     1      41.204  47.292  68.680  1.00  0.00     0.095 A 
HETATM   41  C   UNL     1      42.267  46.760  69.425  1.00  0.00     0.039 A 
HETATM   42  C   UNL     1      43.572  46.775  68.923  1.00  0.00     0.003 A 
HETATM   43  C   UNL     1      43.826  47.299  67.662  1.00  0.00     0.002 A 
HETATM   44  C   UNL     1      42.781  47.841  66.917  1.00  0.00     0.032 A 
BRANCH  40  45
HETATM   45  O   UNL     1      39.890  47.170  69.042  1.00  0.00    -0.354 OA
HETATM   46  C   UNL     1      39.465  45.946  69.623  1.00  0.00     0.210 C 
ENDBRANCH  40  45
ENDBRANCH  36  39
ENDBRANCH  34  35
ENDBRANCH  33  34
ENDBRANCH   2  33
TORSDOF 11
ENDMDL
MODEL 8
REMARK VINA RESULT:      -8.1      2.573      4.668
REMARK  11 active torsions:
REMARK  status: ('A' for Active; 'I' for Inactive)
REMARK    1  A    between atoms: C_2  and  O_3 
REMARK    2  A    between atoms: O_3  and  C_4 
REMARK    3  A    between atoms: C_5  and  O_6 
REMARK    4  A    between atoms: O_6  and  C_7 
REMARK    5  A    between atoms: C_7  and  C_8 
REMARK       I    between atoms: C_8  and  N_9 
REMARK    6  A    between atoms: N_9  and  C_10 
REMARK    7  A    between atoms: C_11  and  O_12 
REMARK    8  A    between atoms: C_21  and  C_22 
REMARK    9  A    between atoms: C_27  and  C_28 
REMARK   10  A    between atoms: C_34  and  C_35 
REMARK   11  A    between atoms: C_35  and  C_36 
ROOT
HETATM    1  C   UNL     1      22.335  44.229  47.093  1.00  0.00     0.102 A 
HETATM    2  C   UNL     1      21.336  44.292  48.070  1.00  0.00     0.102 A 
HETATM    3  C   UNL     1      21.626  43.983  49.399  1.00  0.00     0.040 A 
HETATM    4  C   UNL     1      22.925  43.648  49.771  1.00  0.00     0.012 A 
HETATM    5  C   UNL     1      23.949  43.607  48.815  1.00  0.00    -0.028 A 
HETATM    6  C   UNL     1      23.646  43.935  47.480  1.00  0.00     0.049 A 
ENDROOT
BRANCH   5   7
HETATM    7  C   UNL     1      25.350  43.198  49.232  1.00  0.00     0.157 C 
HETATM    8  N   UNL     1      25.434  41.749  49.239  1.00  0.00    -0.354 N 
HETATM    9  C   UNL     1      26.326  41.062  49.997  1.00  0.00     0.173 C 
HETATM   10  H   UNL     1      25.028  41.241  48.462  1.00  0.00     0.163 HD
HETATM   11  S   UNL     1      26.648  39.459  49.711  1.00  0.00    -0.041 SA
HETATM   12  N   UNL     1      26.907  41.740  51.022  1.00  0.00    -0.332 N 
HETATM   13  C   UNL     1      26.615  43.042  51.359  1.00  0.00     0.057 C 
HETATM   14  H   UNL     1      27.504  41.200  51.642  1.00  0.00     0.168 HD
HETATM   15  C   UNL     1      25.848  43.779  50.532  1.00  0.00     0.047 C 
BRANCH  13  16
HETATM   16  C   UNL     1      27.217  43.516  52.615  1.00  0.00    -0.009 A 
HETATM   17  C   UNL     1      28.599  43.724  52.706  1.00  0.00     0.014 A 
HETATM   18  C   UNL     1      29.160  44.222  53.883  1.00  0.00     0.001 A 
HETATM   19  C   UNL     1      28.344  44.521  54.972  1.00  0.00     0.000 A 
HETATM   20  C   UNL     1      26.967  44.319  54.889  1.00  0.00     0.001 A 
HETATM   21  C   UNL     1      26.403  43.819  53.714  1.00  0.00     0.014 A 
ENDBRANCH  13  16
BRANCH  15  22
HETATM   22  C   UNL     1      25.442  45.169  50.890  1.00  0.00     0.193 C 
HETATM   23  O   UNL     1      24.475  45.379  51.615  1.00  0.00    -0.287 OA
BRANCH  22  24
HETATM   24  C   UNL     1      26.131  46.307  50.226  1.00  0.00     0.015 A 
HETATM   25  C   UNL     1      25.444  47.525  50.132  1.00  0.00     0.015 A 
HETATM   26  C   UNL     1      26.027  48.609  49.475  1.00  0.00     0.001 A 
HETATM   27  C   UNL     1      27.299  48.484  48.921  1.00  0.00     0.000 A 
HETATM   28  C   UNL     1      27.996  47.279  49.032  1.00  0.00     0.001 A 
HETATM   29  C   UNL     1      27.418  46.191  49.691  1.00  0.00     0.015 A 
ENDBRANCH  22  24
ENDBRANCH  15  22
ENDBRANCH   5   7
BRANCH   1  30
HETATM   30  O   UNL     1      21.985  44.497  45.797  1.00  0.00    -0.349 OA
BRANCH  30  31
HETATM   31  C   UNL     1      21.753  45.878  45.493  1.00  0.00     0.171 C 
HETATM   32  C   UNL     1      20.567  46.003  44.555  1.00  0.00     0.034 C 
ENDBRANCH  30  31
ENDBRANCH   1  30
BRANCH   2  33
HETATM   33  O   UNL     1      20.021  44.546  47.780  1.00  0.00    -0.339 OA
BRANCH  33  34
HETATM   34  C   UNL     1      19.403  45.437  48.720  1.00  0.00     0.278 C 
BRANCH  34  35
HETATM   35  C   UNL     1      19.659  46.905  48.340  1.00  0.00     0.246 C 
HETATM   36  N   UNL     1      20.734  47.444  49.031  1.00  0.00    -0.323 N 
HETATM   37  H   UNL     1      21.297  46.751  49.507  1.00  0.00     0.169 HD
HETATM   38  O   UNL     1      19.000  47.444  47.456  1.00  0.00    -0.271 OA
BRANCH  36  39
HETATM   39  C   UNL     1      21.294  48.728  48.875  1.00  0.00     0.068 A 
HETATM   40  C   UNL     1      20.782  49.902  49.460  1.00  0.00     0.095 A 
HETATM   41  C   UNL     1      21.401  51.128  49.174  1.00  0.00     0.039 A 
HETATM   42  C   UNL     1      22.536  51.184  48.358  1.00  0.00     0.003 A 
HETATM   43  C   UNL     1      23.078  50.016  47.838  1.00  0.00     0.002 A 
HETATM   44  C   UNL     1      22.466  48.793  48.105  1.00  0.00     0.032 A 
BRANCH  40  45
HETATM   45  O   UNL     1      19.770  49.758  50.369  1.00  0.00    -0.354 OA
HETATM   46  C   UNL     1      18.498  50.299  50.046  1.00  0.00     0.210 C 
ENDBRANCH  40  45
ENDBRANCH  36  39
ENDBRANCH  34  35
ENDBRANCH  33  34
ENDBRANCH   2  33
TORSDOF 11
ENDMDL
MODEL 9
REMARK VINA RESULT:      -8.1      4.070     11.011
REMARK  11 active torsions:
REMARK  status: ('A' for Active; 'I' for Inactive)
REMARK    1  A    between atoms: C_2  and  O_3 
REMARK    2  A    between atoms: O_3  and  C_4 
REMARK    3  A    between atoms: C_5  and  O_6 
REMARK    4  A    between atoms: O_6  and  C_7 
REMARK    5  A    between atoms: C_7  and  C_8 
REMARK       I    between atoms: C_8  and  N_9 
REMARK    6  A    between atoms: N_9  and  C_10 
REMARK    7  A    between atoms: C_11  and  O_12 
REMARK    8  A    between atoms: C_21  and  C_22 
REMARK    9  A    between atoms: C_27  and  C_28 
REMARK   10  A    between atoms: C_34  and  C_35 
REMARK   11  A    between atoms: C_35  and  C_36 
ROOT
HETATM    1  C   UNL     1      21.931  44.885  48.919  1.00  0.00     0.102 A 
HETATM    2  C   UNL     1      22.874  45.914  49.011  1.00  0.00     0.102 A 
HETATM    3  C   UNL     1      22.740  47.067  48.237  1.00  0.00     0.040 A 
HETATM    4  C   UNL     1      21.641  47.221  47.396  1.00  0.00     0.012 A 
HETATM    5  C   UNL     1      20.667  46.216  47.310  1.00  0.00    -0.028 A 
HETATM    6  C   UNL     1      20.808  45.063  48.106  1.00  0.00     0.049 A 
ENDROOT
BRANCH   5   7
HETATM    7  C   UNL     1      19.499  46.381  46.355  1.00  0.00     0.157 C 
HETATM    8  N   UNL     1      19.996  46.343  44.992  1.00  0.00    -0.354 N 
HETATM    9  C   UNL     1      19.349  46.924  43.951  1.00  0.00     0.173 C 
HETATM   10  H   UNL     1      20.679  45.635  44.750  1.00  0.00     0.163 HD
HETATM   11  S   UNL     1      19.734  46.554  42.380  1.00  0.00    -0.041 SA
HETATM   12  N   UNL     1      18.403  47.851  44.259  1.00  0.00    -0.332 N 
HETATM   13  C   UNL     1      18.102  48.261  45.539  1.00  0.00     0.057 C 
HETATM   14  H   UNL     1      17.985  48.350  43.479  1.00  0.00     0.168 HD
HETATM   15  C   UNL     1      18.627  47.592  46.583  1.00  0.00     0.047 C 
BRANCH  13  16
HETATM   16  C   UNL     1      17.186  49.407  45.632  1.00  0.00    -0.009 A 
HETATM   17  C   UNL     1      17.634  50.701  45.339  1.00  0.00     0.014 A 
HETATM   18  C   UNL     1      16.749  51.779  45.378  1.00  0.00     0.001 A 
HETATM   19  C   UNL     1      15.410  51.571  45.704  1.00  0.00     0.000 A 
HETATM   20  C   UNL     1      14.955  50.285  45.994  1.00  0.00     0.001 A 
HETATM   21  C   UNL     1      15.839  49.205  45.958  1.00  0.00     0.014 A 
ENDBRANCH  13  16
BRANCH  15  22
HETATM   22  C   UNL     1      18.392  48.043  47.985  1.00  0.00     0.193 C 
HETATM   23  O   UNL     1      17.779  47.341  48.783  1.00  0.00    -0.287 OA
BRANCH  22  24
HETATM   24  C   UNL     1      18.773  49.430  48.362  1.00  0.00     0.015 A 
HETATM   25  C   UNL     1      17.857  50.182  49.110  1.00  0.00     0.015 A 
HETATM   26  C   UNL     1      18.146  51.505  49.447  1.00  0.00     0.001 A 
HETATM   27  C   UNL     1      19.353  52.076  49.047  1.00  0.00     0.000 A 
HETATM   28  C   UNL     1      20.277  51.324  48.320  1.00  0.00     0.001 A 
HETATM   29  C   UNL     1      19.994  49.998  47.982  1.00  0.00     0.015 A 
ENDBRANCH  22  24
ENDBRANCH  15  22
ENDBRANCH   5   7
BRANCH   1  30
HETATM   30  O   UNL     1      22.138  43.756  49.665  1.00  0.00    -0.349 OA
BRANCH  30  31
HETATM   31  C   UNL     1      22.882  42.716  49.019  1.00  0.00     0.171 C 
HETATM   32  C   UNL     1      24.097  42.360  49.857  1.00  0.00     0.034 C 
ENDBRANCH  30  31
ENDBRANCH   1  30
BRANCH   2  33
HETATM   33  O   UNL     1      24.018  45.818  49.759  1.00  0.00    -0.339 OA
BRANCH  33  34
HETATM   34  C   UNL     1      24.603  47.094  50.054  1.00  0.00     0.278 C 
BRANCH  34  35
HETATM   35  C   UNL     1      25.702  46.965  51.122  1.00  0.00     0.246 C 
HETATM   36  N   UNL     1      25.686  45.724  51.741  1.00  0.00    -0.323 N 
HETATM   37  H   UNL     1      25.108  45.042  51.265  1.00  0.00     0.169 HD
HETATM   38  O   UNL     1      26.517  47.867  51.290  1.00  0.00    -0.271 OA
BRANCH  36  39
HETATM   39  C   UNL     1      26.592  45.236  52.703  1.00  0.00     0.068 A 
HETATM   40  C   UNL     1      26.687  45.705  54.027  1.00  0.00     0.095 A 
HETATM   41  C   UNL     1      27.677  45.174  54.866  1.00  0.00     0.039 A 
HETATM   42  C   UNL     1      28.531  44.162  54.415  1.00  0.00     0.003 A 
HETATM   43  C   UNL     1      28.391  43.654  53.130  1.00  0.00     0.002 A 
HETATM   44  C   UNL     1      27.418  44.181  52.283  1.00  0.00     0.032 A 
BRANCH  40  45
HETATM   45  O   UNL     1      25.723  46.580  54.451  1.00  0.00    -0.354 OA
HETATM   46  C   UNL     1      26.128  47.883  54.844  1.00  0.00     0.210 C 
ENDBRANCH  40  45
ENDBRANCH  36  39
ENDBRANCH  34  35
ENDBRANCH  33  34
ENDBRANCH   2  33
TORSDOF 11
ENDMDL
MODEL 10
REMARK VINA RESULT:      -8.0      4.872     11.495
REMARK  11 active torsions:
REMARK  status: ('A' for Active; 'I' for Inactive)
REMARK    1  A    between atoms: C_2  and  O_3 
REMARK    2  A    between atoms: O_3  and  C_4 
REMARK    3  A    between atoms: C_5  and  O_6 
REMARK    4  A    between atoms: O_6  and  C_7 
REMARK    5  A    between atoms: C_7  and  C_8 
REMARK       I    between atoms: C_8  and  N_9 
REMARK    6  A    between atoms: N_9  and  C_10 
REMARK    7  A    between atoms: C_11  and  O_12 
REMARK    8  A    between atoms: C_21  and  C_22 
REMARK    9  A    between atoms: C_27  and  C_28 
REMARK   10  A    between atoms: C_34  and  C_35 
REMARK   11  A    between atoms: C_35  and  C_36 
ROOT
HETATM    1  C   UNL     1      21.530  46.773  47.443  1.00  0.00     0.102 A 
HETATM    2  C   UNL     1      21.205  45.611  48.151  1.00  0.00     0.102 A 
HETATM    3  C   UNL     1      19.987  44.967  47.931  1.00  0.00     0.040 A 
HETATM    4  C   UNL     1      19.103  45.453  46.972  1.00  0.00     0.012 A 
HETATM    5  C   UNL     1      19.420  46.598  46.229  1.00  0.00    -0.028 A 
HETATM    6  C   UNL     1      20.658  47.231  46.451  1.00  0.00     0.049 A 
ENDROOT
BRANCH   5   7
HETATM    7  C   UNL     1      18.425  47.139  45.219  1.00  0.00     0.157 C 
HETATM    8  N   UNL     1      19.060  47.198  43.915  1.00  0.00    -0.354 N 
HETATM    9  C   UNL     1      18.663  48.046  42.934  1.00  0.00     0.173 C 
HETATM   10  H   UNL     1      19.619  46.406  43.618  1.00  0.00     0.163 HD
HETATM   11  S   UNL     1      19.150  47.837  41.362  1.00  0.00    -0.041 SA
HETATM   12  N   UNL     1      17.883  49.094  43.311  1.00  0.00    -0.332 N 
HETATM   13  C   UNL     1      17.519  49.366  44.611  1.00  0.00     0.057 C 
HETATM   14  H   UNL     1      17.662  49.777  42.592  1.00  0.00     0.168 HD
HETATM   15  C   UNL     1      17.780  48.458  45.570  1.00  0.00     0.047 C 
BRANCH  13  16
HETATM   16  C   UNL     1      16.834  50.652  44.814  1.00  0.00    -0.009 A 
HETATM   17  C   UNL     1      15.474  50.687  45.146  1.00  0.00     0.014 A 
HETATM   18  C   UNL     1      14.840  51.906  45.388  1.00  0.00     0.001 A 
HETATM   19  C   UNL     1      15.561  53.096  45.309  1.00  0.00     0.000 A 
HETATM   20  C   UNL     1      16.916  53.069  44.982  1.00  0.00     0.001 A 
HETATM   21  C   UNL     1      17.553  51.852  44.736  1.00  0.00     0.014 A 
ENDBRANCH  13  16
BRANCH  15  22
HETATM   22  C   UNL     1      17.474  48.739  47.003  1.00  0.00     0.193 C 
HETATM   23  O   UNL     1      16.661  48.060  47.622  1.00  0.00    -0.287 OA
BRANCH  22  24
HETATM   24  C   UNL     1      18.050  49.958  47.629  1.00  0.00     0.015 A 
HETATM   25  C   UNL     1      19.424  50.186  47.479  1.00  0.00     0.015 A 
HETATM   26  C   UNL     1      20.023  51.289  48.089  1.00  0.00     0.001 A 
HETATM   27  C   UNL     1      19.250  52.172  48.841  1.00  0.00     0.000 A 
HETATM   28  C   UNL     1      17.876  51.961  48.975  1.00  0.00     0.001 A 
HETATM   29  C   UNL     1      17.272  50.859  48.365  1.00  0.00     0.015 A 
ENDBRANCH  22  24
ENDBRANCH  15  22
ENDBRANCH   5   7
BRANCH   1  30
HETATM   30  O   UNL     1      22.717  47.391  47.733  1.00  0.00    -0.349 OA
BRANCH  30  31
HETATM   31  C   UNL     1      22.625  48.530  48.597  1.00  0.00     0.171 C 
HETATM   32  C   UNL     1      23.362  49.703  47.977  1.00  0.00     0.034 C 
ENDBRANCH  30  31
ENDBRANCH   1  30
BRANCH   2  33
HETATM   33  O   UNL     1      21.984  45.104  49.157  1.00  0.00    -0.339 OA
BRANCH  33  34
HETATM   34  C   UNL     1      23.140  44.406  48.672  1.00  0.00     0.278 C 
BRANCH  34  35
HETATM   35  C   UNL     1      24.379  44.730  49.523  1.00  0.00     0.246 C 
HETATM   36  N   UNL     1      24.043  45.316  50.734  1.00  0.00    -0.323 N 
HETATM   37  H   UNL     1      23.058  45.250  50.955  1.00  0.00     0.169 HD
HETATM   38  O   UNL     1      25.499  44.401  49.144  1.00  0.00    -0.271 OA
BRANCH  36  39
HETATM   39  C   UNL     1      24.914  45.669  51.784  1.00  0.00     0.068 A 
HETATM   40  C   UNL     1      25.613  46.887  51.871  1.00  0.00     0.095 A 
HETATM   41  C   UNL     1      26.498  47.087  52.941  1.00  0.00     0.039 A 
HETATM   42  C   UNL     1      26.653  46.113  53.934  1.00  0.00     0.003 A 
HETATM   43  C   UNL     1      25.911  44.941  53.881  1.00  0.00     0.002 A 
HETATM   44  C   UNL     1      25.037  44.725  52.817  1.00  0.00     0.032 A 
BRANCH  40  45
HETATM   45  O   UNL     1      25.299  47.855  50.957  1.00  0.00    -0.354 OA
HETATM   46  C   UNL     1      26.182  48.057  49.864  1.00  0.00     0.210 C 
ENDBRANCH  40  45
ENDBRANCH  36  39
ENDBRANCH  34  35
ENDBRANCH  33  34
ENDBRANCH   2  33
TORSDOF 11
ENDMDL
