MODEL 1
REMARK VINA RESULT:     -10.4      0.000      0.000
REMARK  7 active torsions:
REMARK  status: ('A' for Active; 'I' for Inactive)
REMARK    1  A    between atoms: C_2  and  C_3 
REMARK    2  A    between atoms: C_3  and  N_4 
REMARK       I    between atoms: N_4  and  C_5 
REMARK    3  A    between atoms: C_5  and  C_6 
REMARK    4  A    between atoms: C_7  and  N_8 
REMARK    5  A    between atoms: N_9  and  N_10 
REMARK    6  A    between atoms: C_11  and  C_12 
REMARK    7  A    between atoms: C_13  and  O_14 
ROOT
HETATM    1  C   UNL     1      27.232  45.963  54.517  1.00  0.00     0.104 C 
HETATM    2  C   UNL     1      26.234  46.866  54.168  1.00  0.00     0.123 C 
HETATM    3  N   UNL     1      25.844  46.560  52.866  1.00  0.00    -0.202 N 
HETATM    4  C   UNL     1      26.154  45.236  52.645  1.00  0.00     0.183 A 
HETATM    5  C   UNL     1      27.081  44.868  53.619  1.00  0.00     0.124 A 
HETATM    6  N   UNL     1      27.691  43.658  53.576  1.00  0.00    -0.242 NA
HETATM    7  C   UNL     1      27.287  42.855  52.578  1.00  0.00     0.086 A 
HETATM    8  C   UNL     1      26.320  43.247  51.614  1.00  0.00     0.088 A 
HETATM    9  N   UNL     1      25.751  44.464  51.609  1.00  0.00    -0.225 NA
HETATM   10  C   UNL     1      27.839  41.582  52.492  1.00  0.00     0.034 A 
HETATM   11  C   UNL     1      27.456  40.682  51.497  1.00  0.00     0.002 A 
HETATM   12  C   UNL     1      26.500  41.062  50.564  1.00  0.00     0.002 A 
HETATM   13  C   UNL     1      25.945  42.340  50.631  1.00  0.00     0.034 A 
ENDROOT
BRANCH   3  14
HETATM   14  N   UNL     1      25.311  47.426  51.928  1.00  0.00    -0.176 NA
HETATM   15  C   UNL     1      26.086  47.575  50.895  1.00  0.00     0.153 C 
BRANCH  15  16
HETATM   16  C   UNL     1      25.733  48.417  49.742  1.00  0.00     0.017 A 
HETATM   17  C   UNL     1      26.690  49.119  49.006  1.00  0.00     0.077 A 
HETATM   18  C   UNL     1      26.288  49.955  47.967  1.00  0.00     0.039 A 
HETATM   19  C   UNL     1      24.932  50.082  47.654  1.00  0.00     0.022 A 
HETATM   20  C   UNL     1      23.982  49.367  48.385  1.00  0.00     0.012 A 
HETATM   21 BR   UNL     1      22.146  49.531  47.960  1.00  0.00    -0.051 Br
HETATM   22  C   UNL     1      24.373  48.536  49.431  1.00  0.00     0.034 A 
BRANCH  17  23
HETATM   23  O   UNL     1      28.028  49.048  49.268  1.00  0.00    -0.360 OA
HETATM   24  H   UNL     1      28.328  49.933  49.578  1.00  0.00     0.217 HD
ENDBRANCH  17  23
ENDBRANCH  15  16
ENDBRANCH   3  14
BRANCH   2  25
HETATM   25  N   UNL     1      25.741  47.958  54.833  1.00  0.00    -0.286 NA
HETATM   26  H   UNL     1      25.835  47.944  55.853  1.00  0.00     0.125 HD
HETATM   27  H   UNL     1      26.036  48.875  54.485  1.00  0.00     0.125 HD
ENDBRANCH   2  25
BRANCH   1  28
HETATM   28  C   UNL     1      28.224  46.154  55.570  1.00  0.00     0.257 C 
HETATM   29  N   UNL     1      29.381  45.430  55.344  1.00  0.00    -0.356 N 
HETATM   30  H   UNL     1      29.340  44.798  54.552  1.00  0.00     0.162 HD
HETATM   31  O   UNL     1      28.029  46.802  56.590  1.00  0.00    -0.267 OA
BRANCH  29  32
HETATM   32  C   UNL     1      30.313  45.099  56.398  1.00  0.00     0.126 C 
BRANCH  32  33
HETATM   33  C   UNL     1      31.264  43.952  56.012  1.00  0.00    -0.005 C 
HETATM   34  C   UNL     1      30.634  43.032  54.967  1.00  0.00     0.011 C 
HETATM   35  C   UNL     1      31.734  43.137  57.223  1.00  0.00     0.011 C 
ENDBRANCH  32  33
ENDBRANCH  29  32
ENDBRANCH   1  28
TORSDOF 7
ENDMDL
MODEL 2
REMARK VINA RESULT:      -9.7      3.227      7.276
REMARK  7 active torsions:
REMARK  status: ('A' for Active; 'I' for Inactive)
REMARK    1  A    between atoms: C_2  and  C_3 
REMARK    2  A    between atoms: C_3  and  N_4 
REMARK       I    between atoms: N_4  and  C_5 
REMARK    3  A    between atoms: C_5  and  C_6 
REMARK    4  A    between atoms: C_7  and  N_8 
REMARK    5  A    between atoms: N_9  and  N_10 
REMARK    6  A    between atoms: C_11  and  C_12 
REMARK    7  A    between atoms: C_13  and  O_14 
ROOT
HETATM    1  C   UNL     1      26.109  45.050  52.554  1.00  0.00     0.104 C 
HETATM    2  C   UNL     1      25.624  43.807  52.164  1.00  0.00     0.123 C 
HETATM    3  N   UNL     1      26.658  42.891  52.340  1.00  0.00    -0.202 N 
HETATM    4  C   UNL     1      27.506  43.407  53.295  1.00  0.00     0.183 A 
HETATM    5  C   UNL     1      27.231  44.771  53.385  1.00  0.00     0.124 A 
HETATM    6  N   UNL     1      28.008  45.588  54.140  1.00  0.00    -0.242 NA
HETATM    7  C   UNL     1      28.992  44.970  54.815  1.00  0.00     0.086 A 
HETATM    8  C   UNL     1      29.232  43.573  54.724  1.00  0.00     0.088 A 
HETATM    9  N   UNL     1      28.509  42.761  53.935  1.00  0.00    -0.225 NA
HETATM   10  C   UNL     1      29.805  45.736  55.641  1.00  0.00     0.034 A 
HETATM   11  C   UNL     1      30.835  45.165  56.391  1.00  0.00     0.002 A 
HETATM   12  C   UNL     1      31.058  43.798  56.312  1.00  0.00     0.002 A 
HETATM   13  C   UNL     1      30.257  43.017  55.478  1.00  0.00     0.034 A 
ENDROOT
BRANCH   3  14
HETATM   14  N   UNL     1      26.857  41.710  51.646  1.00  0.00    -0.176 NA
HETATM   15  C   UNL     1      27.577  41.880  50.576  1.00  0.00     0.153 C 
BRANCH  15  16
HETATM   16  C   UNL     1      27.959  40.777  49.683  1.00  0.00     0.017 A 
HETATM   17  C   UNL     1      28.668  39.661  50.133  1.00  0.00     0.077 A 
HETATM   18  C   UNL     1      29.062  38.680  49.226  1.00  0.00     0.039 A 
HETATM   19  C   UNL     1      28.741  38.808  47.871  1.00  0.00     0.022 A 
HETATM   20  C   UNL     1      28.021  39.918  47.432  1.00  0.00     0.012 A 
HETATM   21 BR   UNL     1      27.577  40.091  45.601  1.00  0.00    -0.051 Br
HETATM   22  C   UNL     1      27.630  40.908  48.328  1.00  0.00     0.034 A 
BRANCH  17  23
HETATM   23  O   UNL     1      29.024  39.483  51.439  1.00  0.00    -0.360 OA
HETATM   24  H   UNL     1      29.604  40.233  51.704  1.00  0.00     0.217 HD
ENDBRANCH  17  23
ENDBRANCH  15  16
ENDBRANCH   3  14
BRANCH   2  25
HETATM   25  N   UNL     1      24.433  43.451  51.584  1.00  0.00    -0.286 NA
HETATM   26  H   UNL     1      24.480  42.708  50.880  1.00  0.00     0.125 HD
HETATM   27  H   UNL     1      23.657  43.255  52.223  1.00  0.00     0.125 HD
ENDBRANCH   2  25
BRANCH   1  28
HETATM   28  C   UNL     1      25.568  46.342  52.148  1.00  0.00     0.257 C 
HETATM   29  N   UNL     1      25.368  46.426  50.782  1.00  0.00    -0.356 N 
HETATM   30  H   UNL     1      25.718  45.636  50.251  1.00  0.00     0.162 HD
HETATM   31  O   UNL     1      25.397  47.287  52.909  1.00  0.00    -0.267 OA
BRANCH  29  32
HETATM   32  C   UNL     1      25.263  47.688  50.085  1.00  0.00     0.126 C 
BRANCH  32  33
HETATM   33  C   UNL     1      26.636  48.279  49.716  1.00  0.00    -0.005 C 
HETATM   34  C   UNL     1      26.503  49.397  48.682  1.00  0.00     0.011 C 
HETATM   35  C   UNL     1      27.626  47.217  49.225  1.00  0.00     0.011 C 
ENDBRANCH  32  33
ENDBRANCH  29  32
ENDBRANCH   1  28
TORSDOF 7
ENDMDL
MODEL 3
REMARK VINA RESULT:      -9.2      3.671      8.304
REMARK  7 active torsions:
REMARK  status: ('A' for Active; 'I' for Inactive)
REMARK    1  A    between atoms: C_2  and  C_3 
REMARK    2  A    between atoms: C_3  and  N_4 
REMARK       I    between atoms: N_4  and  C_5 
REMARK    3  A    between atoms: C_5  and  C_6 
REMARK    4  A    between atoms: C_7  and  N_8 
REMARK    5  A    between atoms: N_9  and  N_10 
REMARK    6  A    between atoms: C_11  and  C_12 
REMARK    7  A    between atoms: C_13  and  O_14 
ROOT
HETATM    1  C   UNL     1      25.133  46.231  50.297  1.00  0.00     0.104 C 
HETATM    2  C   UNL     1      25.255  45.015  49.634  1.00  0.00     0.123 C 
HETATM    3  N   UNL     1      26.388  44.384  50.142  1.00  0.00    -0.202 N 
HETATM    4  C   UNL     1      26.610  44.891  51.404  1.00  0.00     0.183 A 
HETATM    5  C   UNL     1      25.896  46.087  51.490  1.00  0.00     0.124 A 
HETATM    6  N   UNL     1      26.032  46.900  52.567  1.00  0.00    -0.242 NA
HETATM    7  C   UNL     1      26.842  46.432  53.532  1.00  0.00     0.086 A 
HETATM    8  C   UNL     1      27.535  45.197  53.427  1.00  0.00     0.088 A 
HETATM    9  N   UNL     1      27.457  44.409  52.342  1.00  0.00    -0.225 NA
HETATM   10  C   UNL     1      27.000  47.192  54.685  1.00  0.00     0.034 A 
HETATM   11  C   UNL     1      27.806  46.765  55.741  1.00  0.00     0.002 A 
HETATM   12  C   UNL     1      28.472  45.551  55.643  1.00  0.00     0.002 A 
HETATM   13  C   UNL     1      28.331  44.782  54.487  1.00  0.00     0.034 A 
ENDROOT
BRANCH   3  14
HETATM   14  N   UNL     1      27.198  43.469  49.493  1.00  0.00    -0.176 NA
HETATM   15  C   UNL     1      26.967  42.247  49.871  1.00  0.00     0.153 C 
BRANCH  15  16
HETATM   16  C   UNL     1      27.671  41.086  49.308  1.00  0.00     0.017 A 
HETATM   17  C   UNL     1      27.709  40.826  47.937  1.00  0.00     0.077 A 
HETATM   18  C   UNL     1      28.334  39.672  47.467  1.00  0.00     0.039 A 
HETATM   19  C   UNL     1      28.930  38.783  48.366  1.00  0.00     0.022 A 
HETATM   20  C   UNL     1      28.900  39.056  49.734  1.00  0.00     0.012 A 
HETATM   21 BR   UNL     1      29.712  37.859  50.952  1.00  0.00    -0.051 Br
HETATM   22  C   UNL     1      28.271  40.201  50.213  1.00  0.00     0.034 A 
BRANCH  17  23
HETATM   23  O   UNL     1      27.136  41.647  47.008  1.00  0.00    -0.360 OA
HETATM   24  H   UNL     1      27.390  42.574  47.219  1.00  0.00     0.217 HD
ENDBRANCH  17  23
ENDBRANCH  15  16
ENDBRANCH   3  14
BRANCH   2  25
HETATM   25  N   UNL     1      24.545  44.491  48.584  1.00  0.00    -0.286 NA
HETATM   26  H   UNL     1      24.222  45.162  47.881  1.00  0.00     0.125 HD
HETATM   27  H   UNL     1      24.963  43.686  48.109  1.00  0.00     0.125 HD
ENDBRANCH   2  25
BRANCH   1  28
HETATM   28  C   UNL     1      24.394  47.393  49.818  1.00  0.00     0.257 C 
HETATM   29  N   UNL     1      23.142  47.059  49.331  1.00  0.00    -0.356 N 
HETATM   30  H   UNL     1      22.959  46.063  49.276  1.00  0.00     0.162 HD
HETATM   31  O   UNL     1      24.854  48.526  49.759  1.00  0.00    -0.267 OA
BRANCH  29  32
HETATM   32  C   UNL     1      22.404  47.912  48.427  1.00  0.00     0.126 C 
BRANCH  32  33
HETATM   33  C   UNL     1      21.573  48.979  49.163  1.00  0.00    -0.005 C 
HETATM   34  C   UNL     1      20.080  48.654  49.117  1.00  0.00     0.011 C 
HETATM   35  C   UNL     1      21.825  50.396  48.634  1.00  0.00     0.011 C 
ENDBRANCH  32  33
ENDBRANCH  29  32
ENDBRANCH   1  28
TORSDOF 7
ENDMDL
MODEL 4
REMARK VINA RESULT:      -9.2      3.242      7.593
REMARK  7 active torsions:
REMARK  status: ('A' for Active; 'I' for Inactive)
REMARK    1  A    between atoms: C_2  and  C_3 
REMARK    2  A    between atoms: C_3  and  N_4 
REMARK       I    between atoms: N_4  and  C_5 
REMARK    3  A    between atoms: C_5  and  C_6 
REMARK    4  A    between atoms: C_7  and  N_8 
REMARK    5  A    between atoms: N_9  and  N_10 
REMARK    6  A    between atoms: C_11  and  C_12 
REMARK    7  A    between atoms: C_13  and  O_14 
ROOT
HETATM    1  C   UNL     1      25.429  45.609  50.517  1.00  0.00     0.104 C 
HETATM    2  C   UNL     1      26.091  46.192  51.591  1.00  0.00     0.123 C 
HETATM    3  N   UNL     1      26.689  45.161  52.311  1.00  0.00    -0.202 N 
HETATM    4  C   UNL     1      26.870  44.106  51.445  1.00  0.00     0.183 A 
HETATM    5  C   UNL     1      26.031  44.329  50.353  1.00  0.00     0.124 A 
HETATM    6  N   UNL     1      25.875  43.385  49.392  1.00  0.00    -0.242 NA
HETATM    7  C   UNL     1      26.624  42.282  49.555  1.00  0.00     0.086 A 
HETATM    8  C   UNL     1      27.491  42.093  50.664  1.00  0.00     0.088 A 
HETATM    9  N   UNL     1      27.612  42.993  51.654  1.00  0.00    -0.225 NA
HETATM   10  C   UNL     1      26.548  41.286  48.588  1.00  0.00     0.034 A 
HETATM   11  C   UNL     1      27.310  40.120  48.674  1.00  0.00     0.002 A 
HETATM   12  C   UNL     1      28.168  39.944  49.751  1.00  0.00     0.002 A 
HETATM   13  C   UNL     1      28.247  40.930  50.735  1.00  0.00     0.034 A 
ENDROOT
BRANCH   3  14
HETATM   14  N   UNL     1      26.988  45.148  53.662  1.00  0.00    -0.176 NA
HETATM   15  C   UNL     1      28.261  45.285  53.890  1.00  0.00     0.153 C 
BRANCH  15  16
HETATM   16  C   UNL     1      28.833  45.337  55.243  1.00  0.00     0.017 A 
HETATM   17  C   UNL     1      28.394  46.246  56.207  1.00  0.00     0.077 A 
HETATM   18  C   UNL     1      29.022  46.295  57.450  1.00  0.00     0.039 A 
HETATM   19  C   UNL     1      30.081  45.428  57.734  1.00  0.00     0.022 A 
HETATM   20  C   UNL     1      30.505  44.513  56.771  1.00  0.00     0.012 A 
HETATM   21 BR   UNL     1      31.933  43.334  57.154  1.00  0.00    -0.051 Br
HETATM   22  C   UNL     1      29.891  44.463  55.523  1.00  0.00     0.034 A 
BRANCH  17  23
HETATM   23  O   UNL     1      27.374  47.128  55.988  1.00  0.00    -0.360 OA
HETATM   24  H   UNL     1      27.622  47.701  55.227  1.00  0.00     0.217 HD
ENDBRANCH  17  23
ENDBRANCH  15  16
ENDBRANCH   3  14
BRANCH   2  25
HETATM   25  N   UNL     1      26.117  47.491  52.031  1.00  0.00    -0.286 NA
HETATM   26  H   UNL     1      27.017  47.828  52.384  1.00  0.00     0.125 HD
HETATM   27  H   UNL     1      25.723  48.194  51.398  1.00  0.00     0.125 HD
ENDBRANCH   2  25
BRANCH   1  28
HETATM   28  C   UNL     1      24.332  46.208  49.765  1.00  0.00     0.257 C 
HETATM   29  N   UNL     1      24.522  47.560  49.539  1.00  0.00    -0.356 N 
HETATM   30  H   UNL     1      25.326  47.961  50.010  1.00  0.00     0.162 HD
HETATM   31  O   UNL     1      23.310  45.614  49.447  1.00  0.00    -0.267 OA
BRANCH  29  32
HETATM   32  C   UNL     1      23.435  48.458  49.219  1.00  0.00     0.126 C 
BRANCH  32  33
HETATM   33  C   UNL     1      23.875  49.625  48.317  1.00  0.00    -0.005 C 
HETATM   34  C   UNL     1      25.394  49.793  48.323  1.00  0.00     0.011 C 
HETATM   35  C   UNL     1      23.193  50.948  48.685  1.00  0.00     0.011 C 
ENDBRANCH  32  33
ENDBRANCH  29  32
ENDBRANCH   1  28
TORSDOF 7
ENDMDL
MODEL 5
REMARK VINA RESULT:      -9.2      3.271      8.035
REMARK  7 active torsions:
REMARK  status: ('A' for Active; 'I' for Inactive)
REMARK    1  A    between atoms: C_2  and  C_3 
REMARK    2  A    between atoms: C_3  and  N_4 
REMARK       I    between atoms: N_4  and  C_5 
REMARK    3  A    between atoms: C_5  and  C_6 
REMARK    4  A    between atoms: C_7  and  N_8 
REMARK    5  A    between atoms: N_9  and  N_10 
REMARK    6  A    between atoms: C_11  and  C_12 
REMARK    7  A    between atoms: C_13  and  O_14 
ROOT
HETATM    1  C   UNL     1      24.518  46.548  50.710  1.00  0.00     0.104 C 
HETATM    2  C   UNL     1      23.974  45.299  50.432  1.00  0.00     0.123 C 
HETATM    3  N   UNL     1      24.798  44.351  51.034  1.00  0.00    -0.202 N 
HETATM    4  C   UNL     1      25.454  44.977  52.071  1.00  0.00     0.183 A 
HETATM    5  C   UNL     1      25.357  46.349  51.843  1.00  0.00     0.124 A 
HETATM    6  N   UNL     1      26.034  47.232  52.619  1.00  0.00    -0.242 NA
HETATM    7  C   UNL     1      26.731  46.682  53.627  1.00  0.00     0.086 A 
HETATM    8  C   UNL     1      26.790  45.281  53.852  1.00  0.00     0.088 A 
HETATM    9  N   UNL     1      26.174  44.391  53.057  1.00  0.00    -0.225 NA
HETATM   10  C   UNL     1      27.419  47.527  54.489  1.00  0.00     0.034 A 
HETATM   11  C   UNL     1      28.148  47.035  55.573  1.00  0.00     0.002 A 
HETATM   12  C   UNL     1      28.193  45.666  55.799  1.00  0.00     0.002 A 
HETATM   13  C   UNL     1      27.516  44.804  54.935  1.00  0.00     0.034 A 
ENDROOT
BRANCH   3  14
HETATM   14  N   UNL     1      24.993  43.040  50.638  1.00  0.00    -0.176 NA
HETATM   15  C   UNL     1      26.087  42.888  49.952  1.00  0.00     0.153 C 
BRANCH  15  16
HETATM   16  C   UNL     1      26.541  41.585  49.442  1.00  0.00     0.017 A 
HETATM   17  C   UNL     1      26.672  40.464  50.264  1.00  0.00     0.077 A 
HETATM   18  C   UNL     1      27.172  39.275  49.739  1.00  0.00     0.039 A 
HETATM   19  C   UNL     1      27.531  39.201  48.390  1.00  0.00     0.022 A 
HETATM   20  C   UNL     1      27.384  40.321  47.571  1.00  0.00     0.012 A 
HETATM   21 BR   UNL     1      27.863  40.223  45.744  1.00  0.00    -0.051 Br
HETATM   22  C   UNL     1      26.894  41.516  48.089  1.00  0.00     0.034 A 
BRANCH  17  23
HETATM   23  O   UNL     1      26.351  40.474  51.591  1.00  0.00    -0.360 OA
HETATM   24  H   UNL     1      26.234  39.542  51.886  1.00  0.00     0.217 HD
ENDBRANCH  17  23
ENDBRANCH  15  16
ENDBRANCH   3  14
BRANCH   2  25
HETATM   25  N   UNL     1      22.920  44.938  49.632  1.00  0.00    -0.286 NA
HETATM   26  H   UNL     1      22.125  44.501  50.107  1.00  0.00     0.125 HD
HETATM   27  H   UNL     1      22.571  45.654  48.988  1.00  0.00     0.125 HD
ENDBRANCH   2  25
BRANCH   1  28
HETATM   28  C   UNL     1      24.274  47.771  49.954  1.00  0.00     0.257 C 
HETATM   29  N   UNL     1      22.935  47.949  49.653  1.00  0.00    -0.356 N 
HETATM   30  H   UNL     1      22.337  47.169  49.900  1.00  0.00     0.162 HD
HETATM   31  O   UNL     1      25.157  48.514  49.543  1.00  0.00    -0.267 OA
BRANCH  29  32
HETATM   32  C   UNL     1      22.485  48.808  48.580  1.00  0.00     0.126 C 
BRANCH  32  33
HETATM   33  C   UNL     1      22.246  50.257  49.041  1.00  0.00    -0.005 C 
HETATM   34  C   UNL     1      20.800  50.689  48.798  1.00  0.00     0.011 C 
HETATM   35  C   UNL     1      23.214  51.253  48.392  1.00  0.00     0.011 C 
ENDBRANCH  32  33
ENDBRANCH  29  32
ENDBRANCH   1  28
TORSDOF 7
ENDMDL
MODEL 6
REMARK VINA RESULT:      -9.1      1.371      1.814
REMARK  7 active torsions:
REMARK  status: ('A' for Active; 'I' for Inactive)
REMARK    1  A    between atoms: C_2  and  C_3 
REMARK    2  A    between atoms: C_3  and  N_4 
REMARK       I    between atoms: N_4  and  C_5 
REMARK    3  A    between atoms: C_5  and  C_6 
REMARK    4  A    between atoms: C_7  and  N_8 
REMARK    5  A    between atoms: N_9  and  N_10 
REMARK    6  A    between atoms: C_11  and  C_12 
REMARK    7  A    between atoms: C_13  and  O_14 
ROOT
HETATM    1  C   UNL     1      27.610  44.422  53.325  1.00  0.00     0.104 C 
HETATM    2  C   UNL     1      26.683  45.457  53.319  1.00  0.00     0.123 C 
HETATM    3  N   UNL     1      26.019  45.406  52.096  1.00  0.00    -0.202 N 
HETATM    4  C   UNL     1      26.116  44.113  51.630  1.00  0.00     0.183 A 
HETATM    5  C   UNL     1      27.157  43.507  52.331  1.00  0.00     0.124 A 
HETATM    6  N   UNL     1      27.595  42.268  51.993  1.00  0.00    -0.242 NA
HETATM    7  C   UNL     1      26.914  41.680  50.995  1.00  0.00     0.086 A 
HETATM    8  C   UNL     1      25.838  42.312  50.316  1.00  0.00     0.088 A 
HETATM    9  N   UNL     1      25.433  43.560  50.600  1.00  0.00    -0.225 NA
HETATM   10  C   UNL     1      27.279  40.393  50.619  1.00  0.00     0.034 A 
HETATM   11  C   UNL     1      26.607  39.706  49.607  1.00  0.00     0.002 A 
HETATM   12  C   UNL     1      25.547  40.320  48.954  1.00  0.00     0.002 A 
HETATM   13  C   UNL     1      25.176  41.616  49.313  1.00  0.00     0.034 A 
ENDROOT
BRANCH   3  14
HETATM   14  N   UNL     1      25.429  46.459  51.420  1.00  0.00    -0.176 NA
HETATM   15  C   UNL     1      26.198  46.944  50.490  1.00  0.00     0.153 C 
BRANCH  15  16
HETATM   16  C   UNL     1      25.792  48.046  49.606  1.00  0.00     0.017 A 
HETATM   17  C   UNL     1      26.714  48.813  48.892  1.00  0.00     0.077 A 
HETATM   18  C   UNL     1      26.274  49.888  48.124  1.00  0.00     0.039 A 
HETATM   19  C   UNL     1      24.911  50.192  48.060  1.00  0.00     0.022 A 
HETATM   20  C   UNL     1      23.993  49.413  48.765  1.00  0.00     0.012 A 
HETATM   21 BR   UNL     1      22.148  49.816  48.675  1.00  0.00    -0.051 Br
HETATM   22  C   UNL     1      24.424  48.342  49.542  1.00  0.00     0.034 A 
BRANCH  17  23
HETATM   23  O   UNL     1      28.059  48.576  48.922  1.00  0.00    -0.360 OA
HETATM   24  H   UNL     1      28.198  47.613  49.069  1.00  0.00     0.217 HD
ENDBRANCH  17  23
ENDBRANCH  15  16
ENDBRANCH   3  14
BRANCH   2  25
HETATM   25  N   UNL     1      26.462  46.468  54.220  1.00  0.00    -0.286 NA
HETATM   26  H   UNL     1      25.500  46.564  54.560  1.00  0.00     0.125 HD
HETATM   27  H   UNL     1      27.103  46.515  55.017  1.00  0.00     0.125 HD
ENDBRANCH   2  25
BRANCH   1  28
HETATM   28  C   UNL     1      28.798  44.345  54.167  1.00  0.00     0.257 C 
HETATM   29  N   UNL     1      28.800  45.302  55.167  1.00  0.00    -0.356 N 
HETATM   30  H   UNL     1      28.045  45.977  55.111  1.00  0.00     0.162 HD
HETATM   31  O   UNL     1      29.739  43.589  53.964  1.00  0.00    -0.267 OA
BRANCH  29  32
HETATM   32  C   UNL     1      30.007  45.723  55.841  1.00  0.00     0.126 C 
BRANCH  32  33
HETATM   33  C   UNL     1      30.260  44.945  57.146  1.00  0.00    -0.005 C 
HETATM   34  C   UNL     1      30.572  45.889  58.307  1.00  0.00     0.011 C 
HETATM   35  C   UNL     1      31.367  43.894  57.004  1.00  0.00     0.011 C 
ENDBRANCH  32  33
ENDBRANCH  29  32
ENDBRANCH   1  28
TORSDOF 7
ENDMDL
MODEL 7
REMARK VINA RESULT:      -9.0      3.998      8.196
REMARK  7 active torsions:
REMARK  status: ('A' for Active; 'I' for Inactive)
REMARK    1  A    between atoms: C_2  and  C_3 
REMARK    2  A    between atoms: C_3  and  N_4 
REMARK       I    between atoms: N_4  and  C_5 
REMARK    3  A    between atoms: C_5  and  C_6 
REMARK    4  A    between atoms: C_7  and  N_8 
REMARK    5  A    between atoms: N_9  and  N_10 
REMARK    6  A    between atoms: C_11  and  C_12 
REMARK    7  A    between atoms: C_13  and  O_14 
ROOT
HETATM    1  C   UNL     1      22.759  47.494  49.014  1.00  0.00     0.104 C 
HETATM    2  C   UNL     1      23.883  48.148  49.505  1.00  0.00     0.123 C 
HETATM    3  N   UNL     1      24.674  47.187  50.131  1.00  0.00    -0.202 N 
HETATM    4  C   UNL     1      24.357  45.967  49.574  1.00  0.00     0.183 A 
HETATM    5  C   UNL     1      23.125  46.120  48.939  1.00  0.00     0.124 A 
HETATM    6  N   UNL     1      22.474  45.050  48.418  1.00  0.00    -0.242 NA
HETATM    7  C   UNL     1      23.133  43.883  48.515  1.00  0.00     0.086 A 
HETATM    8  C   UNL     1      24.401  43.762  49.145  1.00  0.00     0.088 A 
HETATM    9  N   UNL     1      25.030  44.802  49.717  1.00  0.00    -0.225 NA
HETATM   10  C   UNL     1      22.547  42.748  47.969  1.00  0.00     0.034 A 
HETATM   11  C   UNL     1      23.178  41.504  48.010  1.00  0.00     0.002 A 
HETATM   12  C   UNL     1      24.423  41.391  48.613  1.00  0.00     0.002 A 
HETATM   13  C   UNL     1      25.019  42.520  49.176  1.00  0.00     0.034 A 
ENDROOT
BRANCH   3  14
HETATM   14  N   UNL     1      25.564  47.385  51.172  1.00  0.00    -0.176 NA
HETATM   15  C   UNL     1      25.396  46.530  52.137  1.00  0.00     0.153 C 
BRANCH  15  16
HETATM   16  C   UNL     1      26.237  46.506  53.343  1.00  0.00     0.017 A 
HETATM   17  C   UNL     1      26.170  47.497  54.323  1.00  0.00     0.077 A 
HETATM   18  C   UNL     1      27.040  47.458  55.410  1.00  0.00     0.039 A 
HETATM   19  C   UNL     1      27.971  46.421  55.524  1.00  0.00     0.022 A 
HETATM   20  C   UNL     1      28.024  45.426  54.548  1.00  0.00     0.012 A 
HETATM   21 BR   UNL     1      29.277  44.018  54.703  1.00  0.00    -0.051 Br
HETATM   22  C   UNL     1      27.164  45.462  53.454  1.00  0.00     0.034 A 
BRANCH  17  23
HETATM   23  O   UNL     1      25.292  48.542  54.264  1.00  0.00    -0.360 OA
HETATM   24  H   UNL     1      25.698  49.254  53.718  1.00  0.00     0.217 HD
ENDBRANCH  17  23
ENDBRANCH  15  16
ENDBRANCH   3  14
BRANCH   2  25
HETATM   25  N   UNL     1      24.201  49.481  49.541  1.00  0.00    -0.286 NA
HETATM   26  H   UNL     1      24.117  49.987  48.655  1.00  0.00     0.125 HD
HETATM   27  H   UNL     1      23.760  50.034  50.283  1.00  0.00     0.125 HD
ENDBRANCH   2  25
BRANCH   1  28
HETATM   28  C   UNL     1      21.483  48.121  48.688  1.00  0.00     0.257 C 
HETATM   29  N   UNL     1      20.403  47.419  49.193  1.00  0.00    -0.356 N 
HETATM   30  H   UNL     1      20.637  46.528  49.618  1.00  0.00     0.162 HD
HETATM   31  O   UNL     1      21.363  49.105  47.968  1.00  0.00    -0.267 OA
BRANCH  29  32
HETATM   32  C   UNL     1      19.064  47.564  48.669  1.00  0.00     0.126 C 
BRANCH  32  33
HETATM   33  C   UNL     1      18.174  48.457  49.552  1.00  0.00    -0.005 C 
HETATM   34  C   UNL     1      18.052  49.867  48.977  1.00  0.00     0.011 C 
HETATM   35  C   UNL     1      18.652  48.517  51.007  1.00  0.00     0.011 C 
ENDBRANCH  32  33
ENDBRANCH  29  32
ENDBRANCH   1  28
TORSDOF 7
ENDMDL
MODEL 8
REMARK VINA RESULT:      -8.8      2.292      3.247
REMARK  7 active torsions:
REMARK  status: ('A' for Active; 'I' for Inactive)
REMARK    1  A    between atoms: C_2  and  C_3 
REMARK    2  A    between atoms: C_3  and  N_4 
REMARK       I    between atoms: N_4  and  C_5 
REMARK    3  A    between atoms: C_5  and  C_6 
REMARK    4  A    between atoms: C_7  and  N_8 
REMARK    5  A    between atoms: N_9  and  N_10 
REMARK    6  A    between atoms: C_11  and  C_12 
REMARK    7  A    between atoms: C_13  and  O_14 
ROOT
HETATM    1  C   UNL     1      28.413  43.100  53.435  1.00  0.00     0.104 C 
HETATM    2  C   UNL     1      27.289  43.903  53.591  1.00  0.00     0.123 C 
HETATM    3  N   UNL     1      26.538  43.788  52.423  1.00  0.00    -0.202 N 
HETATM    4  C   UNL     1      26.866  42.583  51.841  1.00  0.00     0.183 A 
HETATM    5  C   UNL     1      28.075  42.177  52.404  1.00  0.00     0.124 A 
HETATM    6  N   UNL     1      28.735  41.091  51.927  1.00  0.00    -0.242 NA
HETATM    7  C   UNL     1      28.104  40.435  50.938  1.00  0.00     0.086 A 
HETATM    8  C   UNL     1      26.859  40.858  50.402  1.00  0.00     0.088 A 
HETATM    9  N   UNL     1      26.223  41.964  50.823  1.00  0.00    -0.225 NA
HETATM   10  C   UNL     1      28.700  39.290  50.424  1.00  0.00     0.034 A 
HETATM   11  C   UNL     1      28.098  38.541  49.412  1.00  0.00     0.002 A 
HETATM   12  C   UNL     1      26.874  38.948  48.899  1.00  0.00     0.002 A 
HETATM   13  C   UNL     1      26.270  40.102  49.397  1.00  0.00     0.034 A 
ENDROOT
BRANCH   3  14
HETATM   14  N   UNL     1      25.675  44.727  51.888  1.00  0.00    -0.176 NA
HETATM   15  C   UNL     1      26.266  45.520  51.044  1.00  0.00     0.153 C 
BRANCH  15  16
HETATM   16  C   UNL     1      25.561  46.583  50.312  1.00  0.00     0.017 A 
HETATM   17  C   UNL     1      24.199  46.511  50.016  1.00  0.00     0.077 A 
HETATM   18  C   UNL     1      23.601  47.517  49.260  1.00  0.00     0.039 A 
HETATM   19  C   UNL     1      24.361  48.600  48.808  1.00  0.00     0.022 A 
HETATM   20  C   UNL     1      25.719  48.672  49.120  1.00  0.00     0.012 A 
HETATM   21 BR   UNL     1      26.749  50.139  48.517  1.00  0.00    -0.051 Br
HETATM   22  C   UNL     1      26.327  47.668  49.867  1.00  0.00     0.034 A 
BRANCH  17  23
HETATM   23  O   UNL     1      23.404  45.476  50.416  1.00  0.00    -0.360 OA
HETATM   24  H   UNL     1      22.656  45.399  49.781  1.00  0.00     0.217 HD
ENDBRANCH  17  23
ENDBRANCH  15  16
ENDBRANCH   3  14
BRANCH   2  25
HETATM   25  N   UNL     1      26.942  44.776  54.590  1.00  0.00    -0.286 NA
HETATM   26  H   UNL     1      26.460  44.368  55.396  1.00  0.00     0.125 HD
HETATM   27  H   UNL     1      27.682  45.400  54.926  1.00  0.00     0.125 HD
ENDBRANCH   2  25
BRANCH   1  28
HETATM   28  C   UNL     1      29.664  43.232  54.172  1.00  0.00     0.257 C 
HETATM   29  N   UNL     1      29.538  44.045  55.286  1.00  0.00    -0.356 N 
HETATM   30  H   UNL     1      28.642  44.511  55.372  1.00  0.00     0.162 HD
HETATM   31  O   UNL     1      30.733  42.762  53.805  1.00  0.00    -0.267 OA
BRANCH  29  32
HETATM   32  C   UNL     1      30.671  44.678  55.921  1.00  0.00     0.126 C 
BRANCH  32  33
HETATM   33  C   UNL     1      30.255  45.723  56.973  1.00  0.00    -0.005 C 
HETATM   34  C   UNL     1      30.589  45.253  58.389  1.00  0.00     0.011 C 
HETATM   35  C   UNL     1      28.774  46.105  56.876  1.00  0.00     0.011 C 
ENDBRANCH  32  33
ENDBRANCH  29  32
ENDBRANCH   1  28
TORSDOF 7
ENDMDL
MODEL 9
REMARK VINA RESULT:      -8.7      3.724      7.970
REMARK  7 active torsions:
REMARK  status: ('A' for Active; 'I' for Inactive)
REMARK    1  A    between atoms: C_2  and  C_3 
REMARK    2  A    between atoms: C_3  and  N_4 
REMARK       I    between atoms: N_4  and  C_5 
REMARK    3  A    between atoms: C_5  and  C_6 
REMARK    4  A    between atoms: C_7  and  N_8 
REMARK    5  A    between atoms: N_9  and  N_10 
REMARK    6  A    between atoms: C_11  and  C_12 
REMARK    7  A    between atoms: C_13  and  O_14 
ROOT
HETATM    1  C   UNL     1      24.658  45.038  50.580  1.00  0.00     0.104 C 
HETATM    2  C   UNL     1      24.471  43.674  50.388  1.00  0.00     0.123 C 
HETATM    3  N   UNL     1      25.528  43.024  51.021  1.00  0.00    -0.202 N 
HETATM    4  C   UNL     1      26.001  43.867  52.002  1.00  0.00     0.183 A 
HETATM    5  C   UNL     1      25.533  45.145  51.699  1.00  0.00     0.124 A 
HETATM    6  N   UNL     1      25.953  46.225  52.404  1.00  0.00    -0.242 NA
HETATM    7  C   UNL     1      26.784  45.948  53.423  1.00  0.00     0.086 A 
HETATM    8  C   UNL     1      27.224  44.631  53.725  1.00  0.00     0.088 A 
HETATM    9  N   UNL     1      26.864  43.560  52.999  1.00  0.00    -0.225 NA
HETATM   10  C   UNL     1      27.226  47.000  54.216  1.00  0.00     0.034 A 
HETATM   11  C   UNL     1      28.073  46.791  55.306  1.00  0.00     0.002 A 
HETATM   12  C   UNL     1      28.491  45.502  55.608  1.00  0.00     0.002 A 
HETATM   13  C   UNL     1      28.064  44.438  54.813  1.00  0.00     0.034 A 
ENDROOT
BRANCH   3  14
HETATM   14  N   UNL     1      26.068  41.793  50.694  1.00  0.00    -0.176 NA
HETATM   15  C   UNL     1      26.992  41.883  49.783  1.00  0.00     0.153 C 
BRANCH  15  16
HETATM   16  C   UNL     1      27.745  40.722  49.285  1.00  0.00     0.017 A 
HETATM   17  C   UNL     1      27.803  40.392  47.930  1.00  0.00     0.077 A 
HETATM   18  C   UNL     1      28.475  39.241  47.526  1.00  0.00     0.039 A 
HETATM   19  C   UNL     1      29.098  38.424  48.474  1.00  0.00     0.022 A 
HETATM   20  C   UNL     1      29.047  38.767  49.825  1.00  0.00     0.012 A 
HETATM   21 BR   UNL     1      29.895  37.668  51.110  1.00  0.00    -0.051 Br
HETATM   22  C   UNL     1      28.371  39.910  50.240  1.00  0.00     0.034 A 
BRANCH  17  23
HETATM   23  O   UNL     1      27.206  41.140  46.957  1.00  0.00    -0.360 OA
HETATM   24  H   UNL     1      27.666  42.009  46.911  1.00  0.00     0.217 HD
ENDBRANCH  17  23
ENDBRANCH  15  16
ENDBRANCH   3  14
BRANCH   2  25
HETATM   25  N   UNL     1      23.547  42.992  49.640  1.00  0.00    -0.286 NA
HETATM   26  H   UNL     1      22.570  43.271  49.769  1.00  0.00     0.125 HD
HETATM   27  H   UNL     1      23.741  42.915  48.637  1.00  0.00     0.125 HD
ENDBRANCH   2  25
BRANCH   1  28
HETATM   28  C   UNL     1      24.083  46.100  49.762  1.00  0.00     0.257 C 
HETATM   29  N   UNL     1      24.931  47.187  49.633  1.00  0.00    -0.356 N 
HETATM   30  H   UNL     1      25.771  47.140  50.200  1.00  0.00     0.162 HD
HETATM   31  O   UNL     1      22.943  46.085  49.315  1.00  0.00    -0.267 OA
BRANCH  29  32
HETATM   32  C   UNL     1      24.462  48.503  49.263  1.00  0.00     0.126 C 
BRANCH  32  33
HETATM   33  C   UNL     1      25.612  49.479  48.957  1.00  0.00    -0.005 C 
HETATM   34  C   UNL     1      25.393  50.200  47.627  1.00  0.00     0.011 C 
HETATM   35  C   UNL     1      26.987  48.800  48.973  1.00  0.00     0.011 C 
ENDBRANCH  32  33
ENDBRANCH  29  32
ENDBRANCH   1  28
TORSDOF 7
ENDMDL
MODEL 10
REMARK VINA RESULT:      -8.6      3.643      7.693
REMARK  7 active torsions:
REMARK  status: ('A' for Active; 'I' for Inactive)
REMARK    1  A    between atoms: C_2  and  C_3 
REMARK    2  A    between atoms: C_3  and  N_4 
REMARK       I    between atoms: N_4  and  C_5 
REMARK    3  A    between atoms: C_5  and  C_6 
REMARK    4  A    between atoms: C_7  and  N_8 
REMARK    5  A    between atoms: N_9  and  N_10 
REMARK    6  A    between atoms: C_11  and  C_12 
REMARK    7  A    between atoms: C_13  and  O_14 
ROOT
HETATM    1  C   UNL     1      25.171  45.442  50.696  1.00  0.00     0.104 C 
HETATM    2  C   UNL     1      25.887  46.055  51.718  1.00  0.00     0.123 C 
HETATM    3  N   UNL     1      26.524  45.044  52.434  1.00  0.00    -0.202 N 
HETATM    4  C   UNL     1      26.662  43.965  51.587  1.00  0.00     0.183 A 
HETATM    5  C   UNL     1      25.766  44.159  50.536  1.00  0.00     0.124 A 
HETATM    6  N   UNL     1      25.562  43.189  49.610  1.00  0.00    -0.242 NA
HETATM    7  C   UNL     1      26.321  42.091  49.763  1.00  0.00     0.086 A 
HETATM    8  C   UNL     1      27.246  41.933  50.830  1.00  0.00     0.088 A 
HETATM    9  N   UNL     1      27.416  42.859  51.787  1.00  0.00    -0.225 NA
HETATM   10  C   UNL     1      26.197  41.069  48.829  1.00  0.00     0.034 A 
HETATM   11  C   UNL     1      26.965  39.907  48.906  1.00  0.00     0.002 A 
HETATM   12  C   UNL     1      27.878  39.760  49.941  1.00  0.00     0.002 A 
HETATM   13  C   UNL     1      28.006  40.773  50.893  1.00  0.00     0.034 A 
ENDROOT
BRANCH   3  14
HETATM   14  N   UNL     1      26.893  45.068  53.767  1.00  0.00    -0.176 NA
HETATM   15  C   UNL     1      28.176  45.207  53.924  1.00  0.00     0.153 C 
BRANCH  15  16
HETATM   16  C   UNL     1      28.819  45.295  55.243  1.00  0.00     0.017 A 
HETATM   17  C   UNL     1      28.457  46.256  56.189  1.00  0.00     0.077 A 
HETATM   18  C   UNL     1      29.149  46.334  57.396  1.00  0.00     0.039 A 
HETATM   19  C   UNL     1      30.195  45.447  57.663  1.00  0.00     0.022 A 
HETATM   20  C   UNL     1      30.542  44.480  56.719  1.00  0.00     0.012 A 
HETATM   21 BR   UNL     1      31.952  43.273  57.079  1.00  0.00    -0.051 Br
HETATM   22  C   UNL     1      29.863  44.400  55.506  1.00  0.00     0.034 A 
BRANCH  17  23
HETATM   23  O   UNL     1      27.454  47.159  55.986  1.00  0.00    -0.360 OA
HETATM   24  H   UNL     1      26.866  46.811  55.276  1.00  0.00     0.217 HD
ENDBRANCH  17  23
ENDBRANCH  15  16
ENDBRANCH   3  14
BRANCH   2  25
HETATM   25  N   UNL     1      25.933  47.364  52.121  1.00  0.00    -0.286 NA
HETATM   26  H   UNL     1      26.868  47.766  52.239  1.00  0.00     0.125 HD
HETATM   27  H   UNL     1      25.352  48.024  51.593  1.00  0.00     0.125 HD
ENDBRANCH   2  25
BRANCH   1  28
HETATM   28  C   UNL     1      24.035  46.020  49.986  1.00  0.00     0.257 C 
HETATM   29  N   UNL     1      23.053  45.085  49.710  1.00  0.00    -0.356 N 
HETATM   30  H   UNL     1      23.300  44.129  49.939  1.00  0.00     0.162 HD
HETATM   31  O   UNL     1      23.987  47.177  49.590  1.00  0.00    -0.267 OA
BRANCH  29  32
HETATM   32  C   UNL     1      22.062  45.277  48.675  1.00  0.00     0.126 C 
BRANCH  32  33
HETATM   33  C   UNL     1      21.949  44.067  47.730  1.00  0.00    -0.005 C 
HETATM   34  C   UNL     1      23.251  43.835  46.962  1.00  0.00     0.011 C 
HETATM   35  C   UNL     1      20.772  44.184  46.755  1.00  0.00     0.011 C 
ENDBRANCH  32  33
ENDBRANCH  29  32
ENDBRANCH   1  28
TORSDOF 7
ENDMDL
