MODEL 1
REMARK VINA RESULT:     -10.4      0.000      0.000
REMARK  2 active torsions:
REMARK  status: ('A' for Active; 'I' for Inactive)
REMARK    1  A    between atoms: C_3  and  C_4 
REMARK    2  A    between atoms: N_10  and  C_11 
ROOT
HETATM    1  C   UNL     1      22.329  49.892  48.440  1.00  0.00     0.049 A 
HETATM    2  N   UNL     1      22.503  48.919  49.404  1.00  0.00    -0.344 N 
HETATM    3  C   UNL     1      23.735  48.415  49.713  1.00  0.00     0.119 A 
HETATM    4  C   UNL     1      24.835  48.837  49.066  1.00  0.00     0.123 A 
HETATM    5  C   UNL     1      25.986  48.173  49.697  1.00  0.00     0.280 A 
HETATM    6  O   UNL     1      27.149  48.333  49.376  1.00  0.00    -0.265 OA
HETATM    7  N   UNL     1      25.439  47.373  50.714  1.00  0.00    -0.236 N 
HETATM    8  N   UNL     1      24.032  47.497  50.703  1.00  0.00    -0.179 NA
HETATM    9  C   UNL     1      24.737  49.848  48.012  1.00  0.00     0.193 A 
HETATM   10  O   UNL     1      25.695  50.268  47.375  1.00  0.00    -0.287 OA
HETATM   11  C   UNL     1      23.368  50.380  47.736  1.00  0.00     0.086 A 
HETATM   12  H   UNL     1      21.692  48.567  49.901  1.00  0.00     0.167 HD
HETATM   13  H   UNL     1      23.665  47.815  51.601  1.00  0.00     0.155 HD
ENDROOT
BRANCH   1  14
HETATM   14  C   UNL     1      20.959  50.395  48.194  1.00  0.00     0.012 A 
HETATM   15  C   UNL     1      20.624  51.683  48.650  1.00  0.00     0.015 A 
HETATM   16  C   UNL     1      19.345  52.208  48.445  1.00  0.00     0.001 A 
HETATM   17  C   UNL     1      18.382  51.459  47.777  1.00  0.00     0.002 A 
HETATM   18  C   UNL     1      18.695  50.182  47.312  1.00  0.00     0.025 A 
HETATM   19  C   UNL     1      19.974  49.650  47.518  1.00  0.00     0.046 A 
HETATM   20 CL   UNL     1      20.270  48.052  46.922  1.00  0.00    -0.083 Cl
ENDBRANCH   1  14
BRANCH   7  21
HETATM   21  C   UNL     1      26.080  46.511  51.630  1.00  0.00     0.055 A 
HETATM   22  C   UNL     1      26.256  46.879  52.973  1.00  0.00     0.034 A 
HETATM   23  C   UNL     1      26.878  46.014  53.880  1.00  0.00     0.044 A 
HETATM   24  C   UNL     1      27.331  44.776  53.449  1.00  0.00     0.116 A 
HETATM   25  F   UNL     1      27.923  43.947  54.317  1.00  0.00    -0.206 F 
HETATM   26  C   UNL     1      27.177  44.388  52.125  1.00  0.00     0.044 A 
HETATM   27  C   UNL     1      26.555  45.254  51.219  1.00  0.00     0.034 A 
ENDBRANCH   7  21
TORSDOF 2
ENDMDL
MODEL 2
REMARK VINA RESULT:      -9.6      3.626      5.623
REMARK  2 active torsions:
REMARK  status: ('A' for Active; 'I' for Inactive)
REMARK    1  A    between atoms: C_3  and  C_4 
REMARK    2  A    between atoms: N_10  and  C_11 
ROOT
HETATM    1  C   UNL     1      25.173  47.045  50.873  1.00  0.00     0.049 A 
HETATM    2  N   UNL     1      26.101  47.402  51.831  1.00  0.00    -0.344 N 
HETATM    3  C   UNL     1      26.529  46.526  52.789  1.00  0.00     0.119 A 
HETATM    4  C   UNL     1      26.039  45.276  52.849  1.00  0.00     0.123 A 
HETATM    5  C   UNL     1      26.768  44.579  53.920  1.00  0.00     0.280 A 
HETATM    6  O   UNL     1      26.596  43.418  54.245  1.00  0.00    -0.265 OA
HETATM    7  N   UNL     1      27.671  45.527  54.429  1.00  0.00    -0.236 N 
HETATM    8  N   UNL     1      27.499  46.752  53.747  1.00  0.00    -0.179 NA
HETATM    9  C   UNL     1      25.033  44.823  51.886  1.00  0.00     0.193 A 
HETATM   10  O   UNL     1      24.536  43.704  51.891  1.00  0.00    -0.287 OA
HETATM   11  C   UNL     1      24.623  45.816  50.848  1.00  0.00     0.086 A 
HETATM   12  H   UNL     1      26.479  48.342  51.825  1.00  0.00     0.167 HD
HETATM   13  H   UNL     1      28.362  47.074  53.306  1.00  0.00     0.155 HD
ENDROOT
BRANCH   1  14
HETATM   14  C   UNL     1      24.792  48.054  49.860  1.00  0.00     0.012 A 
HETATM   15  C   UNL     1      23.424  48.281  49.618  1.00  0.00     0.015 A 
HETATM   16  C   UNL     1      23.007  49.221  48.672  1.00  0.00     0.001 A 
HETATM   17  C   UNL     1      23.948  49.955  47.956  1.00  0.00     0.002 A 
HETATM   18  C   UNL     1      25.308  49.749  48.184  1.00  0.00     0.025 A 
HETATM   19  C   UNL     1      25.731  48.805  49.128  1.00  0.00     0.046 A 
HETATM   20 CL   UNL     1      27.438  48.605  49.335  1.00  0.00    -0.083 Cl
ENDBRANCH   1  14
BRANCH   7  21
HETATM   21  C   UNL     1      28.612  45.409  55.474  1.00  0.00     0.055 A 
HETATM   22  C   UNL     1      29.727  44.566  55.357  1.00  0.00     0.034 A 
HETATM   23  C   UNL     1      30.666  44.465  56.390  1.00  0.00     0.044 A 
HETATM   24  C   UNL     1      30.492  45.206  57.550  1.00  0.00     0.116 A 
HETATM   25  F   UNL     1      31.391  45.112  58.537  1.00  0.00    -0.206 F 
HETATM   26  C   UNL     1      29.395  46.043  57.698  1.00  0.00     0.044 A 
HETATM   27  C   UNL     1      28.458  46.143  56.664  1.00  0.00     0.034 A 
ENDBRANCH   7  21
TORSDOF 2
ENDMDL
MODEL 3
REMARK VINA RESULT:      -9.6      3.551      8.198
REMARK  2 active torsions:
REMARK  status: ('A' for Active; 'I' for Inactive)
REMARK    1  A    between atoms: C_3  and  C_4 
REMARK    2  A    between atoms: N_10  and  C_11 
ROOT
HETATM    1  C   UNL     1      25.600  47.093  50.505  1.00  0.00     0.049 A 
HETATM    2  N   UNL     1      24.246  47.366  50.504  1.00  0.00    -0.344 N 
HETATM    3  C   UNL     1      23.706  48.359  49.736  1.00  0.00     0.119 A 
HETATM    4  C   UNL     1      24.485  49.132  48.960  1.00  0.00     0.123 A 
HETATM    5  C   UNL     1      23.591  50.025  48.207  1.00  0.00     0.280 A 
HETATM    6  O   UNL     1      23.953  50.854  47.392  1.00  0.00    -0.265 OA
HETATM    7  N   UNL     1      22.294  49.687  48.625  1.00  0.00    -0.236 N 
HETATM    8  N   UNL     1      22.366  48.671  49.604  1.00  0.00    -0.179 NA
HETATM    9  C   UNL     1      25.935  48.927  48.921  1.00  0.00     0.193 A 
HETATM   10  O   UNL     1      26.703  49.601  48.248  1.00  0.00    -0.287 OA
HETATM   11  C   UNL     1      26.463  47.810  49.761  1.00  0.00     0.086 A 
HETATM   12  H   UNL     1      23.631  46.812  51.089  1.00  0.00     0.167 HD
HETATM   13  H   UNL     1      21.835  47.841  49.340  1.00  0.00     0.155 HD
ENDROOT
BRANCH   1  14
HETATM   14  C   UNL     1      26.087  45.980  51.348  1.00  0.00     0.012 A 
HETATM   15  C   UNL     1      26.484  44.784  50.722  1.00  0.00     0.015 A 
HETATM   16  C   UNL     1      26.952  43.700  51.470  1.00  0.00     0.001 A 
HETATM   17  C   UNL     1      27.037  43.795  52.856  1.00  0.00     0.002 A 
HETATM   18  C   UNL     1      26.655  44.973  53.496  1.00  0.00     0.025 A 
HETATM   19  C   UNL     1      26.182  46.059  52.751  1.00  0.00     0.046 A 
HETATM   20 CL   UNL     1      25.714  47.476  53.630  1.00  0.00    -0.083 Cl
ENDBRANCH   1  14
BRANCH   7  21
HETATM   21  C   UNL     1      21.049  50.229  48.239  1.00  0.00     0.055 A 
HETATM   22  C   UNL     1      20.186  49.529  47.383  1.00  0.00     0.034 A 
HETATM   23  C   UNL     1      18.946  50.065  47.015  1.00  0.00     0.044 A 
HETATM   24  C   UNL     1      18.563  51.306  47.502  1.00  0.00     0.116 A 
HETATM   25  F   UNL     1      17.376  51.818  47.153  1.00  0.00    -0.206 F 
HETATM   26  C   UNL     1      19.399  52.025  48.345  1.00  0.00     0.044 A 
HETATM   27  C   UNL     1      20.638  51.489  48.710  1.00  0.00     0.034 A 
ENDBRANCH   7  21
TORSDOF 2
ENDMDL
MODEL 4
REMARK VINA RESULT:      -9.2      6.497      9.649
REMARK  2 active torsions:
REMARK  status: ('A' for Active; 'I' for Inactive)
REMARK    1  A    between atoms: C_3  and  C_4 
REMARK    2  A    between atoms: N_10  and  C_11 
ROOT
HETATM    1  C   UNL     1      28.166  45.295  55.028  1.00  0.00     0.049 A 
HETATM    2  N   UNL     1      27.749  44.173  54.338  1.00  0.00    -0.344 N 
HETATM    3  C   UNL     1      26.801  44.236  53.355  1.00  0.00     0.119 A 
HETATM    4  C   UNL     1      26.215  45.402  53.035  1.00  0.00     0.123 A 
HETATM    5  C   UNL     1      25.326  45.138  51.893  1.00  0.00     0.280 A 
HETATM    6  O   UNL     1      24.645  45.974  51.328  1.00  0.00    -0.265 OA
HETATM    7  N   UNL     1      25.469  43.767  51.624  1.00  0.00    -0.236 N 
HETATM    8  N   UNL     1      26.363  43.196  52.557  1.00  0.00    -0.179 NA
HETATM    9  C   UNL     1      26.580  46.636  53.735  1.00  0.00     0.193 A 
HETATM   10  O   UNL     1      26.079  47.729  53.503  1.00  0.00    -0.287 OA
HETATM   11  C   UNL     1      27.640  46.510  54.780  1.00  0.00     0.086 A 
HETATM   12  H   UNL     1      28.159  43.275  54.565  1.00  0.00     0.167 HD
HETATM   13  H   UNL     1      27.156  42.741  52.104  1.00  0.00     0.155 HD
ENDROOT
BRANCH   1  14
HETATM   14  C   UNL     1      29.217  45.132  56.056  1.00  0.00     0.012 A 
HETATM   15  C   UNL     1      29.133  45.901  57.232  1.00  0.00     0.015 A 
HETATM   16  C   UNL     1      30.099  45.788  58.236  1.00  0.00     0.001 A 
HETATM   17  C   UNL     1      31.160  44.902  58.085  1.00  0.00     0.002 A 
HETATM   18  C   UNL     1      31.259  44.126  56.931  1.00  0.00     0.025 A 
HETATM   19  C   UNL     1      30.296  44.239  55.921  1.00  0.00     0.046 A 
HETATM   20 CL   UNL     1      30.507  43.249  54.515  1.00  0.00    -0.083 Cl
ENDBRANCH   1  14
BRANCH   7  21
HETATM   21  C   UNL     1      24.845  42.969  50.642  1.00  0.00     0.055 A 
HETATM   22  C   UNL     1      23.505  43.178  50.279  1.00  0.00     0.034 A 
HETATM   23  C   UNL     1      22.896  42.393  49.294  1.00  0.00     0.044 A 
HETATM   24  C   UNL     1      23.622  41.391  48.667  1.00  0.00     0.116 A 
HETATM   25  F   UNL     1      23.040  40.642  47.722  1.00  0.00    -0.206 F 
HETATM   26  C   UNL     1      24.946  41.156  49.010  1.00  0.00     0.044 A 
HETATM   27  C   UNL     1      25.554  41.941  49.996  1.00  0.00     0.034 A 
ENDBRANCH   7  21
TORSDOF 2
ENDMDL
MODEL 5
REMARK VINA RESULT:      -9.2      2.863      4.134
REMARK  2 active torsions:
REMARK  status: ('A' for Active; 'I' for Inactive)
REMARK    1  A    between atoms: C_3  and  C_4 
REMARK    2  A    between atoms: N_10  and  C_11 
ROOT
HETATM    1  C   UNL     1      23.908  47.213  49.647  1.00  0.00     0.049 A 
HETATM    2  N   UNL     1      24.911  47.251  50.595  1.00  0.00    -0.344 N 
HETATM    3  C   UNL     1      25.500  46.116  51.075  1.00  0.00     0.119 A 
HETATM    4  C   UNL     1      25.104  44.902  50.654  1.00  0.00     0.123 A 
HETATM    5  C   UNL     1      25.993  43.916  51.288  1.00  0.00     0.280 A 
HETATM    6  O   UNL     1      25.935  42.712  51.120  1.00  0.00    -0.265 OA
HETATM    7  N   UNL     1      26.881  44.670  52.072  1.00  0.00    -0.236 N 
HETATM    8  N   UNL     1      26.553  46.040  51.967  1.00  0.00    -0.179 NA
HETATM    9  C   UNL     1      24.030  44.770  49.668  1.00  0.00     0.193 A 
HETATM   10  O   UNL     1      23.612  43.697  49.250  1.00  0.00    -0.287 OA
HETATM   11  C   UNL     1      23.442  46.046  49.161  1.00  0.00     0.086 A 
HETATM   12  H   UNL     1      25.222  48.150  50.947  1.00  0.00     0.167 HD
HETATM   13  H   UNL     1      27.338  46.601  51.634  1.00  0.00     0.155 HD
ENDROOT
BRANCH   1  14
HETATM   14  C   UNL     1      23.350  48.497  49.168  1.00  0.00     0.012 A 
HETATM   15  C   UNL     1      21.955  48.681  49.210  1.00  0.00     0.015 A 
HETATM   16  C   UNL     1      21.374  49.874  48.769  1.00  0.00     0.001 A 
HETATM   17  C   UNL     1      22.175  50.903  48.285  1.00  0.00     0.002 A 
HETATM   18  C   UNL     1      23.560  50.743  48.240  1.00  0.00     0.025 A 
HETATM   19  C   UNL     1      24.146  49.549  48.677  1.00  0.00     0.046 A 
HETATM   20 CL   UNL     1      25.870  49.431  48.570  1.00  0.00    -0.083 Cl
ENDBRANCH   1  14
BRANCH   7  21
HETATM   21  C   UNL     1      27.938  44.244  52.904  1.00  0.00     0.055 A 
HETATM   22  C   UNL     1      28.039  44.682  54.233  1.00  0.00     0.034 A 
HETATM   23  C   UNL     1      29.081  44.244  55.059  1.00  0.00     0.044 A 
HETATM   24  C   UNL     1      30.031  43.365  54.558  1.00  0.00     0.116 A 
HETATM   25  F   UNL     1      31.026  42.944  55.348  1.00  0.00    -0.206 F 
HETATM   26  C   UNL     1      29.961  42.920  53.246  1.00  0.00     0.044 A 
HETATM   27  C   UNL     1      28.920  43.360  52.422  1.00  0.00     0.034 A 
ENDBRANCH   7  21
TORSDOF 2
ENDMDL
MODEL 6
REMARK VINA RESULT:      -9.2      3.840      8.644
REMARK  2 active torsions:
REMARK  status: ('A' for Active; 'I' for Inactive)
REMARK    1  A    between atoms: C_3  and  C_4 
REMARK    2  A    between atoms: N_10  and  C_11 
ROOT
HETATM    1  C   UNL     1      26.431  44.838  51.568  1.00  0.00     0.049 A 
HETATM    2  N   UNL     1      25.993  46.147  51.523  1.00  0.00    -0.344 N 
HETATM    3  C   UNL     1      25.042  46.564  50.635  1.00  0.00     0.119 A 
HETATM    4  C   UNL     1      24.505  45.710  49.747  1.00  0.00     0.123 A 
HETATM    5  C   UNL     1      23.463  46.448  49.016  1.00  0.00     0.280 A 
HETATM    6  O   UNL     1      22.756  45.981  48.142  1.00  0.00    -0.265 OA
HETATM    7  N   UNL     1      23.475  47.741  49.563  1.00  0.00    -0.236 N 
HETATM    8  N   UNL     1      24.482  47.825  50.549  1.00  0.00    -0.179 NA
HETATM    9  C   UNL     1      24.931  44.309  49.709  1.00  0.00     0.193 A 
HETATM   10  O   UNL     1      24.494  43.482  48.919  1.00  0.00    -0.287 OA
HETATM   11  C   UNL     1      25.954  43.906  50.720  1.00  0.00     0.086 A 
HETATM   12  H   UNL     1      26.388  46.821  52.168  1.00  0.00     0.167 HD
HETATM   13  H   UNL     1      24.113  48.109  51.457  1.00  0.00     0.155 HD
ENDROOT
BRANCH   1  14
HETATM   14  C   UNL     1      27.445  44.475  52.582  1.00  0.00     0.012 A 
HETATM   15  C   UNL     1      28.509  43.637  52.199  1.00  0.00     0.015 A 
HETATM   16  C   UNL     1      29.495  43.262  53.116  1.00  0.00     0.001 A 
HETATM   17  C   UNL     1      29.438  43.720  54.428  1.00  0.00     0.002 A 
HETATM   18  C   UNL     1      28.395  44.556  54.827  1.00  0.00     0.025 A 
HETATM   19  C   UNL     1      27.403  44.931  53.913  1.00  0.00     0.046 A 
HETATM   20 CL   UNL     1      26.137  45.957  54.499  1.00  0.00    -0.083 Cl
ENDBRANCH   1  14
BRANCH   7  21
HETATM   21  C   UNL     1      22.691  48.869  49.236  1.00  0.00     0.055 A 
HETATM   22  C   UNL     1      21.290  48.795  49.203  1.00  0.00     0.034 A 
HETATM   23  C   UNL     1      20.517  49.921  48.893  1.00  0.00     0.044 A 
HETATM   24  C   UNL     1      21.142  51.126  48.611  1.00  0.00     0.116 A 
HETATM   25  F   UNL     1      20.404  52.203  48.317  1.00  0.00    -0.206 F 
HETATM   26  C   UNL     1      22.526  51.228  48.628  1.00  0.00     0.044 A 
HETATM   27  C   UNL     1      23.297  50.102  48.938  1.00  0.00     0.034 A 
ENDBRANCH   7  21
TORSDOF 2
ENDMDL
MODEL 7
REMARK VINA RESULT:      -9.2      8.202     10.754
REMARK  2 active torsions:
REMARK  status: ('A' for Active; 'I' for Inactive)
REMARK    1  A    between atoms: C_3  and  C_4 
REMARK    2  A    between atoms: N_10  and  C_11 
ROOT
HETATM    1  C   UNL     1      29.265  43.817  54.492  1.00  0.00     0.049 A 
HETATM    2  N   UNL     1      29.564  42.621  53.871  1.00  0.00    -0.344 N 
HETATM    3  C   UNL     1      28.945  42.227  52.718  1.00  0.00     0.119 A 
HETATM    4  C   UNL     1      27.994  42.987  52.151  1.00  0.00     0.123 A 
HETATM    5  C   UNL     1      27.608  42.328  50.894  1.00  0.00     0.280 A 
HETATM    6  O   UNL     1      26.778  42.748  50.109  1.00  0.00    -0.265 OA
HETATM    7  N   UNL     1      28.404  41.173  50.824  1.00  0.00    -0.236 N 
HETATM    8  N   UNL     1      29.214  41.091  51.978  1.00  0.00    -0.179 NA
HETATM    9  C   UNL     1      27.597  44.260  52.758  1.00  0.00     0.193 A 
HETATM   10  O   UNL     1      26.731  44.995  52.302  1.00  0.00    -0.287 OA
HETATM   11  C   UNL     1      28.327  44.650  54.002  1.00  0.00     0.086 A 
HETATM   12  H   UNL     1      30.266  42.015  54.280  1.00  0.00     0.167 HD
HETATM   13  H   UNL     1      30.208  41.046  51.750  1.00  0.00     0.155 HD
ENDROOT
BRANCH   1  14
HETATM   14  C   UNL     1      30.008  44.171  55.722  1.00  0.00     0.012 A 
HETATM   15  C   UNL     1      31.008  43.293  56.180  1.00  0.00     0.015 A 
HETATM   16  C   UNL     1      31.740  43.577  57.336  1.00  0.00     0.001 A 
HETATM   17  C   UNL     1      31.489  44.744  58.051  1.00  0.00     0.002 A 
HETATM   18  C   UNL     1      30.506  45.630  57.611  1.00  0.00     0.025 A 
HETATM   19  C   UNL     1      29.768  45.348  56.455  1.00  0.00     0.046 A 
HETATM   20 CL   UNL     1      28.558  46.496  55.992  1.00  0.00    -0.083 Cl
ENDBRANCH   1  14
BRANCH   7  21
HETATM   21  C   UNL     1      28.448  40.163  49.838  1.00  0.00     0.055 A 
HETATM   22  C   UNL     1      28.145  40.443  48.497  1.00  0.00     0.034 A 
HETATM   23  C   UNL     1      28.205  39.441  47.522  1.00  0.00     0.044 A 
HETATM   24  C   UNL     1      28.566  38.151  47.883  1.00  0.00     0.116 A 
HETATM   25  F   UNL     1      28.626  37.193  46.950  1.00  0.00    -0.206 F 
HETATM   26  C   UNL     1      28.863  37.843  49.203  1.00  0.00     0.044 A 
HETATM   27  C   UNL     1      28.802  38.846  50.177  1.00  0.00     0.034 A 
ENDBRANCH   7  21
TORSDOF 2
ENDMDL
MODEL 8
REMARK VINA RESULT:      -8.8      4.910     10.036
REMARK  2 active torsions:
REMARK  status: ('A' for Active; 'I' for Inactive)
REMARK    1  A    between atoms: C_3  and  C_4 
REMARK    2  A    between atoms: N_10  and  C_11 
ROOT
HETATM    1  C   UNL     1      29.162  43.919  54.294  1.00  0.00     0.049 A 
HETATM    2  N   UNL     1      28.295  44.903  53.860  1.00  0.00    -0.344 N 
HETATM    3  C   UNL     1      27.550  44.764  52.723  1.00  0.00     0.119 A 
HETATM    4  C   UNL     1      27.651  43.661  51.963  1.00  0.00     0.123 A 
HETATM    5  C   UNL     1      26.660  43.791  50.883  1.00  0.00     0.280 A 
HETATM    6  O   UNL     1      26.460  42.964  50.012  1.00  0.00    -0.265 OA
HETATM    7  N   UNL     1      26.027  45.024  51.109  1.00  0.00    -0.236 N 
HETATM    8  N   UNL     1      26.605  45.648  52.237  1.00  0.00    -0.179 NA
HETATM    9  C   UNL     1      28.565  42.580  52.336  1.00  0.00     0.193 A 
HETATM   10  O   UNL     1      28.715  41.555  51.684  1.00  0.00    -0.287 OA
HETATM   11  C   UNL     1      29.334  42.777  53.602  1.00  0.00     0.086 A 
HETATM   12  H   UNL     1      28.207  45.755  54.402  1.00  0.00     0.167 HD
HETATM   13  H   UNL     1      25.915  45.859  52.959  1.00  0.00     0.155 HD
ENDROOT
BRANCH   1  14
HETATM   14  C   UNL     1      29.907  44.149  55.551  1.00  0.00     0.012 A 
HETATM   15  C   UNL     1      30.869  43.201  55.946  1.00  0.00     0.015 A 
HETATM   16  C   UNL     1      31.601  43.368  57.125  1.00  0.00     0.001 A 
HETATM   17  C   UNL     1      31.389  44.485  57.926  1.00  0.00     0.002 A 
HETATM   18  C   UNL     1      30.444  45.439  57.550  1.00  0.00     0.025 A 
HETATM   19  C   UNL     1      29.705  45.275  56.372  1.00  0.00     0.046 A 
HETATM   20 CL   UNL     1      28.542  46.500  55.992  1.00  0.00    -0.083 Cl
ENDBRANCH   1  14
BRANCH   7  21
HETATM   21  C   UNL     1      25.003  45.663  50.377  1.00  0.00     0.055 A 
HETATM   22  C   UNL     1      24.064  44.922  49.644  1.00  0.00     0.034 A 
HETATM   23  C   UNL     1      23.041  45.561  48.932  1.00  0.00     0.044 A 
HETATM   24  C   UNL     1      22.954  46.945  48.949  1.00  0.00     0.116 A 
HETATM   25  F   UNL     1      21.974  47.556  48.271  1.00  0.00    -0.206 F 
HETATM   26  C   UNL     1      23.873  47.704  49.659  1.00  0.00     0.044 A 
HETATM   27  C   UNL     1      24.894  47.065  50.369  1.00  0.00     0.034 A 
ENDBRANCH   7  21
TORSDOF 2
ENDMDL
MODEL 9
REMARK VINA RESULT:      -8.8      7.927      9.807
REMARK  2 active torsions:
REMARK  status: ('A' for Active; 'I' for Inactive)
REMARK    1  A    between atoms: C_3  and  C_4 
REMARK    2  A    between atoms: N_10  and  C_11 
ROOT
HETATM    1  C   UNL     1      27.217  40.386  49.977  1.00  0.00     0.049 A 
HETATM    2  N   UNL     1      28.257  40.760  50.804  1.00  0.00    -0.344 N 
HETATM    3  C   UNL     1      28.132  41.769  51.717  1.00  0.00     0.119 A 
HETATM    4  C   UNL     1      26.985  42.459  51.830  1.00  0.00     0.123 A 
HETATM    5  C   UNL     1      27.154  43.395  52.953  1.00  0.00     0.280 A 
HETATM    6  O   UNL     1      26.305  44.171  53.352  1.00  0.00    -0.265 OA
HETATM    7  N   UNL     1      28.455  43.167  53.430  1.00  0.00    -0.236 N 
HETATM    8  N   UNL     1      29.078  42.177  52.638  1.00  0.00    -0.179 NA
HETATM    9  C   UNL     1      25.839  42.144  50.974  1.00  0.00     0.193 A 
HETATM   10  O   UNL     1      24.770  42.740  51.015  1.00  0.00    -0.287 OA
HETATM   11  C   UNL     1      26.027  41.016  50.014  1.00  0.00     0.086 A 
HETATM   12  H   UNL     1      29.142  40.271  50.734  1.00  0.00     0.167 HD
HETATM   13  H   UNL     1      29.397  41.382  53.193  1.00  0.00     0.155 HD
ENDROOT
BRANCH   1  14
HETATM   14  C   UNL     1      27.439  39.264  49.039  1.00  0.00     0.012 A 
HETATM   15  C   UNL     1      27.108  37.962  49.457  1.00  0.00     0.015 A 
HETATM   16  C   UNL     1      27.298  36.865  48.611  1.00  0.00     0.001 A 
HETATM   17  C   UNL     1      27.815  37.051  47.333  1.00  0.00     0.002 A 
HETATM   18  C   UNL     1      28.144  38.334  46.897  1.00  0.00     0.025 A 
HETATM   19  C   UNL     1      27.959  39.435  47.742  1.00  0.00     0.046 A 
HETATM   20 CL   UNL     1      28.410  40.988  47.123  1.00  0.00    -0.083 Cl
ENDBRANCH   1  14
BRANCH   7  21
HETATM   21  C   UNL     1      29.152  43.790  54.487  1.00  0.00     0.055 A 
HETATM   22  C   UNL     1      28.728  45.020  55.012  1.00  0.00     0.034 A 
HETATM   23  C   UNL     1      29.415  45.626  56.071  1.00  0.00     0.044 A 
HETATM   24  C   UNL     1      30.532  45.005  56.610  1.00  0.00     0.116 A 
HETATM   25  F   UNL     1      31.187  45.582  57.624  1.00  0.00    -0.206 F 
HETATM   26  C   UNL     1      30.979  43.792  56.106  1.00  0.00     0.044 A 
HETATM   27  C   UNL     1      30.293  43.188  55.048  1.00  0.00     0.034 A 
ENDBRANCH   7  21
TORSDOF 2
ENDMDL
MODEL 10
REMARK VINA RESULT:      -8.7      5.729      7.118
REMARK  2 active torsions:
REMARK  status: ('A' for Active; 'I' for Inactive)
REMARK    1  A    between atoms: C_3  and  C_4 
REMARK    2  A    between atoms: N_10  and  C_11 
ROOT
HETATM    1  C   UNL     1      25.332  44.102  51.068  1.00  0.00     0.049 A 
HETATM    2  N   UNL     1      26.334  43.637  51.897  1.00  0.00    -0.344 N 
HETATM    3  C   UNL     1      26.931  44.436  52.831  1.00  0.00     0.119 A 
HETATM    4  C   UNL     1      26.579  45.726  52.964  1.00  0.00     0.123 A 
HETATM    5  C   UNL     1      27.337  46.264  54.104  1.00  0.00     0.280 A 
HETATM    6  O   UNL     1      27.256  47.404  54.523  1.00  0.00    -0.265 OA
HETATM    7  N   UNL     1      28.114  45.192  54.569  1.00  0.00    -0.236 N 
HETATM    8  N   UNL     1      27.888  44.060  53.755  1.00  0.00    -0.179 NA
HETATM    9  C   UNL     1      25.542  46.307  52.107  1.00  0.00     0.193 A 
HETATM   10  O   UNL     1      25.181  47.475  52.166  1.00  0.00    -0.287 OA
HETATM   11  C   UNL     1      24.907  45.379  51.124  1.00  0.00     0.086 A 
HETATM   12  H   UNL     1      26.635  42.674  51.813  1.00  0.00     0.167 HD
HETATM   13  H   UNL     1      27.562  43.255  54.292  1.00  0.00     0.155 HD
ENDROOT
BRANCH   1  14
HETATM   14  C   UNL     1      24.726  43.155  50.106  1.00  0.00     0.012 A 
HETATM   15  C   UNL     1      23.323  43.100  50.010  1.00  0.00     0.015 A 
HETATM   16  C   UNL     1      22.697  42.224  49.118  1.00  0.00     0.001 A 
HETATM   17  C   UNL     1      23.461  41.393  48.305  1.00  0.00     0.002 A 
HETATM   18  C   UNL     1      24.853  41.436  48.381  1.00  0.00     0.025 A 
HETATM   19  C   UNL     1      25.484  42.309  49.275  1.00  0.00     0.046 A 
HETATM   20 CL   UNL     1      27.215  42.284  49.314  1.00  0.00    -0.083 Cl
ENDBRANCH   1  14
BRANCH   7  21
HETATM   21  C   UNL     1      29.038  45.140  55.635  1.00  0.00     0.055 A 
HETATM   22  C   UNL     1      28.879  45.944  56.774  1.00  0.00     0.034 A 
HETATM   23  C   UNL     1      29.790  45.877  57.835  1.00  0.00     0.044 A 
HETATM   24  C   UNL     1      30.868  45.007  57.761  1.00  0.00     0.116 A 
HETATM   25  F   UNL     1      31.738  44.941  58.777  1.00  0.00    -0.206 F 
HETATM   26  C   UNL     1      31.055  44.205  56.644  1.00  0.00     0.044 A 
HETATM   27  C   UNL     1      30.144  44.273  55.585  1.00  0.00     0.034 A 
ENDBRANCH   7  21
TORSDOF 2
ENDMDL
