MODEL 1
REMARK VINA RESULT:      -7.9      0.000      0.000
REMARK  6 active torsions:
REMARK  status: ('A' for Active; 'I' for Inactive)
REMARK    1  A    between atoms: C_8  and  N_9 
REMARK       I    between atoms: N_9  and  C_10 
REMARK    2  A    between atoms: C_10  and  C_11 
REMARK    3  A    between atoms: C_11  and  N_12 
REMARK    4  A    between atoms: N_12  and  C_13 
REMARK    5  A    between atoms: C_13  and  C_14 
REMARK    6  A    between atoms: C_13  and  C_17 
ROOT
HETATM    1  C   UNL     1      27.938  41.183  53.241  1.00  0.00     0.372 C 
ENDROOT
BRANCH   1   2
HETATM    2  C   UNL     1      27.720  40.642  51.827  1.00  0.00     0.250 C 
HETATM    3  N   UNL     1      28.820  39.978  51.330  1.00  0.00    -0.322 N 
HETATM    4  H   UNL     1      29.678  40.120  51.854  1.00  0.00     0.169 HD
HETATM    5  O   UNL     1      26.627  40.769  51.281  1.00  0.00    -0.271 OA
BRANCH   3   6
HETATM    6  C   UNL     1      28.895  39.244  50.158  1.00  0.00     0.085 A 
HETATM    7  C   UNL     1      29.283  37.917  50.142  1.00  0.00     0.052 A 
HETATM    8  C   UNL     1      29.711  36.969  51.195  1.00  0.00     0.072 C 
HETATM    9  N   UNL     1      29.251  37.535  48.831  1.00  0.00    -0.280 N 
HETATM   10  H   UNL     1      29.492  36.632  48.437  1.00  0.00     0.189 HD
HETATM   11  N   UNL     1      28.835  38.489  47.997  1.00  0.00    -0.177 NA
HETATM   12  C   UNL     1      28.604  39.546  48.792  1.00  0.00     0.079 A 
HETATM   13  C   UNL     1      28.069  40.781  48.166  1.00  0.00     0.075 C 
ENDBRANCH   3   6
ENDBRANCH   1   2
BRANCH   1  14
HETATM   14  N   UNL     1      27.274  42.461  53.512  1.00  0.00     0.101 N 
HETATM   15  H   UNL     1      26.300  42.354  53.226  1.00  0.00     0.317 HD
BRANCH  14  16
HETATM   16  C   UNL     1      27.802  43.706  52.906  1.00  0.00     0.259 C 
BRANCH  16  17
HETATM   17  C   UNL     1      26.889  44.541  51.931  1.00  0.00     0.015 C 
HETATM   18  C   UNL     1      27.352  44.412  50.461  1.00  0.00     0.012 C 
HETATM   19  C   UNL     1      25.413  44.107  51.943  1.00  0.00     0.012 C 
ENDBRANCH  16  17
BRANCH  16  20
HETATM   20  C   UNL     1      28.277  44.564  54.095  1.00  0.00    -0.003 A 
HETATM   21  C   UNL     1      29.473  44.321  54.793  1.00  0.00     0.042 A 
HETATM   22 CL   UNL     1      30.563  43.054  54.362  1.00  0.00    -0.084 Cl
HETATM   23  C   UNL     1      29.839  45.122  55.883  1.00  0.00     0.024 A 
HETATM   24  C   UNL     1      29.025  46.176  56.295  1.00  0.00     0.002 A 
HETATM   25  C   UNL     1      27.840  46.436  55.618  1.00  0.00     0.001 A 
HETATM   26  C   UNL     1      27.469  45.639  54.534  1.00  0.00     0.011 A 
ENDBRANCH  16  20
ENDBRANCH  14  16
ENDBRANCH   1  14
TORSDOF 6
ENDMDL
MODEL 2
REMARK VINA RESULT:      -7.8      2.005      3.003
REMARK  6 active torsions:
REMARK  status: ('A' for Active; 'I' for Inactive)
REMARK    1  A    between atoms: C_8  and  N_9 
REMARK       I    between atoms: N_9  and  C_10 
REMARK    2  A    between atoms: C_10  and  C_11 
REMARK    3  A    between atoms: C_11  and  N_12 
REMARK    4  A    between atoms: N_12  and  C_13 
REMARK    5  A    between atoms: C_13  and  C_14 
REMARK    6  A    between atoms: C_13  and  C_17 
ROOT
HETATM    1  C   UNL     1      29.630  42.327  52.610  1.00  0.00     0.372 C 
ENDROOT
BRANCH   1   2
HETATM    2  C   UNL     1      28.620  41.242  52.234  1.00  0.00     0.250 C 
HETATM    3  N   UNL     1      28.713  40.854  50.915  1.00  0.00    -0.322 N 
HETATM    4  H   UNL     1      29.266  41.471  50.327  1.00  0.00     0.169 HD
HETATM    5  O   UNL     1      27.878  40.769  53.090  1.00  0.00    -0.271 OA
BRANCH   3   6
HETATM    6  C   UNL     1      28.059  39.797  50.306  1.00  0.00     0.085 A 
HETATM    7  C   UNL     1      26.733  39.874  49.918  1.00  0.00     0.052 A 
HETATM    8  C   UNL     1      25.703  40.932  50.022  1.00  0.00     0.072 C 
HETATM    9  N   UNL     1      26.432  38.659  49.373  1.00  0.00    -0.280 N 
HETATM   10  H   UNL     1      25.544  38.344  48.998  1.00  0.00     0.189 HD
HETATM   11  N   UNL     1      27.462  37.811  49.335  1.00  0.00    -0.177 NA
HETATM   12  C   UNL     1      28.473  38.492  49.898  1.00  0.00     0.079 A 
HETATM   13  C   UNL     1      29.802  37.834  49.960  1.00  0.00     0.075 C 
ENDBRANCH   3   6
ENDBRANCH   1   2
BRANCH   1  14
HETATM   14  N   UNL     1      29.572  42.753  54.011  1.00  0.00     0.101 N 
HETATM   15  H   UNL     1      28.917  42.128  54.482  1.00  0.00     0.317 HD
BRANCH  14  16
HETATM   16  C   UNL     1      29.200  44.150  54.339  1.00  0.00     0.259 C 
BRANCH  16  17
HETATM   17  C   UNL     1      27.680  44.562  54.363  1.00  0.00     0.015 C 
HETATM   18  C   UNL     1      27.160  44.917  52.950  1.00  0.00     0.012 C 
HETATM   19  C   UNL     1      26.747  43.454  54.884  1.00  0.00     0.012 C 
ENDBRANCH  16  17
BRANCH  16  20
HETATM   20  C   UNL     1      29.877  44.440  55.693  1.00  0.00    -0.003 A 
HETATM   21  C   UNL     1      29.592  45.576  56.471  1.00  0.00     0.042 A 
HETATM   22 CL   UNL     1      28.417  46.752  56.007  1.00  0.00    -0.084 Cl
HETATM   23  C   UNL     1      30.260  45.798  57.682  1.00  0.00     0.024 A 
HETATM   24  C   UNL     1      31.217  44.894  58.141  1.00  0.00     0.002 A 
HETATM   25  C   UNL     1      31.513  43.762  57.391  1.00  0.00     0.001 A 
HETATM   26  C   UNL     1      30.853  43.539  56.181  1.00  0.00     0.011 A 
ENDBRANCH  16  20
ENDBRANCH  14  16
ENDBRANCH   1  14
TORSDOF 6
ENDMDL
MODEL 3
REMARK VINA RESULT:      -7.7      4.574      7.280
REMARK  6 active torsions:
REMARK  status: ('A' for Active; 'I' for Inactive)
REMARK    1  A    between atoms: C_8  and  N_9 
REMARK       I    between atoms: N_9  and  C_10 
REMARK    2  A    between atoms: C_10  and  C_11 
REMARK    3  A    between atoms: C_11  and  N_12 
REMARK    4  A    between atoms: N_12  and  C_13 
REMARK    5  A    between atoms: C_13  and  C_14 
REMARK    6  A    between atoms: C_13  and  C_17 
ROOT
HETATM    1  C   UNL     1      25.647  45.431  51.276  1.00  0.00     0.372 C 
ENDROOT
BRANCH   1   2
HETATM    2  C   UNL     1      25.338  46.209  49.996  1.00  0.00     0.250 C 
HETATM    3  N   UNL     1      25.314  47.573  50.188  1.00  0.00    -0.322 N 
HETATM    4  H   UNL     1      25.283  47.867  51.160  1.00  0.00     0.169 HD
HETATM    5  O   UNL     1      25.202  45.612  48.931  1.00  0.00    -0.271 OA
BRANCH   3   6
HETATM    6  C   UNL     1      25.221  48.553  49.215  1.00  0.00     0.085 A 
HETATM    7  C   UNL     1      26.329  49.235  48.746  1.00  0.00     0.052 A 
HETATM    8  C   UNL     1      27.771  49.186  49.079  1.00  0.00     0.072 C 
HETATM    9  N   UNL     1      25.858  50.119  47.817  1.00  0.00    -0.280 N 
HETATM   10  H   UNL     1      26.383  50.799  47.278  1.00  0.00     0.189 HD
HETATM   11  N   UNL     1      24.542  50.041  47.612  1.00  0.00    -0.177 NA
HETATM   12  C   UNL     1      24.132  49.081  48.456  1.00  0.00     0.079 A 
HETATM   13  C   UNL     1      22.695  48.707  48.435  1.00  0.00     0.075 C 
ENDBRANCH   3   6
ENDBRANCH   1   2
BRANCH   1  14
HETATM   14  N   UNL     1      26.939  44.741  51.272  1.00  0.00     0.101 N 
HETATM   15  H   UNL     1      27.292  44.783  50.315  1.00  0.00     0.317 HD
BRANCH  14  16
HETATM   16  C   UNL     1      27.023  43.335  51.736  1.00  0.00     0.259 C 
BRANCH  16  17
HETATM   17  C   UNL     1      27.229  42.182  50.683  1.00  0.00     0.015 C 
HETATM   18  C   UNL     1      26.456  40.902  51.076  1.00  0.00     0.012 C 
HETATM   19  C   UNL     1      26.745  42.543  49.268  1.00  0.00     0.012 C 
ENDBRANCH  16  17
BRANCH  16  20
HETATM   20  C   UNL     1      28.141  43.327  52.797  1.00  0.00    -0.003 A 
HETATM   21  C   UNL     1      27.975  43.837  54.097  1.00  0.00     0.042 A 
HETATM   22 CL   UNL     1      26.480  44.493  54.657  1.00  0.00    -0.084 Cl
HETATM   23  C   UNL     1      29.038  43.824  55.010  1.00  0.00     0.024 A 
HETATM   24  C   UNL     1      30.279  43.302  54.647  1.00  0.00     0.002 A 
HETATM   25  C   UNL     1      30.465  42.790  53.369  1.00  0.00     0.001 A 
HETATM   26  C   UNL     1      29.410  42.804  52.454  1.00  0.00     0.011 A 
ENDBRANCH  16  20
ENDBRANCH  14  16
ENDBRANCH   1  14
TORSDOF 6
ENDMDL
MODEL 4
REMARK VINA RESULT:      -7.6      4.901      7.658
REMARK  6 active torsions:
REMARK  status: ('A' for Active; 'I' for Inactive)
REMARK    1  A    between atoms: C_8  and  N_9 
REMARK       I    between atoms: N_9  and  C_10 
REMARK    2  A    between atoms: C_10  and  C_11 
REMARK    3  A    between atoms: C_11  and  N_12 
REMARK    4  A    between atoms: N_12  and  C_13 
REMARK    5  A    between atoms: C_13  and  C_14 
REMARK    6  A    between atoms: C_13  and  C_17 
ROOT
HETATM    1  C   UNL     1      25.698  46.322  51.566  1.00  0.00     0.372 C 
ENDROOT
BRANCH   1   2
HETATM    2  C   UNL     1      25.551  46.975  50.191  1.00  0.00     0.250 C 
HETATM    3  N   UNL     1      24.521  47.888  50.137  1.00  0.00    -0.322 N 
HETATM    4  H   UNL     1      23.874  47.850  50.919  1.00  0.00     0.169 HD
HETATM    5  O   UNL     1      26.348  46.709  49.295  1.00  0.00    -0.271 OA
BRANCH   3   6
HETATM    6  C   UNL     1      24.226  48.756  49.099  1.00  0.00     0.085 A 
HETATM    7  C   UNL     1      22.937  48.938  48.632  1.00  0.00     0.052 A 
HETATM    8  C   UNL     1      21.630  48.348  48.999  1.00  0.00     0.072 C 
HETATM    9  N   UNL     1      23.033  49.842  47.613  1.00  0.00    -0.280 N 
HETATM   10  H   UNL     1      22.290  50.201  47.024  1.00  0.00     0.189 HD
HETATM   11  N   UNL     1      24.270  50.296  47.404  1.00  0.00    -0.177 NA
HETATM   12  C   UNL     1      25.018  49.646  48.310  1.00  0.00     0.079 A 
HETATM   13  C   UNL     1      26.464  49.973  48.377  1.00  0.00     0.075 C 
ENDBRANCH   3   6
ENDBRANCH   1   2
BRANCH   1  14
HETATM   14  N   UNL     1      26.872  45.457  51.706  1.00  0.00     0.101 N 
HETATM   15  H   UNL     1      27.328  45.429  50.794  1.00  0.00     0.317 HD
BRANCH  14  16
HETATM   16  C   UNL     1      26.704  44.063  52.183  1.00  0.00     0.259 C 
BRANCH  16  17
HETATM   17  C   UNL     1      26.399  42.920  51.144  1.00  0.00     0.015 C 
HETATM   18  C   UNL     1      24.883  42.632  51.037  1.00  0.00     0.012 C 
HETATM   19  C   UNL     1      26.863  43.244  49.713  1.00  0.00     0.012 C 
ENDBRANCH  16  17
BRANCH  16  20
HETATM   20  C   UNL     1      27.981  43.756  52.990  1.00  0.00    -0.003 A 
HETATM   21  C   UNL     1      28.273  44.351  54.229  1.00  0.00     0.042 A 
HETATM   22 CL   UNL     1      27.204  45.464  55.004  1.00  0.00    -0.084 Cl
HETATM   23  C   UNL     1      29.464  44.050  54.903  1.00  0.00     0.024 A 
HETATM   24  C   UNL     1      30.381  43.153  54.358  1.00  0.00     0.002 A 
HETATM   25  C   UNL     1      30.112  42.551  53.135  1.00  0.00     0.001 A 
HETATM   26  C   UNL     1      28.929  42.850  52.458  1.00  0.00     0.011 A 
ENDBRANCH  16  20
ENDBRANCH  14  16
ENDBRANCH   1  14
TORSDOF 6
ENDMDL
MODEL 5
REMARK VINA RESULT:      -7.5      3.666      5.798
REMARK  6 active torsions:
REMARK  status: ('A' for Active; 'I' for Inactive)
REMARK    1  A    between atoms: C_8  and  N_9 
REMARK       I    between atoms: N_9  and  C_10 
REMARK    2  A    between atoms: C_10  and  C_11 
REMARK    3  A    between atoms: C_11  and  N_12 
REMARK    4  A    between atoms: N_12  and  C_13 
REMARK    5  A    between atoms: C_13  and  C_14 
REMARK    6  A    between atoms: C_13  and  C_17 
ROOT
HETATM    1  C   UNL     1      27.418  43.129  50.985  1.00  0.00     0.372 C 
ENDROOT
BRANCH   1   2
HETATM    2  C   UNL     1      26.751  44.251  50.189  1.00  0.00     0.250 C 
HETATM    3  N   UNL     1      25.390  44.316  50.387  1.00  0.00    -0.322 N 
HETATM    4  H   UNL     1      24.985  43.503  50.843  1.00  0.00     0.169 HD
HETATM    5  O   UNL     1      27.435  45.017  49.514  1.00  0.00    -0.271 OA
BRANCH   3   6
HETATM    6  C   UNL     1      24.526  45.303  49.943  1.00  0.00     0.085 A 
HETATM    7  C   UNL     1      23.317  45.008  49.339  1.00  0.00     0.052 A 
HETATM    8  C   UNL     1      22.637  43.741  48.988  1.00  0.00     0.072 C 
HETATM    9  N   UNL     1      22.751  46.212  49.029  1.00  0.00    -0.280 N 
HETATM   10  H   UNL     1      21.869  46.386  48.560  1.00  0.00     0.189 HD
HETATM   11  N   UNL     1      23.471  47.266  49.417  1.00  0.00    -0.177 NA
HETATM   12  C   UNL     1      24.562  46.730  49.987  1.00  0.00     0.079 A 
HETATM   13  C   UNL     1      25.559  47.656  50.581  1.00  0.00     0.075 C 
ENDBRANCH   3   6
ENDBRANCH   1   2
BRANCH   1  14
HETATM   14  N   UNL     1      28.294  43.588  52.067  1.00  0.00     0.101 N 
HETATM   15  H   UNL     1      28.701  42.753  52.490  1.00  0.00     0.317 HD
BRANCH  14  16
HETATM   16  C   UNL     1      27.741  44.434  53.150  1.00  0.00     0.259 C 
BRANCH  16  17
HETATM   17  C   UNL     1      26.309  44.119  53.726  1.00  0.00     0.015 C 
HETATM   18  C   UNL     1      26.385  43.475  55.130  1.00  0.00     0.012 C 
HETATM   19  C   UNL     1      25.419  45.364  53.886  1.00  0.00     0.012 C 
ENDBRANCH  16  17
BRANCH  16  20
HETATM   20  C   UNL     1      28.806  44.411  54.264  1.00  0.00    -0.003 A 
HETATM   21  C   UNL     1      29.064  45.505  55.109  1.00  0.00     0.042 A 
HETATM   22 CL   UNL     1      28.180  46.984  55.014  1.00  0.00    -0.084 Cl
HETATM   23  C   UNL     1      30.064  45.431  56.087  1.00  0.00     0.024 A 
HETATM   24  C   UNL     1      30.821  44.270  56.244  1.00  0.00     0.002 A 
HETATM   25  C   UNL     1      30.581  43.176  55.422  1.00  0.00     0.001 A 
HETATM   26  C   UNL     1      29.588  43.246  54.443  1.00  0.00     0.011 A 
ENDBRANCH  16  20
ENDBRANCH  14  16
ENDBRANCH   1  14
TORSDOF 6
ENDMDL
MODEL 6
REMARK VINA RESULT:      -7.3      4.557      7.147
REMARK  6 active torsions:
REMARK  status: ('A' for Active; 'I' for Inactive)
REMARK    1  A    between atoms: C_8  and  N_9 
REMARK       I    between atoms: N_9  and  C_10 
REMARK    2  A    between atoms: C_10  and  C_11 
REMARK    3  A    between atoms: C_11  and  N_12 
REMARK    4  A    between atoms: N_12  and  C_13 
REMARK    5  A    between atoms: C_13  and  C_14 
REMARK    6  A    between atoms: C_13  and  C_17 
ROOT
HETATM    1  C   UNL     1      25.430  45.587  52.791  1.00  0.00     0.372 C 
ENDROOT
BRANCH   1   2
HETATM    2  C   UNL     1      26.689  45.847  53.618  1.00  0.00     0.250 C 
HETATM    3  N   UNL     1      27.305  44.688  54.039  1.00  0.00    -0.322 N 
HETATM    4  H   UNL     1      26.744  43.847  53.941  1.00  0.00     0.169 HD
HETATM    5  O   UNL     1      27.085  46.996  53.792  1.00  0.00    -0.271 OA
BRANCH   3   6
HETATM    6  C   UNL     1      28.535  44.574  54.664  1.00  0.00     0.085 A 
HETATM    7  C   UNL     1      29.537  43.755  54.177  1.00  0.00     0.052 A 
HETATM    8  C   UNL     1      29.630  42.839  53.017  1.00  0.00     0.072 C 
HETATM    9  N   UNL     1      30.582  43.887  55.046  1.00  0.00    -0.280 N 
HETATM   10  H   UNL     1      31.483  43.420  55.017  1.00  0.00     0.189 HD
HETATM   11  N   UNL     1      30.360  44.754  56.035  1.00  0.00    -0.177 NA
HETATM   12  C   UNL     1      29.110  45.193  55.816  1.00  0.00     0.079 A 
HETATM   13  C   UNL     1      28.570  46.231  56.729  1.00  0.00     0.075 C 
ENDBRANCH   3   6
ENDBRANCH   1   2
BRANCH   1  14
HETATM   14  N   UNL     1      25.154  46.600  51.769  1.00  0.00     0.101 N 
HETATM   15  H   UNL     1      24.202  46.435  51.440  1.00  0.00     0.317 HD
BRANCH  14  16
HETATM   16  C   UNL     1      26.041  46.712  50.587  1.00  0.00     0.259 C 
BRANCH  16  17
HETATM   17  C   UNL     1      26.303  45.442  49.692  1.00  0.00     0.015 C 
HETATM   18  C   UNL     1      27.367  44.511  50.317  1.00  0.00     0.012 C 
HETATM   19  C   UNL     1      25.055  44.567  49.479  1.00  0.00     0.012 C 
ENDBRANCH  16  17
BRANCH  16  20
HETATM   20  C   UNL     1      25.458  47.870  49.753  1.00  0.00    -0.003 A 
HETATM   21  C   UNL     1      26.254  48.816  49.083  1.00  0.00     0.042 A 
HETATM   22 CL   UNL     1      27.979  48.754  49.089  1.00  0.00    -0.084 Cl
HETATM   23  C   UNL     1      25.665  49.862  48.361  1.00  0.00     0.024 A 
HETATM   24  C   UNL     1      24.278  49.983  48.291  1.00  0.00     0.002 A 
HETATM   25  C   UNL     1      23.471  49.059  48.943  1.00  0.00     0.001 A 
HETATM   26  C   UNL     1      24.054  48.017  49.667  1.00  0.00     0.011 A 
ENDBRANCH  16  20
ENDBRANCH  14  16
ENDBRANCH   1  14
TORSDOF 6
ENDMDL
MODEL 7
REMARK VINA RESULT:      -7.1      4.637      7.224
REMARK  6 active torsions:
REMARK  status: ('A' for Active; 'I' for Inactive)
REMARK    1  A    between atoms: C_8  and  N_9 
REMARK       I    between atoms: N_9  and  C_10 
REMARK    2  A    between atoms: C_10  and  C_11 
REMARK    3  A    between atoms: C_11  and  N_12 
REMARK    4  A    between atoms: N_12  and  C_13 
REMARK    5  A    between atoms: C_13  and  C_14 
REMARK    6  A    between atoms: C_13  and  C_17 
ROOT
HETATM    1  C   UNL     1      24.053  44.762  50.821  1.00  0.00     0.372 C 
ENDROOT
BRANCH   1   2
HETATM    2  C   UNL     1      23.779  45.692  49.638  1.00  0.00     0.250 C 
HETATM    3  N   UNL     1      23.873  47.026  49.969  1.00  0.00    -0.322 N 
HETATM    4  H   UNL     1      23.891  47.218  50.967  1.00  0.00     0.169 HD
HETATM    5  O   UNL     1      23.568  45.223  48.523  1.00  0.00    -0.271 OA
BRANCH   3   6
HETATM    6  C   UNL     1      23.838  48.107  49.105  1.00  0.00     0.085 A 
HETATM    7  C   UNL     1      24.960  48.865  48.825  1.00  0.00     0.052 A 
HETATM    8  C   UNL     1      26.365  48.816  49.291  1.00  0.00     0.072 C 
HETATM    9  N   UNL     1      24.548  49.836  47.957  1.00  0.00    -0.280 N 
HETATM   10  H   UNL     1      25.097  50.585  47.549  1.00  0.00     0.189 HD
HETATM   11  N   UNL     1      23.261  49.748  47.615  1.00  0.00    -0.177 NA
HETATM   12  C   UNL     1      22.808  48.689  48.305  1.00  0.00     0.079 A 
HETATM   13  C   UNL     1      21.394  48.284  48.101  1.00  0.00     0.075 C 
ENDBRANCH   3   6
ENDBRANCH   1   2
BRANCH   1  14
HETATM   14  N   UNL     1      24.988  45.300  51.813  1.00  0.00     0.101 N 
HETATM   15  H   UNL     1      25.243  46.237  51.500  1.00  0.00     0.317 HD
BRANCH  14  16
HETATM   16  C   UNL     1      26.233  44.559  52.126  1.00  0.00     0.259 C 
BRANCH  16  17
HETATM   17  C   UNL     1      27.291  44.306  50.986  1.00  0.00     0.015 C 
HETATM   18  C   UNL     1      27.085  42.932  50.308  1.00  0.00     0.012 C 
HETATM   19  C   UNL     1      27.238  45.344  49.852  1.00  0.00     0.012 C 
ENDBRANCH  16  17
BRANCH  16  20
HETATM   20  C   UNL     1      26.864  45.313  53.314  1.00  0.00    -0.003 A 
HETATM   21  C   UNL     1      27.653  44.687  54.294  1.00  0.00     0.042 A 
HETATM   22 CL   UNL     1      28.036  43.004  54.247  1.00  0.00    -0.084 Cl
HETATM   23  C   UNL     1      28.178  45.422  55.365  1.00  0.00     0.024 A 
HETATM   24  C   UNL     1      27.929  46.790  55.477  1.00  0.00     0.002 A 
HETATM   25  C   UNL     1      27.154  47.430  54.518  1.00  0.00     0.001 A 
HETATM   26  C   UNL     1      26.626  46.700  53.451  1.00  0.00     0.011 A 
ENDBRANCH  16  20
ENDBRANCH  14  16
ENDBRANCH   1  14
TORSDOF 6
ENDMDL
MODEL 8
REMARK VINA RESULT:      -7.1      2.843      3.886
REMARK  6 active torsions:
REMARK  status: ('A' for Active; 'I' for Inactive)
REMARK    1  A    between atoms: C_8  and  N_9 
REMARK       I    between atoms: N_9  and  C_10 
REMARK    2  A    between atoms: C_10  and  C_11 
REMARK    3  A    between atoms: C_11  and  N_12 
REMARK    4  A    between atoms: N_12  and  C_13 
REMARK    5  A    between atoms: C_13  and  C_14 
REMARK    6  A    between atoms: C_13  and  C_17 
ROOT
HETATM    1  C   UNL     1      29.096  42.532  52.229  1.00  0.00     0.372 C 
ENDROOT
BRANCH   1   2
HETATM    2  C   UNL     1      27.790  42.099  51.562  1.00  0.00     0.250 C 
HETATM    3  N   UNL     1      27.378  42.965  50.573  1.00  0.00    -0.322 N 
HETATM    4  H   UNL     1      27.854  43.862  50.565  1.00  0.00     0.169 HD
HETATM    5  O   UNL     1      27.255  41.042  51.885  1.00  0.00    -0.271 OA
BRANCH   3   6
HETATM    6  C   UNL     1      26.334  42.782  49.682  1.00  0.00     0.085 A 
HETATM    7  C   UNL     1      26.442  41.957  48.577  1.00  0.00     0.052 A 
HETATM    8  C   UNL     1      27.541  41.130  48.029  1.00  0.00     0.072 C 
HETATM    9  N   UNL     1      25.239  42.032  47.935  1.00  0.00    -0.280 N 
HETATM   10  H   UNL     1      24.959  41.574  47.075  1.00  0.00     0.189 HD
HETATM   11  N   UNL     1      24.343  42.805  48.551  1.00  0.00    -0.177 NA
HETATM   12  C   UNL     1      24.992  43.270  49.630  1.00  0.00     0.079 A 
HETATM   13  C   UNL     1      24.240  44.135  50.573  1.00  0.00     0.075 C 
ENDBRANCH   3   6
ENDBRANCH   1   2
BRANCH   1  14
HETATM   14  N   UNL     1      28.990  42.784  53.668  1.00  0.00     0.101 N 
HETATM   15  H   UNL     1      28.196  42.239  54.005  1.00  0.00     0.317 HD
BRANCH  14  16
HETATM   16  C   UNL     1      28.842  44.174  54.162  1.00  0.00     0.259 C 
BRANCH  16  17
HETATM   17  C   UNL     1      27.402  44.750  54.435  1.00  0.00     0.015 C 
HETATM   18  C   UNL     1      26.804  45.418  53.175  1.00  0.00     0.012 C 
HETATM   19  C   UNL     1      26.381  43.684  54.866  1.00  0.00     0.012 C 
ENDBRANCH  16  17
BRANCH  16  20
HETATM   20  C   UNL     1      29.721  44.249  55.426  1.00  0.00    -0.003 A 
HETATM   21  C   UNL     1      29.666  45.313  56.343  1.00  0.00     0.042 A 
HETATM   22 CL   UNL     1      28.571  46.636  56.170  1.00  0.00    -0.084 Cl
HETATM   23  C   UNL     1      30.509  45.336  57.462  1.00  0.00     0.024 A 
HETATM   24  C   UNL     1      31.417  44.302  57.689  1.00  0.00     0.002 A 
HETATM   25  C   UNL     1      31.487  43.239  56.798  1.00  0.00     0.001 A 
HETATM   26  C   UNL     1      30.651  43.213  55.679  1.00  0.00     0.011 A 
ENDBRANCH  16  20
ENDBRANCH  14  16
ENDBRANCH   1  14
TORSDOF 6
ENDMDL
MODEL 9
REMARK VINA RESULT:      -7.1      9.601     12.272
REMARK  6 active torsions:
REMARK  status: ('A' for Active; 'I' for Inactive)
REMARK    1  A    between atoms: C_8  and  N_9 
REMARK       I    between atoms: N_9  and  C_10 
REMARK    2  A    between atoms: C_10  and  C_11 
REMARK    3  A    between atoms: C_11  and  N_12 
REMARK    4  A    between atoms: N_12  and  C_13 
REMARK    5  A    between atoms: C_13  and  C_14 
REMARK    6  A    between atoms: C_13  and  C_17 
ROOT
HETATM    1  C   UNL     1      19.827  47.986  49.189  1.00  0.00     0.372 C 
ENDROOT
BRANCH   1   2
HETATM    2  C   UNL     1      21.243  48.047  48.615  1.00  0.00     0.250 C 
HETATM    3  N   UNL     1      22.164  48.549  49.507  1.00  0.00    -0.322 N 
HETATM    4  H   UNL     1      21.764  49.006  50.322  1.00  0.00     0.169 HD
HETATM    5  O   UNL     1      21.470  47.615  47.488  1.00  0.00    -0.271 OA
BRANCH   3   6
HETATM    6  C   UNL     1      23.540  48.589  49.357  1.00  0.00     0.085 A 
HETATM    7  C   UNL     1      24.176  49.586  48.641  1.00  0.00     0.052 A 
HETATM    8  C   UNL     1      23.691  50.762  47.882  1.00  0.00     0.072 C 
HETATM    9  N   UNL     1      25.509  49.295  48.698  1.00  0.00    -0.280 N 
HETATM   10  H   UNL     1      26.278  49.798  48.270  1.00  0.00     0.189 HD
HETATM   11  N   UNL     1      25.799  48.215  49.426  1.00  0.00    -0.177 NA
HETATM   12  C   UNL     1      24.603  47.769  49.846  1.00  0.00     0.079 A 
HETATM   13  C   UNL     1      24.581  46.585  50.741  1.00  0.00     0.075 C 
ENDBRANCH   3   6
ENDBRANCH   1   2
BRANCH   1  14
HETATM   14  N   UNL     1      18.762  48.181  48.202  1.00  0.00     0.101 N 
HETATM   15  H   UNL     1      18.783  47.372  47.581  1.00  0.00     0.317 HD
BRANCH  14  16
HETATM   16  C   UNL     1      18.749  49.407  47.368  1.00  0.00     0.259 C 
BRANCH  16  17
HETATM   17  C   UNL     1      18.154  49.346  45.911  1.00  0.00     0.015 C 
HETATM   18  C   UNL     1      18.558  50.584  45.076  1.00  0.00     0.012 C 
HETATM   19  C   UNL     1      18.624  48.126  45.101  1.00  0.00     0.012 C 
ENDBRANCH  16  17
BRANCH  16  20
HETATM   20  C   UNL     1      18.026  50.468  48.221  1.00  0.00    -0.003 A 
HETATM   21  C   UNL     1      18.699  51.479  48.930  1.00  0.00     0.042 A 
HETATM   22 CL   UNL     1      20.414  51.664  48.884  1.00  0.00    -0.084 Cl
HETATM   23  C   UNL     1      17.987  52.400  49.709  1.00  0.00     0.024 A 
HETATM   24  C   UNL     1      16.597  52.333  49.795  1.00  0.00     0.002 A 
HETATM   25  C   UNL     1      15.910  51.344  49.101  1.00  0.00     0.001 A 
HETATM   26  C   UNL     1      16.616  50.421  48.326  1.00  0.00     0.011 A 
ENDBRANCH  16  20
ENDBRANCH  14  16
ENDBRANCH   1  14
TORSDOF 6
ENDMDL
MODEL 10
REMARK VINA RESULT:      -7.0      3.689      5.511
REMARK  6 active torsions:
REMARK  status: ('A' for Active; 'I' for Inactive)
REMARK    1  A    between atoms: C_8  and  N_9 
REMARK       I    between atoms: N_9  and  C_10 
REMARK    2  A    between atoms: C_10  and  C_11 
REMARK    3  A    between atoms: C_11  and  N_12 
REMARK    4  A    between atoms: N_12  and  C_13 
REMARK    5  A    between atoms: C_13  and  C_14 
REMARK    6  A    between atoms: C_13  and  C_17 
ROOT
HETATM    1  C   UNL     1      25.721  43.778  49.145  1.00  0.00     0.372 C 
ENDROOT
BRANCH   1   2
HETATM    2  C   UNL     1      26.041  42.588  50.051  1.00  0.00     0.250 C 
HETATM    3  N   UNL     1      27.348  42.579  50.486  1.00  0.00    -0.322 N 
HETATM    4  H   UNL     1      27.968  43.212  49.989  1.00  0.00     0.169 HD
HETATM    5  O   UNL     1      25.154  41.799  50.366  1.00  0.00    -0.271 OA
BRANCH   3   6
HETATM    6  C   UNL     1      27.909  41.737  51.431  1.00  0.00     0.085 A 
HETATM    7  C   UNL     1      28.355  40.466  51.117  1.00  0.00     0.052 A 
HETATM    8  C   UNL     1      28.366  39.672  49.868  1.00  0.00     0.072 C 
HETATM    9  N   UNL     1      28.826  39.937  52.284  1.00  0.00    -0.280 N 
HETATM   10  H   UNL     1      29.215  39.013  52.440  1.00  0.00     0.189 HD
HETATM   11  N   UNL     1      28.764  40.771  53.324  1.00  0.00    -0.177 NA
HETATM   12  C   UNL     1      28.209  41.885  52.820  1.00  0.00     0.079 A 
HETATM   13  C   UNL     1      28.047  43.049  53.727  1.00  0.00     0.075 C 
ENDBRANCH   3   6
ENDBRANCH   1   2
BRANCH   1  14
HETATM   14  N   UNL     1      26.383  45.028  49.527  1.00  0.00     0.101 N 
HETATM   15  H   UNL     1      27.257  44.770  49.987  1.00  0.00     0.317 HD
BRANCH  14  16
HETATM   16  C   UNL     1      25.673  46.001  50.391  1.00  0.00     0.259 C 
BRANCH  16  17
HETATM   17  C   UNL     1      25.962  46.018  51.939  1.00  0.00     0.015 C 
HETATM   18  C   UNL     1      25.544  47.359  52.585  1.00  0.00     0.012 C 
HETATM   19  C   UNL     1      25.211  44.926  52.721  1.00  0.00     0.012 C 
ENDBRANCH  16  17
BRANCH  16  20
HETATM   20  C   UNL     1      25.948  47.379  49.757  1.00  0.00    -0.003 A 
HETATM   21  C   UNL     1      24.931  48.243  49.316  1.00  0.00     0.042 A 
HETATM   22 CL   UNL     1      23.254  47.867  49.476  1.00  0.00    -0.084 Cl
HETATM   23  C   UNL     1      25.246  49.474  48.724  1.00  0.00     0.024 A 
HETATM   24  C   UNL     1      26.575  49.866  48.565  1.00  0.00     0.002 A 
HETATM   25  C   UNL     1      27.596  49.029  48.997  1.00  0.00     0.001 A 
HETATM   26  C   UNL     1      27.288  47.800  49.583  1.00  0.00     0.011 A 
ENDBRANCH  16  20
ENDBRANCH  14  16
ENDBRANCH   1  14
TORSDOF 6
ENDMDL
