MODEL 1
REMARK VINA RESULT:     -10.7      0.000      0.000
REMARK  10 active torsions:
REMARK  status: ('A' for Active; 'I' for Inactive)
REMARK    1  A    between atoms: S_2  and  C_3 
REMARK    2  A    between atoms: C_5  and  N_6 
REMARK    3  A    between atoms: N_6  and  C_7 
REMARK    4  A    between atoms: C_11  and  C_12 
REMARK       I    between atoms: C_12  and  N_13 
REMARK    5  A    between atoms: N_13  and  C_14 
REMARK    6  A    between atoms: C_14  and  C_15 
REMARK    7  A    between atoms: C_15  and  C_16 
REMARK    8  A    between atoms: C_16  and  N_17 
REMARK    9  A    between atoms: C_21  and  C_22 
REMARK   10  A    between atoms: C_22  and  C_23 
ROOT
HETATM    1  C   UNL     1      24.614  45.618  49.886  1.00  0.00     0.252 C 
HETATM    2  N   UNL     1      25.128  44.703  48.990  1.00  0.00    -0.357 N 
HETATM    3  O   UNL     1      24.194  45.284  50.988  1.00  0.00    -0.268 OA
HETATM    4  H   UNL     1      25.247  45.058  48.047  1.00  0.00     0.162 HD
ENDROOT
BRANCH   1   5
HETATM    5  C   UNL     1      24.379  47.023  49.425  1.00  0.00     0.048 A 
HETATM    6  C   UNL     1      25.360  48.012  49.199  1.00  0.00     0.009 A 
HETATM    7  C   UNL     1      24.924  49.148  48.482  1.00  0.00     0.070 A 
HETATM    8  C   UNL     1      26.711  47.973  49.640  1.00  0.00     0.015 A 
HETATM    9  N   UNL     1      23.656  49.328  48.077  1.00  0.00    -0.231 NA
HETATM   10  C   UNL     1      25.841  50.137  48.163  1.00  0.00     0.032 A 
HETATM   11  C   UNL     1      22.715  48.416  48.362  1.00  0.00     0.129 A 
HETATM   12  C   UNL     1      23.047  47.280  49.076  1.00  0.00     0.068 A 
HETATM   13  C   UNL     1      27.179  50.063  48.552  1.00  0.00     0.002 A 
HETATM   14  C   UNL     1      27.612  48.984  49.307  1.00  0.00     0.001 A 
BRANCH  11  15
HETATM   15  N   UNL     1      21.351  48.589  48.021  1.00  0.00    -0.341 N 
HETATM   16  H   UNL     1      21.181  48.186  47.102  1.00  0.00     0.167 HD
BRANCH  15  17
HETATM   17  C   UNL     1      20.555  49.759  48.098  1.00  0.00     0.034 A 
HETATM   18  C   UNL     1      19.643  50.147  47.112  1.00  0.00     0.048 A 
HETATM   19  C   UNL     1      18.824  51.268  47.293  1.00  0.00     0.002 A 
HETATM   20  C   UNL     1      18.899  51.997  48.483  1.00  0.00     0.018 A 
HETATM   21  C   UNL     1      19.798  51.619  49.478  1.00  0.00     0.004 A 
HETATM   22  C   UNL     1      20.614  50.505  49.286  1.00  0.00     0.029 A 
BRANCH  19  23
HETATM   23  S   UNL     1      17.652  51.707  46.021  1.00  0.00    -0.134 SA
HETATM   24  C   UNL     1      18.334  50.738  44.650  1.00  0.00     0.095 C 
ENDBRANCH  19  23
ENDBRANCH  15  17
ENDBRANCH  11  15
ENDBRANCH   1   5
BRANCH   2  25
HETATM   25  C   UNL     1      24.852  43.274  49.014  1.00  0.00     0.124 C 
BRANCH  25  26
HETATM   26  C   UNL     1      25.879  42.259  49.543  1.00  0.00     0.047 C 
BRANCH  26  27
HETATM   27  C   UNL     1      27.072  42.637  50.431  1.00  0.00     0.236 C 
BRANCH  27  28
HETATM   28  N   UNL     1      26.807  43.277  51.800  1.00  0.00    -0.071 N 
HETATM   29  H   UNL     1      25.785  43.321  51.907  1.00  0.00     0.279 HD
HETATM   30  C   UNL     1      27.307  42.322  52.879  1.00  0.00     0.235 C 
HETATM   31  C   UNL     1      27.142  42.901  54.282  1.00  0.00     0.032 C 
HETATM   32  C   UNL     1      27.757  44.302  54.432  1.00  0.00    -0.007 C 
HETATM   33  C   UNL     1      27.086  45.194  53.389  1.00  0.00     0.032 C 
HETATM   34  C   UNL     1      27.302  44.681  51.975  1.00  0.00     0.235 C 
BRANCH  32  35
HETATM   35  C   UNL     1      29.302  44.247  54.337  1.00  0.00     0.043 C 
BRANCH  35  36
HETATM   36  C   UNL     1      30.047  44.306  55.648  1.00  0.00    -0.058 A 
HETATM   37  C   UNL     1      30.991  43.326  55.975  1.00  0.00     0.007 A 
HETATM   38  C   UNL     1      31.722  43.418  57.163  1.00  0.00     0.001 A 
HETATM   39  C   UNL     1      31.516  44.484  58.037  1.00  0.00     0.000 A 
HETATM   40  C   UNL     1      30.570  45.456  57.730  1.00  0.00     0.001 A 
HETATM   41  C   UNL     1      29.838  45.363  56.548  1.00  0.00     0.007 A 
ENDBRANCH  35  36
ENDBRANCH  32  35
ENDBRANCH  27  28
ENDBRANCH  26  27
ENDBRANCH  25  26
ENDBRANCH   2  25
TORSDOF 10
ENDMDL
MODEL 2
REMARK VINA RESULT:     -10.3      1.416      2.195
REMARK  10 active torsions:
REMARK  status: ('A' for Active; 'I' for Inactive)
REMARK    1  A    between atoms: S_2  and  C_3 
REMARK    2  A    between atoms: C_5  and  N_6 
REMARK    3  A    between atoms: N_6  and  C_7 
REMARK    4  A    between atoms: C_11  and  C_12 
REMARK       I    between atoms: C_12  and  N_13 
REMARK    5  A    between atoms: N_13  and  C_14 
REMARK    6  A    between atoms: C_14  and  C_15 
REMARK    7  A    between atoms: C_15  and  C_16 
REMARK    8  A    between atoms: C_16  and  N_17 
REMARK    9  A    between atoms: C_21  and  C_22 
REMARK   10  A    between atoms: C_22  and  C_23 
ROOT
HETATM    1  C   UNL     1      24.408  45.914  50.214  1.00  0.00     0.252 C 
HETATM    2  N   UNL     1      24.154  44.797  49.445  1.00  0.00    -0.357 N 
HETATM    3  O   UNL     1      24.585  45.843  51.425  1.00  0.00    -0.268 OA
HETATM    4  H   UNL     1      23.820  44.997  48.508  1.00  0.00     0.162 HD
ENDROOT
BRANCH   1   5
HETATM    5  C   UNL     1      24.266  47.266  49.588  1.00  0.00     0.048 A 
HETATM    6  C   UNL     1      25.306  48.174  49.296  1.00  0.00     0.009 A 
HETATM    7  C   UNL     1      24.958  49.240  48.437  1.00  0.00     0.070 A 
HETATM    8  C   UNL     1      26.634  48.121  49.798  1.00  0.00     0.015 A 
HETATM    9  N   UNL     1      23.718  49.433  47.958  1.00  0.00    -0.231 NA
HETATM   10  C   UNL     1      25.938  50.141  48.049  1.00  0.00     0.032 A 
HETATM   11  C   UNL     1      22.720  48.606  48.302  1.00  0.00     0.129 A 
HETATM   12  C   UNL     1      22.963  47.545  49.153  1.00  0.00     0.068 A 
HETATM   13  C   UNL     1      27.254  50.047  48.504  1.00  0.00     0.002 A 
HETATM   14  C   UNL     1      27.600  49.042  49.394  1.00  0.00     0.001 A 
BRANCH  11  15
HETATM   15  N   UNL     1      21.381  48.805  47.883  1.00  0.00    -0.341 N 
HETATM   16  H   UNL     1      21.292  48.533  46.905  1.00  0.00     0.167 HD
BRANCH  15  17
HETATM   17  C   UNL     1      20.551  49.939  48.060  1.00  0.00     0.034 A 
HETATM   18  C   UNL     1      19.622  50.380  47.114  1.00  0.00     0.048 A 
HETATM   19  C   UNL     1      18.770  51.457  47.391  1.00  0.00     0.002 A 
HETATM   20  C   UNL     1      18.832  52.086  48.636  1.00  0.00     0.018 A 
HETATM   21  C   UNL     1      19.749  51.655  49.592  1.00  0.00     0.004 A 
HETATM   22  C   UNL     1      20.597  50.586  49.305  1.00  0.00     0.029 A 
BRANCH  19  23
HETATM   23  S   UNL     1      17.577  51.963  46.164  1.00  0.00    -0.134 SA
HETATM   24  C   UNL     1      17.957  50.753  44.870  1.00  0.00     0.095 C 
ENDBRANCH  19  23
ENDBRANCH  15  17
ENDBRANCH  11  15
ENDBRANCH   1   5
BRANCH   2  25
HETATM   25  C   UNL     1      23.639  43.535  49.959  1.00  0.00     0.124 C 
BRANCH  25  26
HETATM   26  C   UNL     1      24.545  42.526  50.684  1.00  0.00     0.047 C 
BRANCH  26  27
HETATM   27  C   UNL     1      25.778  41.874  50.044  1.00  0.00     0.236 C 
BRANCH  27  28
HETATM   28  N   UNL     1      27.136  42.002  50.746  1.00  0.00    -0.071 N 
HETATM   29  H   UNL     1      27.850  41.778  50.041  1.00  0.00     0.279 HD
HETATM   30  C   UNL     1      27.347  43.467  51.116  1.00  0.00     0.235 C 
HETATM   31  C   UNL     1      28.652  43.686  51.878  1.00  0.00     0.032 C 
HETATM   32  C   UNL     1      28.798  42.764  53.100  1.00  0.00    -0.007 C 
HETATM   33  C   UNL     1      28.699  41.328  52.586  1.00  0.00     0.032 C 
HETATM   34  C   UNL     1      27.375  41.062  51.890  1.00  0.00     0.235 C 
BRANCH  32  35
HETATM   35  C   UNL     1      27.770  43.128  54.201  1.00  0.00     0.043 C 
BRANCH  35  36
HETATM   36  C   UNL     1      27.678  44.591  54.560  1.00  0.00    -0.058 A 
HETATM   37  C   UNL     1      28.764  45.249  55.147  1.00  0.00     0.007 A 
HETATM   38  C   UNL     1      28.695  46.619  55.422  1.00  0.00     0.001 A 
HETATM   39  C   UNL     1      27.543  47.341  55.118  1.00  0.00     0.000 A 
HETATM   40  C   UNL     1      26.452  46.696  54.547  1.00  0.00     0.001 A 
HETATM   41  C   UNL     1      26.519  45.329  54.276  1.00  0.00     0.007 A 
ENDBRANCH  35  36
ENDBRANCH  32  35
ENDBRANCH  27  28
ENDBRANCH  26  27
ENDBRANCH  25  26
ENDBRANCH   2  25
TORSDOF 10
ENDMDL
MODEL 3
REMARK VINA RESULT:     -10.3      2.744     10.640
REMARK  10 active torsions:
REMARK  status: ('A' for Active; 'I' for Inactive)
REMARK    1  A    between atoms: S_2  and  C_3 
REMARK    2  A    between atoms: C_5  and  N_6 
REMARK    3  A    between atoms: N_6  and  C_7 
REMARK    4  A    between atoms: C_11  and  C_12 
REMARK       I    between atoms: C_12  and  N_13 
REMARK    5  A    between atoms: N_13  and  C_14 
REMARK    6  A    between atoms: C_14  and  C_15 
REMARK    7  A    between atoms: C_15  and  C_16 
REMARK    8  A    between atoms: C_16  and  N_17 
REMARK    9  A    between atoms: C_21  and  C_22 
REMARK   10  A    between atoms: C_22  and  C_23 
ROOT
HETATM    1  C   UNL     1      26.685  45.619  53.938  1.00  0.00     0.252 C 
HETATM    2  N   UNL     1      25.730  45.648  52.943  1.00  0.00    -0.357 N 
HETATM    3  O   UNL     1      26.857  46.561  54.704  1.00  0.00    -0.268 OA
HETATM    4  H   UNL     1      25.820  44.913  52.250  1.00  0.00     0.162 HD
ENDROOT
BRANCH   1   5
HETATM    5  C   UNL     1      27.670  44.492  53.957  1.00  0.00     0.048 A 
HETATM    6  C   UNL     1      28.845  44.410  54.736  1.00  0.00     0.009 A 
HETATM    7  C   UNL     1      29.439  43.131  54.808  1.00  0.00     0.070 A 
HETATM    8  C   UNL     1      29.476  45.484  55.419  1.00  0.00     0.015 A 
HETATM    9  N   UNL     1      28.971  42.058  54.148  1.00  0.00    -0.231 NA
HETATM   10  C   UNL     1      30.559  42.951  55.603  1.00  0.00     0.032 A 
HETATM   11  C   UNL     1      27.898  42.164  53.351  1.00  0.00     0.129 A 
HETATM   12  C   UNL     1      27.262  43.382  53.205  1.00  0.00     0.068 A 
HETATM   13  C   UNL     1      31.140  44.001  56.316  1.00  0.00     0.002 A 
HETATM   14  C   UNL     1      30.605  45.276  56.211  1.00  0.00     0.001 A 
BRANCH  11  15
HETATM   15  N   UNL     1      27.408  41.082  52.578  1.00  0.00    -0.341 N 
HETATM   16  H   UNL     1      27.968  40.253  52.769  1.00  0.00     0.167 HD
BRANCH  15  17
HETATM   17  C   UNL     1      27.095  41.044  51.197  1.00  0.00     0.034 A 
HETATM   18  C   UNL     1      25.815  41.264  50.681  1.00  0.00     0.048 A 
HETATM   19  C   UNL     1      25.593  41.299  49.299  1.00  0.00     0.002 A 
HETATM   20  C   UNL     1      26.668  41.135  48.420  1.00  0.00     0.018 A 
HETATM   21  C   UNL     1      27.951  40.921  48.919  1.00  0.00     0.004 A 
HETATM   22  C   UNL     1      28.161  40.881  50.296  1.00  0.00     0.029 A 
BRANCH  19  23
HETATM   23  S   UNL     1      23.947  41.615  48.687  1.00  0.00    -0.134 SA
HETATM   24  C   UNL     1      23.396  42.809  49.933  1.00  0.00     0.095 C 
ENDBRANCH  19  23
ENDBRANCH  15  17
ENDBRANCH  11  15
ENDBRANCH   1   5
BRANCH   2  25
HETATM   25  C   UNL     1      25.145  46.862  52.391  1.00  0.00     0.124 C 
BRANCH  25  26
HETATM   26  C   UNL     1      25.267  47.213  50.898  1.00  0.00     0.047 C 
BRANCH  26  27
HETATM   27  C   UNL     1      24.221  46.827  49.844  1.00  0.00     0.236 C 
BRANCH  27  28
HETATM   28  N   UNL     1      23.833  47.852  48.771  1.00  0.00    -0.071 N 
HETATM   29  H   UNL     1      24.177  47.481  47.876  1.00  0.00     0.279 HD
HETATM   30  C   UNL     1      22.311  47.881  48.664  1.00  0.00     0.235 C 
HETATM   31  C   UNL     1      21.824  48.922  47.659  1.00  0.00     0.032 C 
HETATM   32  C   UNL     1      22.403  50.323  47.914  1.00  0.00    -0.007 C 
HETATM   33  C   UNL     1      23.925  50.189  47.869  1.00  0.00     0.032 C 
HETATM   34  C   UNL     1      24.443  49.215  48.914  1.00  0.00     0.235 C 
BRANCH  32  35
HETATM   35  C   UNL     1      21.847  50.927  49.228  1.00  0.00     0.043 C 
BRANCH  35  36
HETATM   36  C   UNL     1      20.362  51.195  49.255  1.00  0.00    -0.058 A 
HETATM   37  C   UNL     1      19.522  50.465  50.103  1.00  0.00     0.007 A 
HETATM   38  C   UNL     1      18.156  50.759  50.169  1.00  0.00     0.001 A 
HETATM   39  C   UNL     1      17.616  51.779  49.386  1.00  0.00     0.000 A 
HETATM   40  C   UNL     1      18.438  52.502  48.529  1.00  0.00     0.001 A 
HETATM   41  C   UNL     1      19.799  52.206  48.460  1.00  0.00     0.007 A 
ENDBRANCH  35  36
ENDBRANCH  32  35
ENDBRANCH  27  28
ENDBRANCH  26  27
ENDBRANCH  25  26
ENDBRANCH   2  25
TORSDOF 10
ENDMDL
MODEL 4
REMARK VINA RESULT:     -10.1      3.296     11.170
REMARK  10 active torsions:
REMARK  status: ('A' for Active; 'I' for Inactive)
REMARK    1  A    between atoms: S_2  and  C_3 
REMARK    2  A    between atoms: C_5  and  N_6 
REMARK    3  A    between atoms: N_6  and  C_7 
REMARK    4  A    between atoms: C_11  and  C_12 
REMARK       I    between atoms: C_12  and  N_13 
REMARK    5  A    between atoms: N_13  and  C_14 
REMARK    6  A    between atoms: C_14  and  C_15 
REMARK    7  A    between atoms: C_15  and  C_16 
REMARK    8  A    between atoms: C_16  and  N_17 
REMARK    9  A    between atoms: C_21  and  C_22 
REMARK   10  A    between atoms: C_22  and  C_23 
ROOT
HETATM    1  C   UNL     1      24.992  47.053  50.362  1.00  0.00     0.252 C 
HETATM    2  N   UNL     1      25.958  47.358  49.426  1.00  0.00    -0.357 N 
HETATM    3  O   UNL     1      24.445  47.916  51.039  1.00  0.00    -0.268 OA
HETATM    4  H   UNL     1      26.481  46.559  49.083  1.00  0.00     0.162 HD
ENDROOT
BRANCH   1   5
HETATM    5  C   UNL     1      24.746  45.615  50.701  1.00  0.00     0.048 A 
HETATM    6  C   UNL     1      24.109  44.653  49.888  1.00  0.00     0.009 A 
HETATM    7  C   UNL     1      24.269  43.311  50.296  1.00  0.00     0.070 A 
HETATM    8  C   UNL     1      23.319  44.917  48.737  1.00  0.00     0.015 A 
HETATM    9  N   UNL     1      24.934  42.946  51.405  1.00  0.00    -0.231 NA
HETATM   10  C   UNL     1      23.728  42.300  49.517  1.00  0.00     0.032 A 
HETATM   11  C   UNL     1      25.473  43.873  52.210  1.00  0.00     0.129 A 
HETATM   12  C   UNL     1      25.349  45.215  51.901  1.00  0.00     0.068 A 
HETATM   13  C   UNL     1      23.001  42.566  48.356  1.00  0.00     0.002 A 
HETATM   14  C   UNL     1      22.783  43.880  47.973  1.00  0.00     0.001 A 
BRANCH  11  15
HETATM   15  N   UNL     1      26.120  43.548  53.428  1.00  0.00    -0.341 N 
HETATM   16  H   UNL     1      25.667  44.046  54.192  1.00  0.00     0.167 HD
BRANCH  15  17
HETATM   17  C   UNL     1      27.505  43.536  53.725  1.00  0.00     0.034 A 
HETATM   18  C   UNL     1      28.106  44.365  54.677  1.00  0.00     0.048 A 
HETATM   19  C   UNL     1      29.466  44.238  54.984  1.00  0.00     0.002 A 
HETATM   20  C   UNL     1      30.231  43.256  54.349  1.00  0.00     0.018 A 
HETATM   21  C   UNL     1      29.646  42.419  53.402  1.00  0.00     0.004 A 
HETATM   22  C   UNL     1      28.293  42.556  53.099  1.00  0.00     0.029 A 
BRANCH  19  23
HETATM   23  S   UNL     1      30.182  45.297  56.229  1.00  0.00    -0.134 SA
HETATM   24  C   UNL     1      28.683  46.156  56.778  1.00  0.00     0.095 C 
ENDBRANCH  19  23
ENDBRANCH  15  17
ENDBRANCH  11  15
ENDBRANCH   1   5
BRANCH   2  25
HETATM   25  C   UNL     1      26.748  48.581  49.418  1.00  0.00     0.124 C 
BRANCH  25  26
HETATM   26  C   UNL     1      26.569  49.654  48.332  1.00  0.00     0.047 C 
BRANCH  26  27
HETATM   27  C   UNL     1      25.204  50.184  47.873  1.00  0.00     0.236 C 
BRANCH  27  28
HETATM   28  N   UNL     1      23.952  49.805  48.675  1.00  0.00    -0.071 N 
HETATM   29  H   UNL     1      24.274  49.223  49.458  1.00  0.00     0.279 HD
HETATM   30  C   UNL     1      23.377  51.075  49.295  1.00  0.00     0.235 C 
HETATM   31  C   UNL     1      22.087  50.806  50.065  1.00  0.00     0.032 C 
HETATM   32  C   UNL     1      21.035  50.052  49.236  1.00  0.00    -0.007 C 
HETATM   33  C   UNL     1      21.683  48.745  48.781  1.00  0.00     0.032 C 
HETATM   34  C   UNL     1      22.928  48.986  47.945  1.00  0.00     0.235 C 
BRANCH  32  35
HETATM   35  C   UNL     1      20.491  50.937  48.086  1.00  0.00     0.043 C 
BRANCH  35  36
HETATM   36  C   UNL     1      19.110  51.512  48.292  1.00  0.00    -0.058 A 
HETATM   37  C   UNL     1      18.173  51.501  47.254  1.00  0.00     0.007 A 
HETATM   38  C   UNL     1      16.876  51.979  47.468  1.00  0.00     0.001 A 
HETATM   39  C   UNL     1      16.506  52.476  48.716  1.00  0.00     0.000 A 
HETATM   40  C   UNL     1      17.433  52.506  49.752  1.00  0.00     0.001 A 
HETATM   41  C   UNL     1      18.727  52.033  49.538  1.00  0.00     0.007 A 
ENDBRANCH  35  36
ENDBRANCH  32  35
ENDBRANCH  27  28
ENDBRANCH  26  27
ENDBRANCH  25  26
ENDBRANCH   2  25
TORSDOF 10
ENDMDL
MODEL 5
REMARK VINA RESULT:      -9.9      3.057     11.146
REMARK  10 active torsions:
REMARK  status: ('A' for Active; 'I' for Inactive)
REMARK    1  A    between atoms: S_2  and  C_3 
REMARK    2  A    between atoms: C_5  and  N_6 
REMARK    3  A    between atoms: N_6  and  C_7 
REMARK    4  A    between atoms: C_11  and  C_12 
REMARK       I    between atoms: C_12  and  N_13 
REMARK    5  A    between atoms: N_13  and  C_14 
REMARK    6  A    between atoms: C_14  and  C_15 
REMARK    7  A    between atoms: C_15  and  C_16 
REMARK    8  A    between atoms: C_16  and  N_17 
REMARK    9  A    between atoms: C_21  and  C_22 
REMARK   10  A    between atoms: C_22  and  C_23 
ROOT
HETATM    1  C   UNL     1      26.561  43.610  49.993  1.00  0.00     0.252 C 
HETATM    2  N   UNL     1      25.198  43.630  49.788  1.00  0.00    -0.357 N 
HETATM    3  O   UNL     1      27.301  44.474  49.536  1.00  0.00    -0.268 OA
HETATM    4  H   UNL     1      24.722  42.767  50.030  1.00  0.00     0.162 HD
ENDROOT
BRANCH   1   5
HETATM    5  C   UNL     1      27.177  42.399  50.621  1.00  0.00     0.048 A 
HETATM    6  C   UNL     1      27.551  41.206  49.966  1.00  0.00     0.009 A 
HETATM    7  C   UNL     1      28.383  40.339  50.708  1.00  0.00     0.070 A 
HETATM    8  C   UNL     1      27.152  40.803  48.663  1.00  0.00     0.015 A 
HETATM    9  N   UNL     1      28.766  40.581  51.974  1.00  0.00    -0.231 NA
HETATM   10  C   UNL     1      28.847  39.176  50.114  1.00  0.00     0.032 A 
HETATM   11  C   UNL     1      28.344  41.682  52.613  1.00  0.00     0.129 A 
HETATM   12  C   UNL     1      27.511  42.579  51.970  1.00  0.00     0.068 A 
HETATM   13  C   UNL     1      28.495  38.817  48.813  1.00  0.00     0.002 A 
HETATM   14  C   UNL     1      27.632  39.625  48.090  1.00  0.00     0.001 A 
BRANCH  11  15
HETATM   15  N   UNL     1      28.658  41.949  53.968  1.00  0.00    -0.341 N 
HETATM   16  H   UNL     1      27.892  41.630  54.559  1.00  0.00     0.167 HD
BRANCH  15  17
HETATM   17  C   UNL     1      29.141  43.146  54.552  1.00  0.00     0.034 A 
HETATM   18  C   UNL     1      28.393  44.322  54.652  1.00  0.00     0.048 A 
HETATM   19  C   UNL     1      28.901  45.443  55.321  1.00  0.00     0.002 A 
HETATM   20  C   UNL     1      30.163  45.380  55.918  1.00  0.00     0.018 A 
HETATM   21  C   UNL     1      30.919  44.213  55.832  1.00  0.00     0.004 A 
HETATM   22  C   UNL     1      30.407  43.105  55.159  1.00  0.00     0.029 A 
BRANCH  19  23
HETATM   23  S   UNL     1      27.896  46.911  55.450  1.00  0.00    -0.134 SA
HETATM   24  C   UNL     1      26.650  46.524  54.193  1.00  0.00     0.095 C 
ENDBRANCH  19  23
ENDBRANCH  15  17
ENDBRANCH  11  15
ENDBRANCH   1   5
BRANCH   2  25
HETATM   25  C   UNL     1      24.532  44.346  48.709  1.00  0.00     0.124 C 
BRANCH  25  26
HETATM   26  C   UNL     1      23.363  45.310  48.975  1.00  0.00     0.047 C 
BRANCH  26  27
HETATM   27  C   UNL     1      23.542  46.738  49.508  1.00  0.00     0.236 C 
BRANCH  27  28
HETATM   28  N   UNL     1      23.367  47.919  48.543  1.00  0.00    -0.071 N 
HETATM   29  H   UNL     1      23.741  47.611  47.637  1.00  0.00     0.279 HD
HETATM   30  C   UNL     1      21.873  48.148  48.333  1.00  0.00     0.235 C 
HETATM   31  C   UNL     1      21.596  49.348  47.432  1.00  0.00     0.032 C 
HETATM   32  C   UNL     1      22.307  50.629  47.897  1.00  0.00    -0.007 C 
HETATM   33  C   UNL     1      23.802  50.313  47.944  1.00  0.00     0.032 C 
HETATM   34  C   UNL     1      24.114  49.170  48.896  1.00  0.00     0.235 C 
BRANCH  32  35
HETATM   35  C   UNL     1      21.714  51.143  49.232  1.00  0.00     0.043 C 
BRANCH  35  36
HETATM   36  C   UNL     1      20.216  51.322  49.264  1.00  0.00    -0.058 A 
HETATM   37  C   UNL     1      19.425  50.547  50.119  1.00  0.00     0.007 A 
HETATM   38  C   UNL     1      18.045  50.758  50.189  1.00  0.00     0.001 A 
HETATM   39  C   UNL     1      17.441  51.739  49.405  1.00  0.00     0.000 A 
HETATM   40  C   UNL     1      18.214  52.506  48.540  1.00  0.00     0.001 A 
HETATM   41  C   UNL     1      19.590  52.293  48.467  1.00  0.00     0.007 A 
ENDBRANCH  35  36
ENDBRANCH  32  35
ENDBRANCH  27  28
ENDBRANCH  26  27
ENDBRANCH  25  26
ENDBRANCH   2  25
TORSDOF 10
ENDMDL
MODEL 6
REMARK VINA RESULT:      -9.9      2.948      6.027
REMARK  10 active torsions:
REMARK  status: ('A' for Active; 'I' for Inactive)
REMARK    1  A    between atoms: S_2  and  C_3 
REMARK    2  A    between atoms: C_5  and  N_6 
REMARK    3  A    between atoms: N_6  and  C_7 
REMARK    4  A    between atoms: C_11  and  C_12 
REMARK       I    between atoms: C_12  and  N_13 
REMARK    5  A    between atoms: N_13  and  C_14 
REMARK    6  A    between atoms: C_14  and  C_15 
REMARK    7  A    between atoms: C_15  and  C_16 
REMARK    8  A    between atoms: C_16  and  N_17 
REMARK    9  A    between atoms: C_21  and  C_22 
REMARK   10  A    between atoms: C_22  and  C_23 
ROOT
HETATM    1  C   UNL     1      22.431  50.366  49.096  1.00  0.00     0.252 C 
HETATM    2  N   UNL     1      23.337  49.896  48.168  1.00  0.00    -0.357 N 
HETATM    3  O   UNL     1      22.775  51.051  50.053  1.00  0.00    -0.268 OA
HETATM    4  H   UNL     1      22.974  49.178  47.550  1.00  0.00     0.162 HD
ENDROOT
BRANCH   1   5
HETATM    5  C   UNL     1      21.022  49.864  49.044  1.00  0.00     0.048 A 
HETATM    6  C   UNL     1      19.869  50.615  48.729  1.00  0.00     0.009 A 
HETATM    7  C   UNL     1      18.709  49.859  48.449  1.00  0.00     0.070 A 
HETATM    8  C   UNL     1      19.773  52.032  48.693  1.00  0.00     0.015 A 
HETATM    9  N   UNL     1      18.662  48.518  48.521  1.00  0.00    -0.231 NA
HETATM   10  C   UNL     1      17.550  50.518  48.069  1.00  0.00     0.032 A 
HETATM   11  C   UNL     1      19.743  47.819  48.894  1.00  0.00     0.129 A 
HETATM   12  C   UNL     1      20.919  48.476  49.205  1.00  0.00     0.068 A 
HETATM   13  C   UNL     1      17.482  51.909  47.981  1.00  0.00     0.002 A 
HETATM   14  C   UNL     1      18.594  52.670  48.310  1.00  0.00     0.001 A 
BRANCH  11  15
HETATM   15  N   UNL     1      19.727  46.411  49.056  1.00  0.00    -0.341 N 
HETATM   16  H   UNL     1      19.994  46.181  50.011  1.00  0.00     0.167 HD
BRANCH  15  17
HETATM   17  C   UNL     1      20.298  45.413  48.229  1.00  0.00     0.034 A 
HETATM   18  C   UNL     1      21.533  44.806  48.479  1.00  0.00     0.048 A 
HETATM   19  C   UNL     1      21.997  43.762  47.669  1.00  0.00     0.002 A 
HETATM   20  C   UNL     1      21.208  43.302  46.611  1.00  0.00     0.018 A 
HETATM   21  C   UNL     1      19.973  43.892  46.353  1.00  0.00     0.004 A 
HETATM   22  C   UNL     1      19.522  44.935  47.161  1.00  0.00     0.029 A 
BRANCH  19  23
HETATM   23  S   UNL     1      23.565  42.997  48.045  1.00  0.00    -0.134 SA
HETATM   24  C   UNL     1      23.504  41.616  46.875  1.00  0.00     0.095 C 
ENDBRANCH  19  23
ENDBRANCH  15  17
ENDBRANCH  11  15
ENDBRANCH   1   5
BRANCH   2  25
HETATM   25  C   UNL     1      24.767  49.752  48.404  1.00  0.00     0.124 C 
BRANCH  25  26
HETATM   26  C   UNL     1      25.343  48.558  49.184  1.00  0.00     0.047 C 
BRANCH  26  27
HETATM   27  C   UNL     1      24.479  47.501  49.886  1.00  0.00     0.236 C 
BRANCH  27  28
HETATM   28  N   UNL     1      25.026  46.077  50.041  1.00  0.00    -0.071 N 
HETATM   29  H   UNL     1      24.712  45.553  49.214  1.00  0.00     0.279 HD
HETATM   30  C   UNL     1      26.549  46.136  49.956  1.00  0.00     0.235 C 
HETATM   31  C   UNL     1      27.191  44.767  50.162  1.00  0.00     0.032 C 
HETATM   32  C   UNL     1      26.720  44.067  51.447  1.00  0.00    -0.007 C 
HETATM   33  C   UNL     1      25.199  43.951  51.357  1.00  0.00     0.032 C 
HETATM   34  C   UNL     1      24.529  45.308  51.229  1.00  0.00     0.235 C 
BRANCH  32  35
HETATM   35  C   UNL     1      27.237  44.807  52.707  1.00  0.00     0.043 C 
BRANCH  35  36
HETATM   36  C   UNL     1      28.419  44.177  53.404  1.00  0.00    -0.058 A 
HETATM   37  C   UNL     1      29.206  43.224  52.749  1.00  0.00     0.007 A 
HETATM   38  C   UNL     1      30.335  42.689  53.376  1.00  0.00     0.001 A 
HETATM   39  C   UNL     1      30.686  43.095  54.662  1.00  0.00     0.000 A 
HETATM   40  C   UNL     1      29.904  44.032  55.329  1.00  0.00     0.001 A 
HETATM   41  C   UNL     1      28.775  44.563  54.705  1.00  0.00     0.007 A 
ENDBRANCH  35  36
ENDBRANCH  32  35
ENDBRANCH  27  28
ENDBRANCH  26  27
ENDBRANCH  25  26
ENDBRANCH   2  25
TORSDOF 10
ENDMDL
MODEL 7
REMARK VINA RESULT:      -9.8      2.123      3.296
REMARK  10 active torsions:
REMARK  status: ('A' for Active; 'I' for Inactive)
REMARK    1  A    between atoms: S_2  and  C_3 
REMARK    2  A    between atoms: C_5  and  N_6 
REMARK    3  A    between atoms: N_6  and  C_7 
REMARK    4  A    between atoms: C_11  and  C_12 
REMARK       I    between atoms: C_12  and  N_13 
REMARK    5  A    between atoms: N_13  and  C_14 
REMARK    6  A    between atoms: C_14  and  C_15 
REMARK    7  A    between atoms: C_15  and  C_16 
REMARK    8  A    between atoms: C_16  and  N_17 
REMARK    9  A    between atoms: C_21  and  C_22 
REMARK   10  A    between atoms: C_22  and  C_23 
ROOT
HETATM    1  C   UNL     1      24.050  43.702  49.864  1.00  0.00     0.252 C 
HETATM    2  N   UNL     1      25.176  42.987  49.511  1.00  0.00    -0.357 N 
HETATM    3  O   UNL     1      22.922  43.329  49.562  1.00  0.00    -0.268 OA
HETATM    4  H   UNL     1      26.049  43.490  49.628  1.00  0.00     0.162 HD
ENDROOT
BRANCH   1   5
HETATM    5  C   UNL     1      24.220  45.066  50.456  1.00  0.00     0.048 A 
HETATM    6  C   UNL     1      24.779  45.377  51.714  1.00  0.00     0.009 A 
HETATM    7  C   UNL     1      25.107  46.736  51.914  1.00  0.00     0.070 A 
HETATM    8  C   UNL     1      25.013  44.465  52.778  1.00  0.00     0.015 A 
HETATM    9  N   UNL     1      24.866  47.699  51.008  1.00  0.00    -0.231 NA
HETATM   10  C   UNL     1      25.719  47.115  53.098  1.00  0.00     0.032 A 
HETATM   11  C   UNL     1      24.266  47.404  49.846  1.00  0.00     0.129 A 
HETATM   12  C   UNL     1      23.893  46.102  49.571  1.00  0.00     0.068 A 
HETATM   13  C   UNL     1      25.997  46.201  54.115  1.00  0.00     0.002 A 
HETATM   14  C   UNL     1      25.628  44.874  53.961  1.00  0.00     0.001 A 
BRANCH  11  15
HETATM   15  N   UNL     1      23.925  48.391  48.888  1.00  0.00    -0.341 N 
HETATM   16  H   UNL     1      24.706  49.035  48.777  1.00  0.00     0.167 HD
BRANCH  15  17
HETATM   17  C   UNL     1      22.747  49.171  48.793  1.00  0.00     0.034 A 
HETATM   18  C   UNL     1      21.507  48.776  49.302  1.00  0.00     0.048 A 
HETATM   19  C   UNL     1      20.402  49.636  49.252  1.00  0.00     0.002 A 
HETATM   20  C   UNL     1      20.544  50.915  48.709  1.00  0.00     0.018 A 
HETATM   21  C   UNL     1      21.776  51.327  48.204  1.00  0.00     0.004 A 
HETATM   22  C   UNL     1      22.867  50.462  48.251  1.00  0.00     0.029 A 
BRANCH  19  23
HETATM   23  S   UNL     1      18.847  49.099  49.943  1.00  0.00    -0.134 SA
HETATM   24  C   UNL     1      17.958  48.729  48.408  1.00  0.00     0.095 C 
ENDBRANCH  19  23
ENDBRANCH  15  17
ENDBRANCH  11  15
ENDBRANCH   1   5
BRANCH   2  25
HETATM   25  C   UNL     1      25.237  42.018  48.426  1.00  0.00     0.124 C 
BRANCH  25  26
HETATM   26  C   UNL     1      26.322  40.929  48.372  1.00  0.00     0.047 C 
BRANCH  26  27
HETATM   27  C   UNL     1      27.643  41.003  49.150  1.00  0.00     0.236 C 
BRANCH  27  28
HETATM   28  N   UNL     1      27.629  40.762  50.665  1.00  0.00    -0.071 N 
HETATM   29  H   UNL     1      26.948  40.010  50.833  1.00  0.00     0.279 HD
HETATM   30  C   UNL     1      28.989  40.205  51.074  1.00  0.00     0.235 C 
HETATM   31  C   UNL     1      29.093  39.990  52.581  1.00  0.00     0.032 C 
HETATM   32  C   UNL     1      28.722  41.239  53.396  1.00  0.00    -0.007 C 
HETATM   33  C   UNL     1      27.298  41.623  52.995  1.00  0.00     0.032 C 
HETATM   34  C   UNL     1      27.184  41.919  51.509  1.00  0.00     0.235 C 
BRANCH  32  35
HETATM   35  C   UNL     1      29.771  42.363  53.205  1.00  0.00     0.043 C 
BRANCH  35  36
HETATM   36  C   UNL     1      29.915  43.333  54.352  1.00  0.00    -0.058 A 
HETATM   37  C   UNL     1      30.856  43.106  55.363  1.00  0.00     0.007 A 
HETATM   38  C   UNL     1      31.028  44.038  56.390  1.00  0.00     0.001 A 
HETATM   39  C   UNL     1      30.262  45.201  56.422  1.00  0.00     0.000 A 
HETATM   40  C   UNL     1      29.313  45.432  55.432  1.00  0.00     0.001 A 
HETATM   41  C   UNL     1      29.139  44.501  54.409  1.00  0.00     0.007 A 
ENDBRANCH  35  36
ENDBRANCH  32  35
ENDBRANCH  27  28
ENDBRANCH  26  27
ENDBRANCH  25  26
ENDBRANCH   2  25
TORSDOF 10
ENDMDL
MODEL 8
REMARK VINA RESULT:      -9.8      2.476      3.470
REMARK  10 active torsions:
REMARK  status: ('A' for Active; 'I' for Inactive)
REMARK    1  A    between atoms: S_2  and  C_3 
REMARK    2  A    between atoms: C_5  and  N_6 
REMARK    3  A    between atoms: N_6  and  C_7 
REMARK    4  A    between atoms: C_11  and  C_12 
REMARK       I    between atoms: C_12  and  N_13 
REMARK    5  A    between atoms: N_13  and  C_14 
REMARK    6  A    between atoms: C_14  and  C_15 
REMARK    7  A    between atoms: C_15  and  C_16 
REMARK    8  A    between atoms: C_16  and  N_17 
REMARK    9  A    between atoms: C_21  and  C_22 
REMARK   10  A    between atoms: C_22  and  C_23 
ROOT
HETATM    1  C   UNL     1      21.398  46.073  48.269  1.00  0.00     0.252 C 
HETATM    2  N   UNL     1      21.659  45.220  49.321  1.00  0.00    -0.357 N 
HETATM    3  O   UNL     1      21.594  45.748  47.103  1.00  0.00    -0.268 OA
HETATM    4  H   UNL     1      21.659  45.663  50.233  1.00  0.00     0.162 HD
ENDROOT
BRANCH   1   5
HETATM    5  C   UNL     1      21.055  47.500  48.567  1.00  0.00     0.048 A 
HETATM    6  C   UNL     1      21.930  48.606  48.519  1.00  0.00     0.009 A 
HETATM    7  C   UNL     1      21.309  49.874  48.542  1.00  0.00     0.070 A 
HETATM    8  C   UNL     1      23.349  48.553  48.475  1.00  0.00     0.015 A 
HETATM    9  N   UNL     1      19.981  50.048  48.654  1.00  0.00    -0.231 NA
HETATM   10  C   UNL     1      22.093  51.012  48.435  1.00  0.00     0.032 A 
HETATM   11  C   UNL     1      19.165  48.991  48.774  1.00  0.00     0.129 A 
HETATM   12  C   UNL     1      19.686  47.711  48.780  1.00  0.00     0.068 A 
HETATM   13  C   UNL     1      23.483  50.948  48.334  1.00  0.00     0.002 A 
HETATM   14  C   UNL     1      24.115  49.714  48.370  1.00  0.00     0.001 A 
BRANCH  11  15
HETATM   15  N   UNL     1      17.767  49.120  48.967  1.00  0.00    -0.341 N 
HETATM   16  H   UNL     1      17.302  48.283  48.620  1.00  0.00     0.167 HD
BRANCH  15  17
HETATM   17  C   UNL     1      16.920  50.209  48.647  1.00  0.00     0.034 A 
HETATM   18  C   UNL     1      16.658  51.274  49.514  1.00  0.00     0.048 A 
HETATM   19  C   UNL     1      15.881  52.363  49.100  1.00  0.00     0.002 A 
HETATM   20  C   UNL     1      15.378  52.400  47.796  1.00  0.00     0.018 A 
HETATM   21  C   UNL     1      15.635  51.349  46.919  1.00  0.00     0.004 A 
HETATM   22  C   UNL     1      16.404  50.266  47.342  1.00  0.00     0.029 A 
BRANCH  19  23
HETATM   23  S   UNL     1      15.600  53.714  50.230  1.00  0.00    -0.134 SA
HETATM   24  C   UNL     1      13.797  53.834  50.102  1.00  0.00     0.095 C 
ENDBRANCH  19  23
ENDBRANCH  15  17
ENDBRANCH  11  15
ENDBRANCH   1   5
BRANCH   2  25
HETATM   25  C   UNL     1      22.563  44.080  49.259  1.00  0.00     0.124 C 
BRANCH  25  26
HETATM   26  C   UNL     1      23.983  44.138  49.848  1.00  0.00     0.047 C 
BRANCH  26  27
HETATM   27  C   UNL     1      24.635  45.424  50.373  1.00  0.00     0.236 C 
BRANCH  27  28
HETATM   28  N   UNL     1      24.849  45.585  51.884  1.00  0.00    -0.071 N 
HETATM   29  H   UNL     1      23.942  45.865  52.278  1.00  0.00     0.279 HD
HETATM   30  C   UNL     1      25.165  44.213  52.472  1.00  0.00     0.235 C 
HETATM   31  C   UNL     1      25.456  44.282  53.969  1.00  0.00     0.032 C 
HETATM   32  C   UNL     1      26.536  45.315  54.327  1.00  0.00    -0.007 C 
HETATM   33  C   UNL     1      26.048  46.665  53.802  1.00  0.00     0.032 C 
HETATM   34  C   UNL     1      25.825  46.646  52.299  1.00  0.00     0.235 C 
BRANCH  32  35
HETATM   35  C   UNL     1      27.924  44.880  53.795  1.00  0.00     0.043 C 
BRANCH  35  36
HETATM   36  C   UNL     1      28.985  44.637  54.841  1.00  0.00    -0.058 A 
HETATM   37  C   UNL     1      29.772  43.480  54.801  1.00  0.00     0.007 A 
HETATM   38  C   UNL     1      30.794  43.289  55.736  1.00  0.00     0.001 A 
HETATM   39  C   UNL     1      31.036  44.245  56.721  1.00  0.00     0.000 A 
HETATM   40  C   UNL     1      30.252  45.391  56.780  1.00  0.00     0.001 A 
HETATM   41  C   UNL     1      29.230  45.581  55.850  1.00  0.00     0.007 A 
ENDBRANCH  35  36
ENDBRANCH  32  35
ENDBRANCH  27  28
ENDBRANCH  26  27
ENDBRANCH  25  26
ENDBRANCH   2  25
TORSDOF 10
ENDMDL
MODEL 9
REMARK VINA RESULT:      -9.5      3.527      5.164
REMARK  10 active torsions:
REMARK  status: ('A' for Active; 'I' for Inactive)
REMARK    1  A    between atoms: S_2  and  C_3 
REMARK    2  A    between atoms: C_5  and  N_6 
REMARK    3  A    between atoms: N_6  and  C_7 
REMARK    4  A    between atoms: C_11  and  C_12 
REMARK       I    between atoms: C_12  and  N_13 
REMARK    5  A    between atoms: N_13  and  C_14 
REMARK    6  A    between atoms: C_14  and  C_15 
REMARK    7  A    between atoms: C_15  and  C_16 
REMARK    8  A    between atoms: C_16  and  N_17 
REMARK    9  A    between atoms: C_21  and  C_22 
REMARK   10  A    between atoms: C_22  and  C_23 
ROOT
HETATM    1  C   UNL     1      22.283  47.977  48.678  1.00  0.00     0.252 C 
HETATM    2  N   UNL     1      23.088  47.410  49.644  1.00  0.00    -0.357 N 
HETATM    3  O   UNL     1      22.746  48.571  47.711  1.00  0.00    -0.268 OA
HETATM    4  H   UNL     1      22.601  47.134  50.490  1.00  0.00     0.162 HD
ENDROOT
BRANCH   1   5
HETATM    5  C   UNL     1      20.806  48.042  48.918  1.00  0.00     0.048 A 
HETATM    6  C   UNL     1      20.054  49.189  49.250  1.00  0.00     0.009 A 
HETATM    7  C   UNL     1      18.654  49.056  49.125  1.00  0.00     0.070 A 
HETATM    8  C   UNL     1      20.573  50.429  49.711  1.00  0.00     0.015 A 
HETATM    9  N   UNL     1      18.047  47.912  48.766  1.00  0.00    -0.231 NA
HETATM   10  C   UNL     1      17.847  50.155  49.371  1.00  0.00     0.032 A 
HETATM   11  C   UNL     1      18.767  46.806  48.525  1.00  0.00     0.129 A 
HETATM   12  C   UNL     1      20.144  46.838  48.641  1.00  0.00     0.068 A 
HETATM   13  C   UNL     1      18.371  51.386  49.768  1.00  0.00     0.002 A 
HETATM   14  C   UNL     1      19.738  51.519  49.954  1.00  0.00     0.001 A 
BRANCH  11  15
HETATM   15  N   UNL     1      18.173  45.558  48.215  1.00  0.00    -0.341 N 
HETATM   16  H   UNL     1      18.437  44.876  48.924  1.00  0.00     0.167 HD
BRANCH  15  17
HETATM   17  C   UNL     1      18.152  44.863  46.980  1.00  0.00     0.034 A 
HETATM   18  C   UNL     1      17.136  44.993  46.030  1.00  0.00     0.048 A 
HETATM   19  C   UNL     1      17.223  44.344  44.792  1.00  0.00     0.002 A 
HETATM   20  C   UNL     1      18.350  43.575  44.490  1.00  0.00     0.018 A 
HETATM   21  C   UNL     1      19.374  43.440  45.425  1.00  0.00     0.004 A 
HETATM   22  C   UNL     1      19.276  44.084  46.657  1.00  0.00     0.029 A 
BRANCH  19  23
HETATM   23  S   UNL     1      15.916  44.565  43.597  1.00  0.00    -0.134 SA
HETATM   24  C   UNL     1      16.205  43.099  42.573  1.00  0.00     0.095 C 
ENDBRANCH  19  23
ENDBRANCH  15  17
ENDBRANCH  11  15
ENDBRANCH   1   5
BRANCH   2  25
HETATM   25  C   UNL     1      24.470  47.790  49.900  1.00  0.00     0.124 C 
BRANCH  25  26
HETATM   26  C   UNL     1      25.322  47.079  50.964  1.00  0.00     0.047 C 
BRANCH  26  27
HETATM   27  C   UNL     1      25.991  45.715  50.748  1.00  0.00     0.236 C 
BRANCH  27  28
HETATM   28  N   UNL     1      26.157  44.770  51.946  1.00  0.00    -0.071 N 
HETATM   29  H   UNL     1      25.358  44.123  51.918  1.00  0.00     0.279 HD
HETATM   30  C   UNL     1      27.402  43.919  51.715  1.00  0.00     0.235 C 
HETATM   31  C   UNL     1      27.686  42.986  52.889  1.00  0.00     0.032 C 
HETATM   32  C   UNL     1      27.738  43.715  54.241  1.00  0.00    -0.007 C 
HETATM   33  C   UNL     1      26.393  44.420  54.416  1.00  0.00     0.032 C 
HETATM   34  C   UNL     1      26.121  45.414  53.299  1.00  0.00     0.235 C 
BRANCH  32  35
HETATM   35  C   UNL     1      28.971  44.648  54.327  1.00  0.00     0.043 C 
BRANCH  35  36
HETATM   36  C   UNL     1      29.802  44.531  55.581  1.00  0.00    -0.058 A 
HETATM   37  C   UNL     1      30.721  43.486  55.731  1.00  0.00     0.007 A 
HETATM   38  C   UNL     1      31.532  43.416  56.867  1.00  0.00     0.001 A 
HETATM   39  C   UNL     1      31.431  44.383  57.866  1.00  0.00     0.000 A 
HETATM   40  C   UNL     1      30.511  45.418  57.736  1.00  0.00     0.001 A 
HETATM   41  C   UNL     1      29.700  45.486  56.604  1.00  0.00     0.007 A 
ENDBRANCH  35  36
ENDBRANCH  32  35
ENDBRANCH  27  28
ENDBRANCH  26  27
ENDBRANCH  25  26
ENDBRANCH   2  25
TORSDOF 10
ENDMDL
MODEL 10
REMARK VINA RESULT:      -9.5      3.363     11.226
REMARK  10 active torsions:
REMARK  status: ('A' for Active; 'I' for Inactive)
REMARK    1  A    between atoms: S_2  and  C_3 
REMARK    2  A    between atoms: C_5  and  N_6 
REMARK    3  A    between atoms: N_6  and  C_7 
REMARK    4  A    between atoms: C_11  and  C_12 
REMARK       I    between atoms: C_12  and  N_13 
REMARK    5  A    between atoms: N_13  and  C_14 
REMARK    6  A    between atoms: C_14  and  C_15 
REMARK    7  A    between atoms: C_15  and  C_16 
REMARK    8  A    between atoms: C_16  and  N_17 
REMARK    9  A    between atoms: C_21  and  C_22 
REMARK   10  A    between atoms: C_22  and  C_23 
ROOT
HETATM    1  C   UNL     1      26.282  43.523  51.091  1.00  0.00     0.252 C 
HETATM    2  N   UNL     1      26.469  44.202  49.904  1.00  0.00    -0.357 N 
HETATM    3  O   UNL     1      25.213  43.545  51.692  1.00  0.00    -0.268 OA
HETATM    4  H   UNL     1      27.437  44.283  49.613  1.00  0.00     0.162 HD
ENDROOT
BRANCH   1   5
HETATM    5  C   UNL     1      27.469  42.909  51.764  1.00  0.00     0.048 A 
HETATM    6  C   UNL     1      28.132  43.391  52.913  1.00  0.00     0.009 A 
HETATM    7  C   UNL     1      29.021  42.483  53.528  1.00  0.00     0.070 A 
HETATM    8  C   UNL     1      28.002  44.690  53.475  1.00  0.00     0.015 A 
HETATM    9  N   UNL     1      29.279  41.255  53.047  1.00  0.00    -0.231 NA
HETATM   10  C   UNL     1      29.665  42.857  54.697  1.00  0.00     0.032 A 
HETATM   11  C   UNL     1      28.700  40.834  51.913  1.00  0.00     0.129 A 
HETATM   12  C   UNL     1      27.829  41.664  51.232  1.00  0.00     0.068 A 
HETATM   13  C   UNL     1      29.486  44.115  55.273  1.00  0.00     0.002 A 
HETATM   14  C   UNL     1      28.663  45.041  54.651  1.00  0.00     0.001 A 
BRANCH  11  15
HETATM   15  N   UNL     1      28.991  39.579  51.324  1.00  0.00    -0.341 N 
HETATM   16  H   UNL     1      29.985  39.383  51.428  1.00  0.00     0.167 HD
BRANCH  15  17
HETATM   17  C   UNL     1      28.617  39.083  50.051  1.00  0.00     0.034 A 
HETATM   18  C   UNL     1      27.417  39.405  49.411  1.00  0.00     0.048 A 
HETATM   19  C   UNL     1      27.150  38.951  48.113  1.00  0.00     0.002 A 
HETATM   20  C   UNL     1      28.103  38.184  47.438  1.00  0.00     0.018 A 
HETATM   21  C   UNL     1      29.306  37.859  48.060  1.00  0.00     0.004 A 
HETATM   22  C   UNL     1      29.561  38.311  49.354  1.00  0.00     0.029 A 
BRANCH  19  23
HETATM   23  S   UNL     1      25.618  39.414  47.325  1.00  0.00    -0.134 SA
HETATM   24  C   UNL     1      25.089  40.724  48.460  1.00  0.00     0.095 C 
ENDBRANCH  19  23
ENDBRANCH  15  17
ENDBRANCH  11  15
ENDBRANCH   1   5
BRANCH   2  25
HETATM   25  C   UNL     1      25.660  45.326  49.455  1.00  0.00     0.124 C 
BRANCH  25  26
HETATM   26  C   UNL     1      25.394  46.544  50.355  1.00  0.00     0.047 C 
BRANCH  26  27
HETATM   27  C   UNL     1      25.551  47.998  49.888  1.00  0.00     0.236 C 
BRANCH  27  28
HETATM   28  N   UNL     1      24.595  48.543  48.819  1.00  0.00    -0.071 N 
HETATM   29  H   UNL     1      24.960  48.223  47.913  1.00  0.00     0.279 HD
HETATM   30  C   UNL     1      23.240  47.864  48.997  1.00  0.00     0.235 C 
HETATM   31  C   UNL     1      22.199  48.390  48.012  1.00  0.00     0.032 C 
HETATM   32  C   UNL     1      22.074  49.922  48.027  1.00  0.00    -0.007 C 
HETATM   33  C   UNL     1      23.460  50.483  47.710  1.00  0.00     0.032 C 
HETATM   34  C   UNL     1      24.502  50.037  48.723  1.00  0.00     0.235 C 
BRANCH  32  35
HETATM   35  C   UNL     1      21.467  50.420  49.363  1.00  0.00     0.043 C 
BRANCH  35  36
HETATM   36  C   UNL     1      20.114  51.084  49.266  1.00  0.00    -0.058 A 
HETATM   37  C   UNL     1      19.089  50.742  50.155  1.00  0.00     0.007 A 
HETATM   38  C   UNL     1      17.858  51.403  50.100  1.00  0.00     0.001 A 
HETATM   39  C   UNL     1      17.637  52.405  49.157  1.00  0.00     0.000 A 
HETATM   40  C   UNL     1      18.643  52.744  48.259  1.00  0.00     0.001 A 
HETATM   41  C   UNL     1      19.870  52.082  48.311  1.00  0.00     0.007 A 
ENDBRANCH  35  36
ENDBRANCH  32  35
ENDBRANCH  27  28
ENDBRANCH  26  27
ENDBRANCH  25  26
ENDBRANCH   2  25
TORSDOF 10
ENDMDL
