MODEL 1
REMARK VINA RESULT:      -9.5      0.000      0.000
REMARK  8 active torsions:
REMARK  status: ('A' for Active; 'I' for Inactive)
REMARK    1  A    between atoms: N_5  and  C_7 
REMARK    2  A    between atoms: C_7  and  C_8 
REMARK    3  A    between atoms: N_9  and  C_10 
REMARK    4  A    between atoms: C_14  and  N_15 
REMARK    5  A    between atoms: C_18  and  C_19 
REMARK       I    between atoms: C_19  and  N_20 
REMARK    6  A    between atoms: N_20  and  N_21 
REMARK    7  A    between atoms: C_22  and  C_23 
REMARK    8  A    between atoms: C_24  and  O_25 
ROOT
HETATM    1  C   UNL     1      26.385  45.118  51.614  1.00  0.00     0.096 A 
HETATM    2  N   UNL     1      27.101  44.123  50.946  1.00  0.00    -0.215 N 
HETATM    3  N   UNL     1      27.151  44.446  49.624  1.00  0.00     0.012 NA
HETATM    4  N   UNL     1      26.421  45.526  49.404  1.00  0.00    -0.152 NA
HETATM    5  C   UNL     1      25.926  45.947  50.600  1.00  0.00     0.170 A 
ENDROOT
BRANCH   5   6
HETATM    6  C   UNL     1      25.046  47.098  50.754  1.00  0.00     0.293 C 
HETATM    7  N   UNL     1      24.372  47.443  49.599  1.00  0.00    -0.242 N 
HETATM    8  H   UNL     1      24.515  46.900  48.748  1.00  0.00     0.192 HD
HETATM    9  O   UNL     1      24.945  47.650  51.849  1.00  0.00    -0.264 OA
BRANCH   7  10
HETATM   10  N   UNL     1      23.548  48.527  49.588  1.00  0.00    -0.183 NA
HETATM   11  C   UNL     1      22.461  48.393  48.890  1.00  0.00     0.153 C 
BRANCH  11  12
HETATM   12  C   UNL     1      21.485  49.496  48.771  1.00  0.00     0.017 A 
HETATM   13  C   UNL     1      21.386  50.512  49.731  1.00  0.00     0.077 A 
HETATM   14  C   UNL     1      20.458  51.539  49.573  1.00  0.00     0.039 A 
HETATM   15  C   UNL     1      19.621  51.556  48.456  1.00  0.00     0.022 A 
HETATM   16  C   UNL     1      19.719  50.542  47.503  1.00  0.00     0.012 A 
HETATM   17 BR   UNL     1      18.583  50.566  45.992  1.00  0.00    -0.051 Br
HETATM   18  C   UNL     1      20.647  49.511  47.651  1.00  0.00     0.034 A 
BRANCH  13  19
HETATM   19  O   UNL     1      22.171  50.566  50.850  1.00  0.00    -0.360 OA
HETATM   20  H   UNL     1      22.460  49.652  51.059  1.00  0.00     0.217 HD
ENDBRANCH  13  19
ENDBRANCH  11  12
ENDBRANCH   7  10
ENDBRANCH   5   6
BRANCH   1  21
HETATM   21  C   UNL     1      26.237  45.267  53.081  1.00  0.00     0.296 C 
BRANCH  21  22
HETATM   22  N   UNL     1      27.525  45.575  53.811  1.00  0.00    -0.066 N 
HETATM   23  C   UNL     1      27.523  46.925  54.479  1.00  0.00     0.235 C 
HETATM   24  C   UNL     1      28.879  47.197  55.113  1.00  0.00     0.032 C 
HETATM   25  C   UNL     1      29.314  46.101  56.091  1.00  0.00    -0.016 C 
HETATM   26  C   UNL     1      28.499  46.141  57.387  1.00  0.00     0.010 C 
HETATM   27  C   UNL     1      29.235  44.731  55.408  1.00  0.00     0.032 C 
HETATM   28  C   UNL     1      27.881  44.460  54.767  1.00  0.00     0.235 C 
HETATM   29  H   UNL     1      28.266  45.563  53.080  1.00  0.00     0.280 HD
ENDBRANCH  21  22
ENDBRANCH   1  21
BRANCH   2  30
HETATM   30  C   UNL     1      27.662  42.924  51.444  1.00  0.00     0.225 A 
HETATM   31  N   UNL     1      28.874  42.929  52.003  1.00  0.00    -0.081 NA
HETATM   32  O   UNL     1      29.069  41.601  52.392  1.00  0.00    -0.103 OA
HETATM   33  N   UNL     1      27.962  40.822  52.083  1.00  0.00    -0.083 NA
HETATM   34  C   UNL     1      27.090  41.641  51.500  1.00  0.00     0.201 A 
BRANCH  34  35
HETATM   35  N   UNL     1      25.881  41.268  51.051  1.00  0.00    -0.379 N 
HETATM   36  H   UNL     1      25.710  41.189  50.052  1.00  0.00     0.158 HD
HETATM   37  H   UNL     1      25.158  40.860  51.640  1.00  0.00     0.158 HD
ENDBRANCH  34  35
ENDBRANCH   2  30
TORSDOF 8
ENDMDL
MODEL 2
REMARK VINA RESULT:      -9.3      4.337      9.256
REMARK  8 active torsions:
REMARK  status: ('A' for Active; 'I' for Inactive)
REMARK    1  A    between atoms: N_5  and  C_7 
REMARK    2  A    between atoms: C_7  and  C_8 
REMARK    3  A    between atoms: N_9  and  C_10 
REMARK    4  A    between atoms: C_14  and  N_15 
REMARK    5  A    between atoms: C_18  and  C_19 
REMARK       I    between atoms: C_19  and  N_20 
REMARK    6  A    between atoms: N_20  and  N_21 
REMARK    7  A    between atoms: C_22  and  C_23 
REMARK    8  A    between atoms: C_24  and  O_25 
ROOT
HETATM    1  C   UNL     1      22.380  46.109  48.571  1.00  0.00     0.096 A 
HETATM    2  N   UNL     1      21.338  45.291  48.130  1.00  0.00    -0.215 N 
HETATM    3  N   UNL     1      21.428  44.096  48.779  1.00  0.00     0.012 NA
HETATM    4  N   UNL     1      22.523  44.077  49.520  1.00  0.00    -0.152 NA
HETATM    5  C   UNL     1      23.134  45.287  49.397  1.00  0.00     0.170 A 
ENDROOT
BRANCH   5   6
HETATM    6  C   UNL     1      24.390  45.631  50.048  1.00  0.00     0.293 C 
HETATM    7  N   UNL     1      24.315  45.662  51.427  1.00  0.00    -0.242 N 
HETATM    8  H   UNL     1      23.433  45.449  51.890  1.00  0.00     0.192 HD
HETATM    9  O   UNL     1      25.395  45.842  49.368  1.00  0.00    -0.264 OA
BRANCH   7  10
HETATM   10  N   UNL     1      25.406  46.012  52.162  1.00  0.00    -0.183 NA
HETATM   11  C   UNL     1      25.722  45.191  53.116  1.00  0.00     0.153 C 
BRANCH  11  12
HETATM   12  C   UNL     1      26.870  45.455  54.008  1.00  0.00     0.017 A 
HETATM   13  C   UNL     1      26.961  46.618  54.783  1.00  0.00     0.077 A 
HETATM   14  C   UNL     1      28.057  46.821  55.619  1.00  0.00     0.039 A 
HETATM   15  C   UNL     1      29.070  45.864  55.683  1.00  0.00     0.022 A 
HETATM   16  C   UNL     1      28.980  44.708  54.908  1.00  0.00     0.012 A 
HETATM   17 BR   UNL     1      30.356  43.414  54.994  1.00  0.00    -0.051 Br
HETATM   18  C   UNL     1      27.885  44.494  54.070  1.00  0.00     0.034 A 
BRANCH  13  19
HETATM   19  O   UNL     1      26.008  47.600  54.777  1.00  0.00    -0.360 OA
HETATM   20  H   UNL     1      25.129  47.166  54.800  1.00  0.00     0.217 HD
ENDBRANCH  13  19
ENDBRANCH  11  12
ENDBRANCH   7  10
ENDBRANCH   5   6
BRANCH   1  21
HETATM   21  C   UNL     1      22.562  47.548  48.268  1.00  0.00     0.296 C 
BRANCH  21  22
HETATM   22  N   UNL     1      21.858  48.483  49.226  1.00  0.00    -0.066 N 
HETATM   23  C   UNL     1      22.480  49.853  49.287  1.00  0.00     0.235 C 
HETATM   24  C   UNL     1      21.773  50.702  50.333  1.00  0.00     0.032 C 
HETATM   25  C   UNL     1      20.261  50.795  50.107  1.00  0.00    -0.016 C 
HETATM   26  C   UNL     1      19.920  51.677  48.902  1.00  0.00     0.010 C 
HETATM   27  C   UNL     1      19.666  49.389  49.975  1.00  0.00     0.032 C 
HETATM   28  C   UNL     1      20.376  48.535  48.933  1.00  0.00     0.235 C 
HETATM   29  H   UNL     1      21.942  48.034  50.162  1.00  0.00     0.280 HD
ENDBRANCH  21  22
ENDBRANCH   1  21
BRANCH   2  30
HETATM   30  C   UNL     1      20.351  45.535  47.147  1.00  0.00     0.225 A 
HETATM   31  N   UNL     1      20.707  45.861  45.903  1.00  0.00    -0.081 NA
HETATM   32  O   UNL     1      19.489  45.990  45.229  1.00  0.00    -0.103 OA
HETATM   33  N   UNL     1      18.421  45.716  46.071  1.00  0.00    -0.083 NA
HETATM   34  C   UNL     1      18.953  45.431  47.257  1.00  0.00     0.201 A 
BRANCH  34  35
HETATM   35  N   UNL     1      18.244  45.107  48.351  1.00  0.00    -0.379 N 
HETATM   36  H   UNL     1      17.662  44.273  48.352  1.00  0.00     0.158 HD
HETATM   37  H   UNL     1      18.393  45.524  49.267  1.00  0.00     0.158 HD
ENDBRANCH  34  35
ENDBRANCH   2  30
TORSDOF 8
ENDMDL
MODEL 3
REMARK VINA RESULT:      -9.0      2.446      3.364
REMARK  8 active torsions:
REMARK  status: ('A' for Active; 'I' for Inactive)
REMARK    1  A    between atoms: N_5  and  C_7 
REMARK    2  A    between atoms: C_7  and  C_8 
REMARK    3  A    between atoms: N_9  and  C_10 
REMARK    4  A    between atoms: C_14  and  N_15 
REMARK    5  A    between atoms: C_18  and  C_19 
REMARK       I    between atoms: C_19  and  N_20 
REMARK    6  A    between atoms: N_20  and  N_21 
REMARK    7  A    between atoms: C_22  and  C_23 
REMARK    8  A    between atoms: C_24  and  O_25 
ROOT
HETATM    1  C   UNL     1      26.063  42.605  49.688  1.00  0.00     0.096 A 
HETATM    2  N   UNL     1      26.098  41.367  49.046  1.00  0.00    -0.215 N 
HETATM    3  N   UNL     1      24.900  41.171  48.427  1.00  0.00     0.012 NA
HETATM    4  N   UNL     1      24.080  42.163  48.730  1.00  0.00    -0.152 NA
HETATM    5  C   UNL     1      24.759  43.045  49.514  1.00  0.00     0.170 A 
ENDROOT
BRANCH   5   6
HETATM    6  C   UNL     1      24.170  44.254  50.071  1.00  0.00     0.293 C 
HETATM    7  N   UNL     1      24.088  45.300  49.173  1.00  0.00    -0.242 N 
HETATM    8  H   UNL     1      24.421  45.174  48.218  1.00  0.00     0.192 HD
HETATM    9  O   UNL     1      23.782  44.265  51.240  1.00  0.00    -0.264 OA
BRANCH   7  10
HETATM   10  N   UNL     1      23.598  46.506  49.572  1.00  0.00    -0.183 NA
HETATM   11  C   UNL     1      22.822  47.102  48.719  1.00  0.00     0.153 C 
BRANCH  11  12
HETATM   12  C   UNL     1      22.236  48.427  49.010  1.00  0.00     0.017 A 
HETATM   13  C   UNL     1      23.027  49.558  49.247  1.00  0.00     0.077 A 
HETATM   14  C   UNL     1      22.432  50.790  49.508  1.00  0.00     0.039 A 
HETATM   15  C   UNL     1      21.041  50.899  49.536  1.00  0.00     0.022 A 
HETATM   16  C   UNL     1      20.254  49.771  49.303  1.00  0.00     0.012 A 
HETATM   17 BR   UNL     1      18.369  49.921  49.344  1.00  0.00    -0.051 Br
HETATM   18  C   UNL     1      20.841  48.534  49.039  1.00  0.00     0.034 A 
BRANCH  13  19
HETATM   19  O   UNL     1      24.395  49.532  49.235  1.00  0.00    -0.360 OA
HETATM   20  H   UNL     1      24.690  48.876  49.903  1.00  0.00     0.217 HD
ENDBRANCH  13  19
ENDBRANCH  11  12
ENDBRANCH   7  10
ENDBRANCH   5   6
BRANCH   1  21
HETATM   21  C   UNL     1      27.204  43.300  50.332  1.00  0.00     0.296 C 
BRANCH  21  22
HETATM   22  N   UNL     1      27.441  42.908  51.773  1.00  0.00    -0.066 N 
HETATM   23  C   UNL     1      28.497  41.847  51.936  1.00  0.00     0.235 C 
HETATM   24  C   UNL     1      28.614  41.446  53.400  1.00  0.00     0.032 C 
HETATM   25  C   UNL     1      28.882  42.635  54.328  1.00  0.00    -0.016 C 
HETATM   26  C   UNL     1      30.311  43.164  54.173  1.00  0.00     0.010 C 
HETATM   27  C   UNL     1      27.837  43.730  54.087  1.00  0.00     0.032 C 
HETATM   28  C   UNL     1      27.714  44.129  52.623  1.00  0.00     0.235 C 
HETATM   29  H   UNL     1      26.531  42.532  52.111  1.00  0.00     0.280 HD
ENDBRANCH  21  22
ENDBRANCH   1  21
BRANCH   2  30
HETATM   30  C   UNL     1      27.117  40.384  49.029  1.00  0.00     0.225 A 
HETATM   31  N   UNL     1      28.272  40.624  48.406  1.00  0.00    -0.081 NA
HETATM   32  O   UNL     1      29.018  39.463  48.627  1.00  0.00    -0.103 OA
HETATM   33  N   UNL     1      28.310  38.553  49.399  1.00  0.00    -0.083 NA
HETATM   34  C   UNL     1      27.134  39.124  49.651  1.00  0.00     0.201 A 
BRANCH  34  35
HETATM   35  N   UNL     1      26.156  38.560  50.377  1.00  0.00    -0.379 N 
HETATM   36  H   UNL     1      25.182  38.761  50.164  1.00  0.00     0.158 HD
HETATM   37  H   UNL     1      26.299  37.778  51.012  1.00  0.00     0.158 HD
ENDBRANCH  34  35
ENDBRANCH   2  30
TORSDOF 8
ENDMDL
MODEL 4
REMARK VINA RESULT:      -8.8      4.082      9.552
REMARK  8 active torsions:
REMARK  status: ('A' for Active; 'I' for Inactive)
REMARK    1  A    between atoms: N_5  and  C_7 
REMARK    2  A    between atoms: C_7  and  C_8 
REMARK    3  A    between atoms: N_9  and  C_10 
REMARK    4  A    between atoms: C_14  and  N_15 
REMARK    5  A    between atoms: C_18  and  C_19 
REMARK       I    between atoms: C_19  and  N_20 
REMARK    6  A    between atoms: N_20  and  N_21 
REMARK    7  A    between atoms: C_22  and  C_23 
REMARK    8  A    between atoms: C_24  and  O_25 
ROOT
HETATM    1  C   UNL     1      22.746  46.141  48.691  1.00  0.00     0.096 A 
HETATM    2  N   UNL     1      21.769  45.349  48.086  1.00  0.00    -0.215 N 
HETATM    3  N   UNL     1      21.707  44.163  48.754  1.00  0.00     0.012 NA
HETATM    4  N   UNL     1      22.656  44.122  49.673  1.00  0.00    -0.152 NA
HETATM    5  C   UNL     1      23.318  45.311  49.644  1.00  0.00     0.170 A 
ENDROOT
BRANCH   5   6
HETATM    6  C   UNL     1      24.455  45.627  50.498  1.00  0.00     0.293 C 
HETATM    7  N   UNL     1      25.335  44.576  50.668  1.00  0.00    -0.242 N 
HETATM    8  H   UNL     1      25.154  43.686  50.207  1.00  0.00     0.192 HD
HETATM    9  O   UNL     1      24.568  46.756  50.975  1.00  0.00    -0.264 OA
BRANCH   7  10
HETATM   10  N   UNL     1      26.421  44.719  51.477  1.00  0.00    -0.183 NA
HETATM   11  C   UNL     1      26.850  43.627  52.031  1.00  0.00     0.153 C 
BRANCH  11  12
HETATM   12  C   UNL     1      28.006  43.636  52.951  1.00  0.00     0.017 A 
HETATM   13  C   UNL     1      29.073  42.736  52.819  1.00  0.00     0.077 A 
HETATM   14  C   UNL     1      30.148  42.788  53.703  1.00  0.00     0.039 A 
HETATM   15  C   UNL     1      30.164  43.737  54.726  1.00  0.00     0.022 A 
HETATM   16  C   UNL     1      29.100  44.629  54.858  1.00  0.00     0.012 A 
HETATM   17 BR   UNL     1      29.123  45.913  56.246  1.00  0.00    -0.051 Br
HETATM   18  C   UNL     1      28.020  44.588  53.976  1.00  0.00     0.034 A 
BRANCH  13  19
HETATM   19  O   UNL     1      29.130  41.780  51.843  1.00  0.00    -0.360 OA
HETATM   20  H   UNL     1      28.341  41.204  51.938  1.00  0.00     0.217 HD
ENDBRANCH  13  19
ENDBRANCH  11  12
ENDBRANCH   7  10
ENDBRANCH   5   6
BRANCH   1  21
HETATM   21  C   UNL     1      23.026  47.569  48.408  1.00  0.00     0.296 C 
BRANCH  21  22
HETATM   22  N   UNL     1      22.235  48.541  49.255  1.00  0.00    -0.066 N 
HETATM   23  C   UNL     1      22.812  49.932  49.260  1.00  0.00     0.235 C 
HETATM   24  C   UNL     1      22.016  50.824  50.201  1.00  0.00     0.032 C 
HETATM   25  C   UNL     1      20.518  50.852  49.876  1.00  0.00    -0.016 C 
HETATM   26  C   UNL     1      20.230  51.641  48.595  1.00  0.00     0.010 C 
HETATM   27  C   UNL     1      19.975  49.422  49.803  1.00  0.00     0.032 C 
HETATM   28  C   UNL     1      20.774  48.525  48.867  1.00  0.00     0.235 C 
HETATM   29  H   UNL     1      22.272  48.158  50.222  1.00  0.00     0.280 HD
ENDBRANCH  21  22
ENDBRANCH   1  21
BRANCH   2  30
HETATM   30  C   UNL     1      20.975  45.606  46.944  1.00  0.00     0.225 A 
HETATM   31  N   UNL     1      21.529  46.112  45.840  1.00  0.00    -0.081 NA
HETATM   32  O   UNL     1      20.463  46.196  44.940  1.00  0.00    -0.103 OA
HETATM   33  N   UNL     1      19.290  45.718  45.508  1.00  0.00    -0.083 NA
HETATM   34  C   UNL     1      19.607  45.350  46.747  1.00  0.00     0.201 A 
BRANCH  34  35
HETATM   35  N   UNL     1      18.740  44.829  47.630  1.00  0.00    -0.379 N 
HETATM   36  H   UNL     1      18.935  44.882  48.627  1.00  0.00     0.158 HD
HETATM   37  H   UNL     1      17.790  44.551  47.396  1.00  0.00     0.158 HD
ENDBRANCH  34  35
ENDBRANCH   2  30
TORSDOF 8
ENDMDL
MODEL 5
REMARK VINA RESULT:      -8.8      4.567      9.067
REMARK  8 active torsions:
REMARK  status: ('A' for Active; 'I' for Inactive)
REMARK    1  A    between atoms: N_5  and  C_7 
REMARK    2  A    between atoms: C_7  and  C_8 
REMARK    3  A    between atoms: N_9  and  C_10 
REMARK    4  A    between atoms: C_14  and  N_15 
REMARK    5  A    between atoms: C_18  and  C_19 
REMARK       I    between atoms: C_19  and  N_20 
REMARK    6  A    between atoms: N_20  and  N_21 
REMARK    7  A    between atoms: C_22  and  C_23 
REMARK    8  A    between atoms: C_24  and  O_25 
ROOT
HETATM    1  C   UNL     1      24.156  44.183  48.863  1.00  0.00     0.096 A 
HETATM    2  N   UNL     1      23.019  44.952  48.607  1.00  0.00    -0.215 N 
HETATM    3  N   UNL     1      23.261  46.226  49.026  1.00  0.00     0.012 NA
HETATM    4  N   UNL     1      24.438  46.278  49.625  1.00  0.00    -0.152 NA
HETATM    5  C   UNL     1      24.999  45.040  49.556  1.00  0.00     0.170 A 
ENDROOT
BRANCH   5   6
HETATM    6  C   UNL     1      26.290  44.701  50.137  1.00  0.00     0.293 C 
HETATM    7  N   UNL     1      26.239  44.430  51.491  1.00  0.00    -0.242 N 
HETATM    8  H   UNL     1      25.348  44.475  51.982  1.00  0.00     0.192 HD
HETATM    9  O   UNL     1      27.292  44.657  49.423  1.00  0.00    -0.264 OA
BRANCH   7  10
HETATM   10  N   UNL     1      27.382  44.140  52.172  1.00  0.00    -0.183 NA
HETATM   11  C   UNL     1      27.421  44.561  53.399  1.00  0.00     0.153 C 
BRANCH  11  12
HETATM   12  C   UNL     1      28.608  44.337  54.251  1.00  0.00     0.017 A 
HETATM   13  C   UNL     1      29.584  43.383  53.935  1.00  0.00     0.077 A 
HETATM   14  C   UNL     1      30.693  43.213  54.761  1.00  0.00     0.039 A 
HETATM   15  C   UNL     1      30.831  43.993  55.910  1.00  0.00     0.022 A 
HETATM   16  C   UNL     1      29.857  44.940  56.224  1.00  0.00     0.012 A 
HETATM   17 BR   UNL     1      30.046  45.994  57.783  1.00  0.00    -0.051 Br
HETATM   18  C   UNL     1      28.745  45.120  55.402  1.00  0.00     0.034 A 
BRANCH  13  19
HETATM   19  O   UNL     1      29.520  42.583  52.827  1.00  0.00    -0.360 OA
HETATM   20  H   UNL     1      29.134  41.722  53.100  1.00  0.00     0.217 HD
ENDBRANCH  13  19
ENDBRANCH  11  12
ENDBRANCH   7  10
ENDBRANCH   5   6
BRANCH   1  21
HETATM   21  C   UNL     1      24.402  42.793  48.412  1.00  0.00     0.296 C 
BRANCH  21  22
HETATM   22  N   UNL     1      25.605  42.133  49.050  1.00  0.00    -0.066 N 
HETATM   23  C   UNL     1      25.246  41.213  50.186  1.00  0.00     0.235 C 
HETATM   24  C   UNL     1      26.509  40.659  50.830  1.00  0.00     0.032 C 
HETATM   25  C   UNL     1      27.435  39.960  49.829  1.00  0.00    -0.016 C 
HETATM   26  C   UNL     1      26.864  38.615  49.371  1.00  0.00     0.010 C 
HETATM   27  C   UNL     1      27.722  40.892  48.647  1.00  0.00     0.032 C 
HETATM   28  C   UNL     1      26.460  41.452  48.006  1.00  0.00     0.235 C 
HETATM   29  H   UNL     1      26.185  42.914  49.420  1.00  0.00     0.280 HD
ENDBRANCH  21  22
ENDBRANCH   1  21
BRANCH   2  30
HETATM   30  C   UNL     1      21.767  44.566  48.072  1.00  0.00     0.225 A 
HETATM   31  N   UNL     1      21.703  43.646  47.108  1.00  0.00    -0.081 NA
HETATM   32  O   UNL     1      20.333  43.511  46.866  1.00  0.00    -0.103 OA
HETATM   33  N   UNL     1      19.594  44.334  47.704  1.00  0.00    -0.083 NA
HETATM   34  C   UNL     1      20.480  44.985  48.453  1.00  0.00     0.201 A 
BRANCH  34  35
HETATM   35  N   UNL     1      20.163  45.883  49.399  1.00  0.00    -0.379 N 
HETATM   36  H   UNL     1      19.243  45.864  49.831  1.00  0.00     0.158 HD
HETATM   37  H   UNL     1      20.844  46.473  49.872  1.00  0.00     0.158 HD
ENDBRANCH  34  35
ENDBRANCH   2  30
TORSDOF 8
ENDMDL
MODEL 6
REMARK VINA RESULT:      -8.7      3.965      8.784
REMARK  8 active torsions:
REMARK  status: ('A' for Active; 'I' for Inactive)
REMARK    1  A    between atoms: N_5  and  C_7 
REMARK    2  A    between atoms: C_7  and  C_8 
REMARK    3  A    between atoms: N_9  and  C_10 
REMARK    4  A    between atoms: C_14  and  N_15 
REMARK    5  A    between atoms: C_18  and  C_19 
REMARK       I    between atoms: C_19  and  N_20 
REMARK    6  A    between atoms: N_20  and  N_21 
REMARK    7  A    between atoms: C_22  and  C_23 
REMARK    8  A    between atoms: C_24  and  O_25 
ROOT
HETATM    1  C   UNL     1      24.597  45.753  49.894  1.00  0.00     0.096 A 
HETATM    2  N   UNL     1      23.714  46.709  49.389  1.00  0.00    -0.215 N 
HETATM    3  N   UNL     1      22.660  46.059  48.818  1.00  0.00     0.012 NA
HETATM    4  N   UNL     1      22.880  44.756  48.841  1.00  0.00    -0.152 NA
HETATM    5  C   UNL     1      24.064  44.541  49.476  1.00  0.00     0.170 A 
ENDROOT
BRANCH   5   6
HETATM    6  C   UNL     1      24.655  43.224  49.667  1.00  0.00     0.293 C 
HETATM    7  N   UNL     1      25.409  42.790  48.594  1.00  0.00    -0.242 N 
HETATM    8  H   UNL     1      25.510  43.384  47.773  1.00  0.00     0.192 HD
HETATM    9  O   UNL     1      24.475  42.619  50.724  1.00  0.00    -0.264 OA
BRANCH   7  10
HETATM   10  N   UNL     1      25.985  41.556  48.619  1.00  0.00    -0.183 NA
HETATM   11  C   UNL     1      27.236  41.532  48.962  1.00  0.00     0.153 C 
BRANCH  11  12
HETATM   12  C   UNL     1      27.994  40.265  49.012  1.00  0.00     0.017 A 
HETATM   13  C   UNL     1      28.666  39.841  50.166  1.00  0.00     0.077 A 
HETATM   14  C   UNL     1      29.360  38.633  50.170  1.00  0.00     0.039 A 
HETATM   15  C   UNL     1      29.391  37.843  49.021  1.00  0.00     0.022 A 
HETATM   16  C   UNL     1      28.724  38.268  47.872  1.00  0.00     0.012 A 
HETATM   17 BR   UNL     1      28.769  37.196  46.314  1.00  0.00    -0.051 Br
HETATM   18  C   UNL     1      28.024  39.474  47.858  1.00  0.00     0.034 A 
BRANCH  13  19
HETATM   19  O   UNL     1      28.681  40.558  51.330  1.00  0.00    -0.360 OA
HETATM   20  H   UNL     1      29.185  40.042  51.996  1.00  0.00     0.217 HD
ENDBRANCH  13  19
ENDBRANCH  11  12
ENDBRANCH   7  10
ENDBRANCH   5   6
BRANCH   1  21
HETATM   21  C   UNL     1      25.781  46.007  50.748  1.00  0.00     0.296 C 
BRANCH  21  22
HETATM   22  N   UNL     1      25.941  45.040  51.899  1.00  0.00    -0.066 N 
HETATM   23  C   UNL     1      27.298  44.387  51.944  1.00  0.00     0.235 C 
HETATM   24  C   UNL     1      27.349  43.366  53.072  1.00  0.00     0.032 C 
HETATM   25  C   UNL     1      26.980  43.960  54.435  1.00  0.00    -0.016 C 
HETATM   26  C   UNL     1      28.083  44.876  54.973  1.00  0.00     0.010 C 
HETATM   27  C   UNL     1      25.631  44.681  54.341  1.00  0.00     0.032 C 
HETATM   28  C   UNL     1      25.575  45.699  53.209  1.00  0.00     0.235 C 
HETATM   29  H   UNL     1      25.219  44.305  51.745  1.00  0.00     0.280 HD
ENDBRANCH  21  22
ENDBRANCH   1  21
BRANCH   2  30
HETATM   30  C   UNL     1      23.825  48.119  49.363  1.00  0.00     0.225 A 
HETATM   31  N   UNL     1      25.017  48.696  49.204  1.00  0.00    -0.081 NA
HETATM   32  O   UNL     1      24.729  50.064  49.199  1.00  0.00    -0.103 OA
HETATM   33  N   UNL     1      23.365  50.287  49.331  1.00  0.00    -0.083 NA
HETATM   34  C   UNL     1      22.805  49.084  49.429  1.00  0.00     0.201 A 
BRANCH  34  35
HETATM   35  N   UNL     1      21.487  48.868  49.569  1.00  0.00    -0.379 N 
HETATM   36  H   UNL     1      21.062  48.034  49.172  1.00  0.00     0.158 HD
HETATM   37  H   UNL     1      20.895  49.378  50.221  1.00  0.00     0.158 HD
ENDBRANCH  34  35
ENDBRANCH   2  30
TORSDOF 8
ENDMDL
MODEL 7
REMARK VINA RESULT:      -8.7      4.101      8.876
REMARK  8 active torsions:
REMARK  status: ('A' for Active; 'I' for Inactive)
REMARK    1  A    between atoms: N_5  and  C_7 
REMARK    2  A    between atoms: C_7  and  C_8 
REMARK    3  A    between atoms: N_9  and  C_10 
REMARK    4  A    between atoms: C_14  and  N_15 
REMARK    5  A    between atoms: C_18  and  C_19 
REMARK       I    between atoms: C_19  and  N_20 
REMARK    6  A    between atoms: N_20  and  N_21 
REMARK    7  A    between atoms: C_22  and  C_23 
REMARK    8  A    between atoms: C_24  and  O_25 
ROOT
HETATM    1  C   UNL     1      22.715  47.555  48.880  1.00  0.00     0.096 A 
HETATM    2  N   UNL     1      21.612  48.404  48.770  1.00  0.00    -0.215 N 
HETATM    3  N   UNL     1      21.937  49.602  49.333  1.00  0.00     0.012 NA
HETATM    4  N   UNL     1      23.137  49.521  49.882  1.00  0.00    -0.152 NA
HETATM    5  C   UNL     1      23.628  48.276  49.636  1.00  0.00     0.170 A 
ENDROOT
BRANCH   5   6
HETATM    6  C   UNL     1      24.921  47.805  50.113  1.00  0.00     0.293 C 
HETATM    7  N   UNL     1      24.866  47.175  51.342  1.00  0.00    -0.242 N 
HETATM    8  H   UNL     1      23.972  47.075  51.819  1.00  0.00     0.192 HD
HETATM    9  O   UNL     1      25.926  47.968  49.422  1.00  0.00    -0.264 OA
BRANCH   7  10
HETATM   10  N   UNL     1      26.009  46.723  51.928  1.00  0.00    -0.183 NA
HETATM   11  C   UNL     1      25.937  46.523  53.208  1.00  0.00     0.153 C 
BRANCH  11  12
HETATM   12  C   UNL     1      27.107  46.053  53.979  1.00  0.00     0.017 A 
HETATM   13  C   UNL     1      27.611  46.762  55.077  1.00  0.00     0.077 A 
HETATM   14  C   UNL     1      28.711  46.277  55.781  1.00  0.00     0.039 A 
HETATM   15  C   UNL     1      29.315  45.081  55.391  1.00  0.00     0.022 A 
HETATM   16  C   UNL     1      28.814  44.378  54.296  1.00  0.00     0.012 A 
HETATM   17 BR   UNL     1      29.636  42.759  53.767  1.00  0.00    -0.051 Br
HETATM   18  C   UNL     1      27.712  44.854  53.586  1.00  0.00     0.034 A 
BRANCH  13  19
HETATM   19  O   UNL     1      27.073  47.939  55.521  1.00  0.00    -0.360 OA
HETATM   20  H   UNL     1      26.205  48.058  55.079  1.00  0.00     0.217 HD
ENDBRANCH  13  19
ENDBRANCH  11  12
ENDBRANCH   7  10
ENDBRANCH   5   6
BRANCH   1  21
HETATM   21  C   UNL     1      22.871  46.223  48.248  1.00  0.00     0.296 C 
BRANCH  21  22
HETATM   22  N   UNL     1      23.308  45.129  49.198  1.00  0.00    -0.066 N 
HETATM   23  C   UNL     1      22.311  44.006  49.310  1.00  0.00     0.235 C 
HETATM   24  C   UNL     1      22.779  42.994  50.346  1.00  0.00     0.032 C 
HETATM   25  C   UNL     1      24.185  42.454  50.063  1.00  0.00    -0.016 C 
HETATM   26  C   UNL     1      24.197  41.501  48.864  1.00  0.00     0.010 C 
HETATM   27  C   UNL     1      25.163  43.620  49.879  1.00  0.00     0.032 C 
HETATM   28  C   UNL     1      24.693  44.637  48.848  1.00  0.00     0.235 C 
HETATM   29  H   UNL     1      23.401  45.590  50.126  1.00  0.00     0.280 HD
ENDBRANCH  21  22
ENDBRANCH   1  21
BRANCH   2  30
HETATM   30  C   UNL     1      20.323  48.149  48.247  1.00  0.00     0.225 A 
HETATM   31  N   UNL     1      20.102  48.231  46.934  1.00  0.00    -0.081 NA
HETATM   32  O   UNL     1      18.753  47.890  46.800  1.00  0.00    -0.103 OA
HETATM   33  N   UNL     1      18.189  47.587  48.031  1.00  0.00    -0.083 NA
HETATM   34  C   UNL     1      19.161  47.744  48.927  1.00  0.00     0.201 A 
BRANCH  34  35
HETATM   35  N   UNL     1      19.018  47.542  50.247  1.00  0.00    -0.379 N 
HETATM   36  H   UNL     1      18.473  46.754  50.586  1.00  0.00     0.158 HD
HETATM   37  H   UNL     1      19.582  48.006  50.955  1.00  0.00     0.158 HD
ENDBRANCH  34  35
ENDBRANCH   2  30
TORSDOF 8
ENDMDL
MODEL 8
REMARK VINA RESULT:      -8.6      4.299      8.132
REMARK  8 active torsions:
REMARK  status: ('A' for Active; 'I' for Inactive)
REMARK    1  A    between atoms: N_5  and  C_7 
REMARK    2  A    between atoms: C_7  and  C_8 
REMARK    3  A    between atoms: N_9  and  C_10 
REMARK    4  A    between atoms: C_14  and  N_15 
REMARK    5  A    between atoms: C_18  and  C_19 
REMARK       I    between atoms: C_19  and  N_20 
REMARK    6  A    between atoms: N_20  and  N_21 
REMARK    7  A    between atoms: C_22  and  C_23 
REMARK    8  A    between atoms: C_24  and  O_25 
ROOT
HETATM    1  C   UNL     1      22.739  46.149  48.569  1.00  0.00     0.096 A 
HETATM    2  N   UNL     1      21.474  46.447  48.059  1.00  0.00    -0.215 N 
HETATM    3  N   UNL     1      21.227  47.770  48.273  1.00  0.00     0.012 NA
HETATM    4  N   UNL     1      22.215  48.295  48.979  1.00  0.00    -0.152 NA
HETATM    5  C   UNL     1      23.143  47.323  49.189  1.00  0.00     0.170 A 
ENDROOT
BRANCH   5   6
HETATM    6  C   UNL     1      24.364  47.519  49.958  1.00  0.00     0.293 C 
HETATM    7  N   UNL     1      24.292  47.042  51.252  1.00  0.00    -0.242 N 
HETATM    8  H   UNL     1      23.436  46.598  51.580  1.00  0.00     0.192 HD
HETATM    9  O   UNL     1      25.342  48.051  49.430  1.00  0.00    -0.264 OA
BRANCH   7  10
HETATM   10  N   UNL     1      25.348  47.199  52.097  1.00  0.00    -0.183 NA
HETATM   11  C   UNL     1      25.515  46.246  52.962  1.00  0.00     0.153 C 
BRANCH  11  12
HETATM   12  C   UNL     1      26.608  46.295  53.955  1.00  0.00     0.017 A 
HETATM   13  C   UNL     1      26.725  47.334  54.888  1.00  0.00     0.077 A 
HETATM   14  C   UNL     1      27.765  47.333  55.814  1.00  0.00     0.039 A 
HETATM   15  C   UNL     1      28.699  46.296  55.811  1.00  0.00     0.022 A 
HETATM   16  C   UNL     1      28.584  45.264  54.880  1.00  0.00     0.012 A 
HETATM   17 BR   UNL     1      29.851  43.861  54.878  1.00  0.00    -0.051 Br
HETATM   18  C   UNL     1      27.543  45.254  53.951  1.00  0.00     0.034 A 
BRANCH  13  19
HETATM   19  O   UNL     1      25.849  48.383  54.954  1.00  0.00    -0.360 OA
HETATM   20  H   UNL     1      25.702  48.710  54.041  1.00  0.00     0.217 HD
ENDBRANCH  13  19
ENDBRANCH  11  12
ENDBRANCH   7  10
ENDBRANCH   5   6
BRANCH   1  21
HETATM   21  C   UNL     1      23.484  44.879  48.397  1.00  0.00     0.296 C 
BRANCH  21  22
HETATM   22  N   UNL     1      24.349  44.497  49.577  1.00  0.00    -0.066 N 
HETATM   23  C   UNL     1      23.831  43.302  50.333  1.00  0.00     0.235 C 
HETATM   24  C   UNL     1      24.702  43.036  51.552  1.00  0.00     0.032 C 
HETATM   25  C   UNL     1      26.185  42.866  51.204  1.00  0.00    -0.016 C 
HETATM   26  C   UNL     1      26.452  41.533  50.499  1.00  0.00     0.010 C 
HETATM   27  C   UNL     1      26.664  44.060  50.372  1.00  0.00     0.032 C 
HETATM   28  C   UNL     1      25.791  44.332  49.155  1.00  0.00     0.235 C 
HETATM   29  H   UNL     1      24.336  45.325  50.208  1.00  0.00     0.280 HD
ENDBRANCH  21  22
ENDBRANCH   1  21
BRANCH   2  30
HETATM   30  C   UNL     1      20.513  45.594  47.467  1.00  0.00     0.225 A 
HETATM   31  N   UNL     1      19.870  44.689  48.207  1.00  0.00    -0.081 NA
HETATM   32  O   UNL     1      19.001  44.073  47.303  1.00  0.00    -0.103 OA
HETATM   33  N   UNL     1      19.117  44.632  46.038  1.00  0.00    -0.083 NA
HETATM   34  C   UNL     1      20.050  45.576  46.140  1.00  0.00     0.201 A 
BRANCH  34  35
HETATM   35  N   UNL     1      20.456  46.357  45.125  1.00  0.00    -0.379 N 
HETATM   36  H   UNL     1      20.695  47.331  45.296  1.00  0.00     0.158 HD
HETATM   37  H   UNL     1      20.739  46.002  44.215  1.00  0.00     0.158 HD
ENDBRANCH  34  35
ENDBRANCH   2  30
TORSDOF 8
ENDMDL
MODEL 9
REMARK VINA RESULT:      -8.6      2.522      3.434
REMARK  8 active torsions:
REMARK  status: ('A' for Active; 'I' for Inactive)
REMARK    1  A    between atoms: N_5  and  C_7 
REMARK    2  A    between atoms: C_7  and  C_8 
REMARK    3  A    between atoms: N_9  and  C_10 
REMARK    4  A    between atoms: C_14  and  N_15 
REMARK    5  A    between atoms: C_18  and  C_19 
REMARK       I    between atoms: C_19  and  N_20 
REMARK    6  A    between atoms: N_20  and  N_21 
REMARK    7  A    between atoms: C_22  and  C_23 
REMARK    8  A    between atoms: C_24  and  O_25 
ROOT
HETATM    1  C   UNL     1      25.170  42.989  49.361  1.00  0.00     0.096 A 
HETATM    2  N   UNL     1      25.558  41.683  49.060  1.00  0.00    -0.215 N 
HETATM    3  N   UNL     1      24.503  41.046  48.479  1.00  0.00     0.012 NA
HETATM    4  N   UNL     1      23.446  41.839  48.494  1.00  0.00    -0.152 NA
HETATM    5  C   UNL     1      23.819  43.026  49.044  1.00  0.00     0.170 A 
ENDROOT
BRANCH   5   6
HETATM    6  C   UNL     1      22.911  44.144  49.256  1.00  0.00     0.293 C 
HETATM    7  N   UNL     1      22.975  45.110  48.270  1.00  0.00    -0.242 N 
HETATM    8  H   UNL     1      23.616  44.992  47.488  1.00  0.00     0.192 HD
HETATM    9  O   UNL     1      22.165  44.151  50.235  1.00  0.00    -0.264 OA
BRANCH   7  10
HETATM   10  N   UNL     1      22.210  46.232  48.364  1.00  0.00    -0.183 NA
HETATM   11  C   UNL     1      22.866  47.350  48.437  1.00  0.00     0.153 C 
BRANCH  11  12
HETATM   12  C   UNL     1      22.165  48.644  48.565  1.00  0.00     0.017 A 
HETATM   13  C   UNL     1      22.688  49.832  48.036  1.00  0.00     0.077 A 
HETATM   14  C   UNL     1      21.988  51.028  48.170  1.00  0.00     0.039 A 
HETATM   15  C   UNL     1      20.763  51.047  48.837  1.00  0.00     0.022 A 
HETATM   16  C   UNL     1      20.245  49.865  49.367  1.00  0.00     0.012 A 
HETATM   17 BR   UNL     1      18.585  49.894  50.272  1.00  0.00    -0.051 Br
HETATM   18  C   UNL     1      20.937  48.661  49.234  1.00  0.00     0.034 A 
BRANCH  13  19
HETATM   19  O   UNL     1      23.880  49.894  47.368  1.00  0.00    -0.360 OA
HETATM   20  H   UNL     1      24.286  49.001  47.393  1.00  0.00     0.217 HD
ENDBRANCH  13  19
ENDBRANCH  11  12
ENDBRANCH   7  10
ENDBRANCH   5   6
BRANCH   1  21
HETATM   21  C   UNL     1      26.048  44.085  49.835  1.00  0.00     0.296 C 
BRANCH  21  22
HETATM   22  N   UNL     1      25.595  44.735  51.124  1.00  0.00    -0.066 N 
HETATM   23  C   UNL     1      25.861  43.891  52.342  1.00  0.00     0.235 C 
HETATM   24  C   UNL     1      25.300  44.571  53.582  1.00  0.00     0.032 C 
HETATM   25  C   UNL     1      25.828  45.996  53.776  1.00  0.00    -0.016 C 
HETATM   26  C   UNL     1      27.295  46.002  54.218  1.00  0.00     0.010 C 
HETATM   27  C   UNL     1      25.612  46.810  52.496  1.00  0.00     0.032 C 
HETATM   28  C   UNL     1      26.167  46.128  51.253  1.00  0.00     0.235 C 
HETATM   29  H   UNL     1      24.567  44.864  51.022  1.00  0.00     0.280 HD
ENDBRANCH  21  22
ENDBRANCH   1  21
BRANCH   2  30
HETATM   30  C   UNL     1      26.779  41.018  49.323  1.00  0.00     0.225 A 
HETATM   31  N   UNL     1      27.720  40.941  48.381  1.00  0.00    -0.081 NA
HETATM   32  O   UNL     1      28.765  40.256  49.007  1.00  0.00    -0.103 OA
HETATM   33  N   UNL     1      28.447  39.952  50.323  1.00  0.00    -0.083 NA
HETATM   34  C   UNL     1      27.219  40.426  50.521  1.00  0.00     0.201 A 
BRANCH  34  35
HETATM   35  N   UNL     1      26.546  40.334  51.679  1.00  0.00    -0.379 N 
HETATM   36  H   UNL     1      25.598  40.696  51.747  1.00  0.00     0.158 HD
HETATM   37  H   UNL     1      26.834  39.746  52.457  1.00  0.00     0.158 HD
ENDBRANCH  34  35
ENDBRANCH   2  30
TORSDOF 8
ENDMDL
MODEL 10
REMARK VINA RESULT:      -8.5     18.900     21.917
REMARK  8 active torsions:
REMARK  status: ('A' for Active; 'I' for Inactive)
REMARK    1  A    between atoms: N_5  and  C_7 
REMARK    2  A    between atoms: C_7  and  C_8 
REMARK    3  A    between atoms: N_9  and  C_10 
REMARK    4  A    between atoms: C_14  and  N_15 
REMARK    5  A    between atoms: C_18  and  C_19 
REMARK       I    between atoms: C_19  and  N_20 
REMARK    6  A    between atoms: N_20  and  N_21 
REMARK    7  A    between atoms: C_22  and  C_23 
REMARK    8  A    between atoms: C_24  and  O_25 
ROOT
HETATM    1  C   UNL     1      38.294  43.615  64.944  1.00  0.00     0.096 A 
HETATM    2  N   UNL     1      36.915  43.731  64.759  1.00  0.00    -0.215 N 
HETATM    3  N   UNL     1      36.693  44.600  63.733  1.00  0.00     0.012 NA
HETATM    4  N   UNL     1      37.843  45.116  63.334  1.00  0.00    -0.152 NA
HETATM    5  C   UNL     1      38.837  44.545  64.068  1.00  0.00     0.170 A 
ENDROOT
BRANCH   5   6
HETATM    6  C   UNL     1      40.245  44.886  63.932  1.00  0.00     0.293 C 
HETATM    7  N   UNL     1      40.572  46.125  64.449  1.00  0.00    -0.242 N 
HETATM    8  H   UNL     1      39.850  46.699  64.880  1.00  0.00     0.192 HD
HETATM    9  O   UNL     1      41.022  44.086  63.411  1.00  0.00    -0.264 OA
BRANCH   7  10
HETATM   10  N   UNL     1      41.848  46.590  64.351  1.00  0.00    -0.183 NA
HETATM   11  C   UNL     1      42.549  46.530  65.441  1.00  0.00     0.153 C 
BRANCH  11  12
HETATM   12  C   UNL     1      43.942  47.020  65.487  1.00  0.00     0.017 A 
HETATM   13  C   UNL     1      44.883  46.689  64.502  1.00  0.00     0.077 A 
HETATM   14  C   UNL     1      46.183  47.182  64.580  1.00  0.00     0.039 A 
HETATM   15  C   UNL     1      46.553  48.008  65.642  1.00  0.00     0.022 A 
HETATM   16  C   UNL     1      45.616  48.334  66.623  1.00  0.00     0.012 A 
HETATM   17 BR   UNL     1      46.120  49.451  68.063  1.00  0.00    -0.051 Br
HETATM   18  C   UNL     1      44.311  47.847  66.553  1.00  0.00     0.034 A 
BRANCH  13  19
HETATM   19  O   UNL     1      44.596  45.888  63.431  1.00  0.00    -0.360 OA
HETATM   20  H   UNL     1      43.707  45.499  63.575  1.00  0.00     0.217 HD
ENDBRANCH  13  19
ENDBRANCH  11  12
ENDBRANCH   7  10
ENDBRANCH   5   6
BRANCH   1  21
HETATM   21  C   UNL     1      38.989  42.647  65.826  1.00  0.00     0.296 C 
BRANCH  21  22
HETATM   22  N   UNL     1      39.760  41.573  65.091  1.00  0.00    -0.066 N 
HETATM   23  C   UNL     1      40.872  40.973  65.911  1.00  0.00     0.235 C 
HETATM   24  C   UNL     1      41.653  39.969  65.075  1.00  0.00     0.032 C 
HETATM   25  C   UNL     1      40.767  38.876  64.468  1.00  0.00    -0.016 C 
HETATM   26  C   UNL     1      40.280  37.885  65.529  1.00  0.00     0.010 C 
HETATM   27  C   UNL     1      39.603  39.516  63.704  1.00  0.00     0.032 C 
HETATM   28  C   UNL     1      38.823  40.525  64.535  1.00  0.00     0.235 C 
HETATM   29  H   UNL     1      40.172  42.048  64.261  1.00  0.00     0.280 HD
ENDBRANCH  21  22
ENDBRANCH   1  21
BRANCH   2  30
HETATM   30  C   UNL     1      35.852  43.149  65.489  1.00  0.00     0.225 A 
HETATM   31  N   UNL     1      35.565  41.855  65.341  1.00  0.00    -0.081 NA
HETATM   32  O   UNL     1      34.503  41.645  66.225  1.00  0.00    -0.103 OA
HETATM   33  N   UNL     1      34.182  42.810  66.907  1.00  0.00    -0.083 NA
HETATM   34  C   UNL     1      35.019  43.741  66.454  1.00  0.00     0.201 A 
BRANCH  34  35
HETATM   35  N   UNL     1      35.034  45.017  66.871  1.00  0.00    -0.379 N 
HETATM   36  H   UNL     1      35.918  45.504  66.992  1.00  0.00     0.158 HD
HETATM   37  H   UNL     1      34.212  45.617  66.889  1.00  0.00     0.158 HD
ENDBRANCH  34  35
ENDBRANCH   2  30
TORSDOF 8
ENDMDL
