MODEL 1
REMARK VINA RESULT:      -9.9      0.000      0.000
REMARK  4 active torsions:
REMARK  status: ('A' for Active; 'I' for Inactive)
REMARK    1  A    between atoms: C_7  and  C_8 
REMARK    2  A    between atoms: C_8  and  N_9 
REMARK    3  A    between atoms: N_9  and  C_10 
REMARK    4  A    between atoms: N_16  and  C_17 
ROOT
HETATM    1  C   UNL     1      26.579  43.988  51.475  1.00  0.00     0.141 A 
HETATM    2  N   UNL     1      26.383  43.242  50.359  1.00  0.00    -0.224 NA
HETATM    3  C   UNL     1      25.785  43.813  49.293  1.00  0.00     0.237 A 
HETATM    4  N   UNL     1      25.319  45.061  49.183  1.00  0.00    -0.221 NA
HETATM    5  C   UNL     1      25.499  45.779  50.310  1.00  0.00     0.186 A 
HETATM    6  C   UNL     1      26.107  45.309  51.464  1.00  0.00     0.077 A 
HETATM    7  N   UNL     1      25.134  47.099  50.564  1.00  0.00    -0.041 N 
HETATM    8  N   UNL     1      25.494  47.479  51.838  1.00  0.00    -0.162 NA
HETATM    9  C   UNL     1      26.062  46.392  52.358  1.00  0.00     0.159 A 
ENDROOT
BRANCH   1  10
HETATM   10  N   UNL     1      27.195  43.435  52.589  1.00  0.00    -0.367 N 
HETATM   11  H   UNL     1      26.696  43.567  53.458  1.00  0.00     0.161 HD
BRANCH  10  12
HETATM   12  C   UNL     1      28.645  43.559  52.715  1.00  0.00     0.199 C 
BRANCH  12  13
HETATM   13  C   UNL     1      29.136  44.005  54.054  1.00  0.00     0.123 A 
HETATM   14  N   UNL     1      28.553  45.059  54.712  1.00  0.00    -0.341 N 
HETATM   15  C   UNL     1      29.192  45.230  55.911  1.00  0.00     0.063 A 
HETATM   16  H   UNL     1      27.791  45.609  54.336  1.00  0.00     0.167 HD
HETATM   17  C   UNL     1      30.175  44.246  55.919  1.00  0.00     0.091 A 
HETATM   18  C   UNL     1      29.001  46.139  56.952  1.00  0.00     0.032 A 
HETATM   19  C   UNL     1      31.046  44.138  57.021  1.00  0.00    -0.031 A 
HETATM   20  N   UNL     1      30.121  43.494  54.766  1.00  0.00    -0.231 NA
HETATM   21  C   UNL     1      32.140  43.115  57.104  1.00  0.00     0.050 C 
HETATM   22  C   UNL     1      30.863  45.050  58.082  1.00  0.00     0.009 A 
HETATM   23  C   UNL     1      29.862  46.025  58.046  1.00  0.00     0.003 A 
ENDBRANCH  12  13
ENDBRANCH  10  12
ENDBRANCH   1  10
BRANCH   7  24
HETATM   24  C   UNL     1      24.470  48.014  49.673  1.00  0.00     0.750 A 
HETATM   25  N   UNL     1      25.171  49.045  49.152  1.00  0.00    -0.073 NA
HETATM   26  C   UNL     1      24.513  49.876  48.322  1.00  0.00     0.138 A 
HETATM   27  C   UNL     1      23.188  49.724  47.989  1.00  0.00     0.040 A 
HETATM   28  C   UNL     1      22.555  48.651  48.563  1.00  0.00     0.138 A 
HETATM   29  N   UNL     1      23.163  47.790  49.398  1.00  0.00    -0.073 NA
ENDBRANCH   7  24
TORSDOF 4
ENDMDL
MODEL 2
REMARK VINA RESULT:      -9.8      1.306      2.316
REMARK  4 active torsions:
REMARK  status: ('A' for Active; 'I' for Inactive)
REMARK    1  A    between atoms: C_7  and  C_8 
REMARK    2  A    between atoms: C_8  and  N_9 
REMARK    3  A    between atoms: N_9  and  C_10 
REMARK    4  A    between atoms: N_16  and  C_17 
ROOT
HETATM    1  C   UNL     1      24.915  43.846  51.071  1.00  0.00     0.141 A 
HETATM    2  N   UNL     1      24.365  43.198  50.013  1.00  0.00    -0.224 NA
HETATM    3  C   UNL     1      23.845  43.927  49.004  1.00  0.00     0.237 A 
HETATM    4  N   UNL     1      23.775  45.258  48.903  1.00  0.00    -0.221 NA
HETATM    5  C   UNL     1      24.303  45.884  49.975  1.00  0.00     0.186 A 
HETATM    6  C   UNL     1      24.874  45.248  51.067  1.00  0.00     0.077 A 
HETATM    7  N   UNL     1      24.395  47.252  50.220  1.00  0.00    -0.041 N 
HETATM    8  N   UNL     1      25.007  47.501  51.429  1.00  0.00    -0.162 NA
HETATM    9  C   UNL     1      25.273  46.291  51.919  1.00  0.00     0.159 A 
ENDROOT
BRANCH   1  10
HETATM   10  N   UNL     1      25.463  43.128  52.125  1.00  0.00    -0.367 N 
HETATM   11  H   UNL     1      25.176  43.438  53.043  1.00  0.00     0.161 HD
BRANCH  10  12
HETATM   12  C   UNL     1      26.869  42.740  52.045  1.00  0.00     0.199 C 
BRANCH  12  13
HETATM   13  C   UNL     1      27.757  43.330  53.093  1.00  0.00     0.123 A 
HETATM   14  N   UNL     1      28.845  42.645  53.574  1.00  0.00    -0.341 N 
HETATM   15  C   UNL     1      29.476  43.429  54.502  1.00  0.00     0.063 A 
HETATM   16  H   UNL     1      29.098  41.710  53.282  1.00  0.00     0.167 HD
HETATM   17  C   UNL     1      28.708  44.588  54.552  1.00  0.00     0.091 A 
HETATM   18  C   UNL     1      30.615  43.224  55.281  1.00  0.00     0.032 A 
HETATM   19  C   UNL     1      29.069  45.628  55.432  1.00  0.00    -0.031 A 
HETATM   20  N   UNL     1      27.653  44.512  53.669  1.00  0.00    -0.231 NA
HETATM   21  C   UNL     1      28.288  46.903  55.557  1.00  0.00     0.050 C 
HETATM   22  C   UNL     1      30.219  45.434  56.224  1.00  0.00     0.009 A 
HETATM   23  C   UNL     1      30.973  44.260  56.147  1.00  0.00     0.003 A 
ENDBRANCH  12  13
ENDBRANCH  10  12
ENDBRANCH   1  10
BRANCH   7  24
HETATM   24  C   UNL     1      23.940  48.328  49.380  1.00  0.00     0.750 A 
HETATM   25  N   UNL     1      22.614  48.476  49.165  1.00  0.00    -0.073 NA
HETATM   26  C   UNL     1      22.232  49.497  48.374  1.00  0.00     0.138 A 
HETATM   27  C   UNL     1      23.113  50.374  47.789  1.00  0.00     0.040 A 
HETATM   28  C   UNL     1      24.438  50.150  48.061  1.00  0.00     0.138 A 
HETATM   29  N   UNL     1      24.876  49.147  48.843  1.00  0.00    -0.073 NA
ENDBRANCH   7  24
TORSDOF 4
ENDMDL
MODEL 3
REMARK VINA RESULT:      -9.7      0.937      2.028
REMARK  4 active torsions:
REMARK  status: ('A' for Active; 'I' for Inactive)
REMARK    1  A    between atoms: C_7  and  C_8 
REMARK    2  A    between atoms: C_8  and  N_9 
REMARK    3  A    between atoms: N_9  and  C_10 
REMARK    4  A    between atoms: N_16  and  C_17 
ROOT
HETATM    1  C   UNL     1      26.591  45.000  52.713  1.00  0.00     0.141 A 
HETATM    2  N   UNL     1      26.262  45.769  53.782  1.00  0.00    -0.224 NA
HETATM    3  C   UNL     1      25.655  46.954  53.567  1.00  0.00     0.237 A 
HETATM    4  N   UNL     1      25.335  47.513  52.396  1.00  0.00    -0.221 NA
HETATM    5  C   UNL     1      25.694  46.748  51.344  1.00  0.00     0.186 A 
HETATM    6  C   UNL     1      26.312  45.510  51.436  1.00  0.00     0.077 A 
HETATM    7  N   UNL     1      25.530  47.010  49.987  1.00  0.00    -0.041 N 
HETATM    8  N   UNL     1      26.022  45.978  49.217  1.00  0.00    -0.162 NA
HETATM    9  C   UNL     1      26.492  45.102  50.103  1.00  0.00     0.159 A 
ENDROOT
BRANCH   1  10
HETATM   10  N   UNL     1      27.212  43.773  52.896  1.00  0.00    -0.367 N 
HETATM   11  H   UNL     1      26.760  43.164  53.565  1.00  0.00     0.161 HD
BRANCH  10  12
HETATM   12  C   UNL     1      28.671  43.734  52.954  1.00  0.00     0.199 C 
BRANCH  12  13
HETATM   13  C   UNL     1      29.270  44.084  54.278  1.00  0.00     0.123 A 
HETATM   14  N   UNL     1      28.858  45.192  54.975  1.00  0.00    -0.341 N 
HETATM   15  C   UNL     1      29.561  45.253  56.149  1.00  0.00     0.063 A 
HETATM   16  H   UNL     1      28.160  45.844  54.640  1.00  0.00     0.167 HD
HETATM   17  C   UNL     1      30.405  44.148  56.101  1.00  0.00     0.091 A 
HETATM   18  C   UNL     1      29.533  46.157  57.211  1.00  0.00     0.032 A 
HETATM   19  C   UNL     1      31.297  43.904  57.164  1.00  0.00    -0.031 A 
HETATM   20  N   UNL     1      30.206  43.433  54.940  1.00  0.00    -0.231 NA
HETATM   21  C   UNL     1      32.249  42.744  57.184  1.00  0.00     0.050 C 
HETATM   22  C   UNL     1      31.278  44.810  58.245  1.00  0.00     0.009 A 
HETATM   23  C   UNL     1      30.414  45.908  58.266  1.00  0.00     0.003 A 
ENDBRANCH  12  13
ENDBRANCH  10  12
ENDBRANCH   1  10
BRANCH   7  24
HETATM   24  C   UNL     1      24.937  48.173  49.381  1.00  0.00     0.750 A 
HETATM   25  N   UNL     1      23.604  48.361  49.492  1.00  0.00    -0.073 NA
HETATM   26  C   UNL     1      23.091  49.463  48.912  1.00  0.00     0.138 A 
HETATM   27  C   UNL     1      23.848  50.384  48.229  1.00  0.00     0.040 A 
HETATM   28  C   UNL     1      25.191  50.114  48.166  1.00  0.00     0.138 A 
HETATM   29  N   UNL     1      25.757  49.030  48.725  1.00  0.00    -0.073 NA
ENDBRANCH   7  24
TORSDOF 4
ENDMDL
MODEL 4
REMARK VINA RESULT:      -8.9      1.529      9.337
REMARK  4 active torsions:
REMARK  status: ('A' for Active; 'I' for Inactive)
REMARK    1  A    between atoms: C_7  and  C_8 
REMARK    2  A    between atoms: C_8  and  N_9 
REMARK    3  A    between atoms: N_9  and  C_10 
REMARK    4  A    between atoms: N_16  and  C_17 
ROOT
HETATM    1  C   UNL     1      25.974  45.558  52.747  1.00  0.00     0.141 A 
HETATM    2  N   UNL     1      26.032  44.229  52.480  1.00  0.00    -0.224 NA
HETATM    3  C   UNL     1      26.879  43.460  53.195  1.00  0.00     0.237 A 
HETATM    4  N   UNL     1      27.722  43.843  54.159  1.00  0.00    -0.221 NA
HETATM    5  C   UNL     1      27.669  45.170  54.392  1.00  0.00     0.186 A 
HETATM    6  C   UNL     1      26.836  46.062  53.733  1.00  0.00     0.077 A 
HETATM    7  N   UNL     1      28.404  45.919  55.308  1.00  0.00    -0.041 N 
HETATM    8  N   UNL     1      28.061  47.252  55.251  1.00  0.00    -0.162 NA
HETATM    9  C   UNL     1      27.133  47.313  54.298  1.00  0.00     0.159 A 
ENDROOT
BRANCH   1  10
HETATM   10  N   UNL     1      25.111  46.379  52.034  1.00  0.00    -0.367 N 
HETATM   11  H   UNL     1      24.149  46.355  52.346  1.00  0.00     0.161 HD
BRANCH  10  12
HETATM   12  C   UNL     1      25.261  46.453  50.583  1.00  0.00     0.199 C 
BRANCH  12  13
HETATM   13  C   UNL     1      24.205  47.234  49.869  1.00  0.00     0.123 A 
HETATM   14  N   UNL     1      23.087  46.621  49.362  1.00  0.00    -0.341 N 
HETATM   15  C   UNL     1      22.294  47.575  48.782  1.00  0.00     0.063 A 
HETATM   16  H   UNL     1      22.916  45.625  49.411  1.00  0.00     0.167 HD
HETATM   17  C   UNL     1      23.000  48.762  48.958  1.00  0.00     0.091 A 
HETATM   18  C   UNL     1      21.062  47.500  48.133  1.00  0.00     0.032 A 
HETATM   19  C   UNL     1      22.471  49.969  48.461  1.00  0.00    -0.031 A 
HETATM   20  N   UNL     1      24.175  48.532  49.639  1.00  0.00    -0.231 NA
HETATM   21  C   UNL     1      23.174  51.288  48.597  1.00  0.00     0.050 C 
HETATM   22  C   UNL     1      21.225  49.907  47.804  1.00  0.00     0.009 A 
HETATM   23  C   UNL     1      20.538  48.700  47.646  1.00  0.00     0.003 A 
ENDBRANCH  12  13
ENDBRANCH  10  12
ENDBRANCH   1  10
BRANCH   7  24
HETATM   24  C   UNL     1      29.405  45.445  56.228  1.00  0.00     0.750 A 
HETATM   25  N   UNL     1      30.304  44.531  55.804  1.00  0.00    -0.073 NA
HETATM   26  C   UNL     1      31.223  44.116  56.696  1.00  0.00     0.138 A 
HETATM   27  C   UNL     1      31.285  44.574  57.990  1.00  0.00     0.040 A 
HETATM   28  C   UNL     1      30.334  45.500  58.335  1.00  0.00     0.138 A 
HETATM   29  N   UNL     1      29.393  45.949  57.485  1.00  0.00    -0.073 NA
ENDBRANCH   7  24
TORSDOF 4
ENDMDL
MODEL 5
REMARK VINA RESULT:      -8.9      1.160      2.298
REMARK  4 active torsions:
REMARK  status: ('A' for Active; 'I' for Inactive)
REMARK    1  A    between atoms: C_7  and  C_8 
REMARK    2  A    between atoms: C_8  and  N_9 
REMARK    3  A    between atoms: N_9  and  C_10 
REMARK    4  A    between atoms: N_16  and  C_17 
ROOT
HETATM    1  C   UNL     1      26.921  43.581  52.483  1.00  0.00     0.141 A 
HETATM    2  N   UNL     1      26.092  43.776  53.539  1.00  0.00    -0.224 NA
HETATM    3  C   UNL     1      25.094  44.676  53.423  1.00  0.00     0.237 A 
HETATM    4  N   UNL     1      24.805  45.452  52.373  1.00  0.00    -0.221 NA
HETATM    5  C   UNL     1      25.656  45.263  51.344  1.00  0.00     0.186 A 
HETATM    6  C   UNL     1      26.711  44.363  51.338  1.00  0.00     0.077 A 
HETATM    7  N   UNL     1      25.670  45.897  50.104  1.00  0.00    -0.041 N 
HETATM    8  N   UNL     1      26.696  45.426  49.315  1.00  0.00    -0.162 NA
HETATM    9  C   UNL     1      27.308  44.521  50.076  1.00  0.00     0.159 A 
ENDROOT
BRANCH   1  10
HETATM   10  N   UNL     1      27.956  42.660  52.566  1.00  0.00    -0.367 N 
HETATM   11  H   UNL     1      27.759  41.851  53.140  1.00  0.00     0.161 HD
BRANCH  10  12
HETATM   12  C   UNL     1      29.323  43.159  52.697  1.00  0.00     0.199 C 
BRANCH  12  13
HETATM   13  C   UNL     1      29.704  43.633  54.062  1.00  0.00     0.123 A 
HETATM   14  N   UNL     1      30.761  43.078  54.739  1.00  0.00    -0.341 N 
HETATM   15  C   UNL     1      30.886  43.714  55.945  1.00  0.00     0.063 A 
HETATM   16  H   UNL     1      31.322  42.314  54.384  1.00  0.00     0.167 HD
HETATM   17  C   UNL     1      29.855  44.649  55.949  1.00  0.00     0.091 A 
HETATM   18  C   UNL     1      31.783  43.550  57.001  1.00  0.00     0.032 A 
HETATM   19  C   UNL     1      29.676  45.486  57.068  1.00  0.00    -0.031 A 
HETATM   20  N   UNL     1      29.139  44.588  54.773  1.00  0.00    -0.231 NA
HETATM   21  C   UNL     1      28.582  46.510  57.158  1.00  0.00     0.050 C 
HETATM   22  C   UNL     1      30.577  45.332  58.142  1.00  0.00     0.009 A 
HETATM   23  C   UNL     1      31.606  44.387  58.106  1.00  0.00     0.003 A 
ENDBRANCH  12  13
ENDBRANCH  10  12
ENDBRANCH   1  10
BRANCH   7  24
HETATM   24  C   UNL     1      24.771  46.915  49.627  1.00  0.00     0.750 A 
HETATM   25  N   UNL     1      25.183  48.202  49.623  1.00  0.00    -0.073 NA
HETATM   26  C   UNL     1      24.311  49.122  49.167  1.00  0.00     0.138 A 
HETATM   27  C   UNL     1      23.050  48.816  48.717  1.00  0.00     0.040 A 
HETATM   28  C   UNL     1      22.716  47.486  48.757  1.00  0.00     0.138 A 
HETATM   29  N   UNL     1      23.545  46.525  49.202  1.00  0.00    -0.073 NA
ENDBRANCH   7  24
TORSDOF 4
ENDMDL
MODEL 6
REMARK VINA RESULT:      -8.9      1.850      3.456
REMARK  4 active torsions:
REMARK  status: ('A' for Active; 'I' for Inactive)
REMARK    1  A    between atoms: C_7  and  C_8 
REMARK    2  A    between atoms: C_8  and  N_9 
REMARK    3  A    between atoms: N_9  and  C_10 
REMARK    4  A    between atoms: N_16  and  C_17 
ROOT
HETATM    1  C   UNL     1      25.929  45.735  49.654  1.00  0.00     0.141 A 
HETATM    2  N   UNL     1      26.875  46.676  49.899  1.00  0.00    -0.224 NA
HETATM    3  C   UNL     1      26.518  47.976  49.875  1.00  0.00     0.237 A 
HETATM    4  N   UNL     1      25.313  48.493  49.613  1.00  0.00    -0.221 NA
HETATM    5  C   UNL     1      24.393  47.544  49.347  1.00  0.00     0.186 A 
HETATM    6  C   UNL     1      24.634  46.179  49.350  1.00  0.00     0.077 A 
HETATM    7  N   UNL     1      23.048  47.708  49.024  1.00  0.00    -0.041 N 
HETATM    8  N   UNL     1      22.431  46.492  48.826  1.00  0.00    -0.162 NA
HETATM    9  C   UNL     1      23.399  45.598  49.016  1.00  0.00     0.159 A 
ENDROOT
BRANCH   1  10
HETATM   10  N   UNL     1      26.260  44.387  49.675  1.00  0.00    -0.367 N 
HETATM   11  H   UNL     1      26.055  43.887  48.820  1.00  0.00     0.161 HD
BRANCH  10  12
HETATM   12  C   UNL     1      25.983  43.621  50.888  1.00  0.00     0.199 C 
BRANCH  12  13
HETATM   13  C   UNL     1      27.021  43.719  51.959  1.00  0.00     0.123 A 
HETATM   14  N   UNL     1      28.106  42.879  51.978  1.00  0.00    -0.341 N 
HETATM   15  C   UNL     1      28.890  43.206  53.052  1.00  0.00     0.063 A 
HETATM   16  H   UNL     1      28.261  42.139  51.305  1.00  0.00     0.167 HD
HETATM   17  C   UNL     1      28.214  44.258  53.662  1.00  0.00     0.091 A 
HETATM   18  C   UNL     1      30.092  42.683  53.527  1.00  0.00     0.032 A 
HETATM   19  C   UNL     1      28.742  44.844  54.830  1.00  0.00    -0.031 A 
HETATM   20  N   UNL     1      27.064  44.566  52.968  1.00  0.00    -0.231 NA
HETATM   21  C   UNL     1      28.069  45.971  55.557  1.00  0.00     0.050 C 
HETATM   22  C   UNL     1      29.958  44.325  55.321  1.00  0.00     0.009 A 
HETATM   23  C   UNL     1      30.616  43.270  54.681  1.00  0.00     0.003 A 
ENDBRANCH  12  13
ENDBRANCH  10  12
ENDBRANCH   1  10
BRANCH   7  24
HETATM   24  C   UNL     1      22.319  48.943  48.895  1.00  0.00     0.750 A 
HETATM   25  N   UNL     1      22.407  49.861  49.883  1.00  0.00    -0.073 NA
HETATM   26  C   UNL     1      21.711  51.002  49.721  1.00  0.00     0.138 A 
HETATM   27  C   UNL     1      20.933  51.267  48.620  1.00  0.00     0.040 A 
HETATM   28  C   UNL     1      20.902  50.281  47.668  1.00  0.00     0.138 A 
HETATM   29  N   UNL     1      21.576  49.123  47.777  1.00  0.00    -0.073 NA
ENDBRANCH   7  24
TORSDOF 4
ENDMDL
MODEL 7
REMARK VINA RESULT:      -8.7      1.666      8.502
REMARK  4 active torsions:
REMARK  status: ('A' for Active; 'I' for Inactive)
REMARK    1  A    between atoms: C_7  and  C_8 
REMARK    2  A    between atoms: C_8  and  N_9 
REMARK    3  A    between atoms: N_9  and  C_10 
REMARK    4  A    between atoms: N_16  and  C_17 
ROOT
HETATM    1  C   UNL     1      25.861  44.622  53.017  1.00  0.00     0.141 A 
HETATM    2  N   UNL     1      26.240  43.377  52.632  1.00  0.00    -0.224 NA
HETATM    3  C   UNL     1      27.302  42.806  53.236  1.00  0.00     0.237 A 
HETATM    4  N   UNL     1      28.083  43.325  54.189  1.00  0.00    -0.221 NA
HETATM    5  C   UNL     1      27.708  44.573  54.539  1.00  0.00     0.186 A 
HETATM    6  C   UNL     1      26.631  45.260  54.001  1.00  0.00     0.077 A 
HETATM    7  N   UNL     1      28.288  45.419  55.481  1.00  0.00    -0.041 N 
HETATM    8  N   UNL     1      27.612  46.617  55.557  1.00  0.00    -0.162 NA
HETATM    9  C   UNL     1      26.636  46.502  54.658  1.00  0.00     0.159 A 
ENDROOT
BRANCH   1  10
HETATM   10  N   UNL     1      24.770  45.238  52.421  1.00  0.00    -0.367 N 
HETATM   11  H   UNL     1      23.888  45.087  52.892  1.00  0.00     0.161 HD
BRANCH  10  12
HETATM   12  C   UNL     1      24.672  45.222  50.963  1.00  0.00     0.199 C 
BRANCH  12  13
HETATM   13  C   UNL     1      25.053  46.496  50.281  1.00  0.00     0.123 A 
HETATM   14  N   UNL     1      26.358  46.918  50.237  1.00  0.00    -0.341 N 
HETATM   15  C   UNL     1      26.410  48.095  49.540  1.00  0.00     0.063 A 
HETATM   16  H   UNL     1      27.127  46.425  50.673  1.00  0.00     0.167 HD
HETATM   17  C   UNL     1      25.086  48.348  49.193  1.00  0.00     0.091 A 
HETATM   18  C   UNL     1      27.470  48.936  49.201  1.00  0.00     0.032 A 
HETATM   19  C   UNL     1      24.765  49.511  48.465  1.00  0.00    -0.031 A 
HETATM   20  N   UNL     1      24.262  47.344  49.654  1.00  0.00    -0.231 NA
HETATM   21  C   UNL     1      23.363  49.864  48.063  1.00  0.00     0.050 C 
HETATM   22  C   UNL     1      25.828  50.368  48.114  1.00  0.00     0.009 A 
HETATM   23  C   UNL     1      27.149  50.084  48.474  1.00  0.00     0.003 A 
ENDBRANCH  12  13
ENDBRANCH  10  12
ENDBRANCH   1  10
BRANCH   7  24
HETATM   24  C   UNL     1      29.437  45.158  56.308  1.00  0.00     0.750 A 
HETATM   25  N   UNL     1      30.356  44.262  55.887  1.00  0.00    -0.073 NA
HETATM   26  C   UNL     1      31.416  44.049  56.690  1.00  0.00     0.138 A 
HETATM   27  C   UNL     1      31.599  44.690  57.891  1.00  0.00     0.040 A 
HETATM   28  C   UNL     1      30.617  45.582  58.240  1.00  0.00     0.138 A 
HETATM   29  N   UNL     1      29.538  45.834  57.477  1.00  0.00    -0.073 NA
ENDBRANCH   7  24
TORSDOF 4
ENDMDL
MODEL 8
REMARK VINA RESULT:      -8.7      2.811      8.936
REMARK  4 active torsions:
REMARK  status: ('A' for Active; 'I' for Inactive)
REMARK    1  A    between atoms: C_7  and  C_8 
REMARK    2  A    between atoms: C_8  and  N_9 
REMARK    3  A    between atoms: N_9  and  C_10 
REMARK    4  A    between atoms: N_16  and  C_17 
ROOT
HETATM    1  C   UNL     1      23.433  44.941  49.403  1.00  0.00     0.141 A 
HETATM    2  N   UNL     1      23.447  43.663  49.859  1.00  0.00    -0.224 NA
HETATM    3  C   UNL     1      24.057  43.399  51.033  1.00  0.00     0.237 A 
HETATM    4  N   UNL     1      24.697  44.254  51.837  1.00  0.00    -0.221 NA
HETATM    5  C   UNL     1      24.695  45.514  51.355  1.00  0.00     0.186 A 
HETATM    6  C   UNL     1      24.095  45.912  50.169  1.00  0.00     0.077 A 
HETATM    7  N   UNL     1      25.268  46.655  51.911  1.00  0.00    -0.041 N 
HETATM    8  N   UNL     1      25.047  47.760  51.119  1.00  0.00    -0.162 NA
HETATM    9  C   UNL     1      24.356  47.289  50.082  1.00  0.00     0.159 A 
ENDROOT
BRANCH   1  10
HETATM   10  N   UNL     1      22.810  45.250  48.202  1.00  0.00    -0.367 N 
HETATM   11  H   UNL     1      23.309  45.913  47.624  1.00  0.00     0.161 HD
BRANCH  10  12
HETATM   12  C   UNL     1      21.361  45.435  48.197  1.00  0.00     0.199 C 
BRANCH  12  13
HETATM   13  C   UNL     1      20.887  46.791  48.611  1.00  0.00     0.123 A 
HETATM   14  N   UNL     1      19.731  46.952  49.333  1.00  0.00    -0.341 N 
HETATM   15  C   UNL     1      19.557  48.287  49.582  1.00  0.00     0.063 A 
HETATM   16  H   UNL     1      19.123  46.190  49.604  1.00  0.00     0.167 HD
HETATM   17  C   UNL     1      20.646  48.896  48.966  1.00  0.00     0.091 A 
HETATM   18  C   UNL     1      18.566  48.990  50.266  1.00  0.00     0.032 A 
HETATM   19  C   UNL     1      20.781  50.298  49.013  1.00  0.00    -0.031 A 
HETATM   20  N   UNL     1      21.462  47.955  48.377  1.00  0.00    -0.231 NA
HETATM   21  C   UNL     1      21.917  51.033  48.365  1.00  0.00     0.050 C 
HETATM   22  C   UNL     1      19.786  51.020  49.704  1.00  0.00     0.009 A 
HETATM   23  C   UNL     1      18.706  50.379  50.316  1.00  0.00     0.003 A 
ENDBRANCH  12  13
ENDBRANCH  10  12
ENDBRANCH   1  10
BRANCH   7  24
HETATM   24  C   UNL     1      26.005  46.757  53.143  1.00  0.00     0.750 A 
HETATM   25  N   UNL     1      25.715  47.762  53.998  1.00  0.00    -0.073 NA
HETATM   26  C   UNL     1      26.427  47.820  55.140  1.00  0.00     0.138 A 
HETATM   27  C   UNL     1      27.414  46.921  55.464  1.00  0.00     0.040 A 
HETATM   28  C   UNL     1      27.642  45.934  54.539  1.00  0.00     0.138 A 
HETATM   29  N   UNL     1      26.961  45.829  53.384  1.00  0.00    -0.073 NA
ENDBRANCH   7  24
TORSDOF 4
ENDMDL
MODEL 9
REMARK VINA RESULT:      -8.6      1.474      9.403
REMARK  4 active torsions:
REMARK  status: ('A' for Active; 'I' for Inactive)
REMARK    1  A    between atoms: C_7  and  C_8 
REMARK    2  A    between atoms: C_8  and  N_9 
REMARK    3  A    between atoms: N_9  and  C_10 
REMARK    4  A    between atoms: N_16  and  C_17 
ROOT
HETATM    1  C   UNL     1      25.497  46.041  52.406  1.00  0.00     0.141 A 
HETATM    2  N   UNL     1      25.437  47.243  53.033  1.00  0.00    -0.224 NA
HETATM    3  C   UNL     1      26.328  47.512  54.009  1.00  0.00     0.237 A 
HETATM    4  N   UNL     1      27.293  46.717  54.483  1.00  0.00    -0.221 NA
HETATM    5  C   UNL     1      27.320  45.517  53.866  1.00  0.00     0.186 A 
HETATM    6  C   UNL     1      26.467  45.128  52.845  1.00  0.00     0.077 A 
HETATM    7  N   UNL     1      28.174  44.442  54.101  1.00  0.00    -0.041 N 
HETATM    8  N   UNL     1      27.890  43.388  53.260  1.00  0.00    -0.162 NA
HETATM    9  C   UNL     1      26.863  43.817  52.529  1.00  0.00     0.159 A 
ENDROOT
BRANCH   1  10
HETATM   10  N   UNL     1      24.599  45.733  51.394  1.00  0.00    -0.367 N 
HETATM   11  H   UNL     1      24.229  44.792  51.427  1.00  0.00     0.161 HD
BRANCH  10  12
HETATM   12  C   UNL     1      24.885  46.208  50.042  1.00  0.00     0.199 C 
BRANCH  12  13
HETATM   13  C   UNL     1      23.871  47.142  49.464  1.00  0.00     0.123 A 
HETATM   14  N   UNL     1      22.599  46.720  49.170  1.00  0.00    -0.341 N 
HETATM   15  C   UNL     1      21.893  47.782  48.674  1.00  0.00     0.063 A 
HETATM   16  H   UNL     1      22.275  45.769  49.296  1.00  0.00     0.167 HD
HETATM   17  C   UNL     1      22.805  48.833  48.677  1.00  0.00     0.091 A 
HETATM   18  C   UNL     1      20.576  47.906  48.230  1.00  0.00     0.032 A 
HETATM   19  C   UNL     1      22.411  50.102  48.208  1.00  0.00    -0.031 A 
HETATM   20  N   UNL     1      24.021  48.420  49.176  1.00  0.00    -0.231 NA
HETATM   21  C   UNL     1      23.336  51.282  48.165  1.00  0.00     0.050 C 
HETATM   22  C   UNL     1      21.082  50.241  47.758  1.00  0.00     0.009 A 
HETATM   23  C   UNL     1      20.187  49.167  47.772  1.00  0.00     0.003 A 
ENDBRANCH  12  13
ENDBRANCH  10  12
ENDBRANCH   1  10
BRANCH   7  24
HETATM   24  C   UNL     1      29.236  44.358  55.068  1.00  0.00     0.750 A 
HETATM   25  N   UNL     1      30.033  43.267  55.072  1.00  0.00    -0.073 NA
HETATM   26  C   UNL     1      31.016  43.230  55.992  1.00  0.00     0.138 A 
HETATM   27  C   UNL     1      31.238  44.232  56.906  1.00  0.00     0.040 A 
HETATM   28  C   UNL     1      30.382  45.301  56.830  1.00  0.00     0.138 A 
HETATM   29  N   UNL     1      29.385  45.391  55.932  1.00  0.00    -0.073 NA
ENDBRANCH   7  24
TORSDOF 4
ENDMDL
MODEL 10
REMARK VINA RESULT:      -8.5      2.039      3.479
REMARK  4 active torsions:
REMARK  status: ('A' for Active; 'I' for Inactive)
REMARK    1  A    between atoms: C_7  and  C_8 
REMARK    2  A    between atoms: C_8  and  N_9 
REMARK    3  A    between atoms: N_9  and  C_10 
REMARK    4  A    between atoms: N_16  and  C_17 
ROOT
HETATM    1  C   UNL     1      24.172  45.239  49.353  1.00  0.00     0.141 A 
HETATM    2  N   UNL     1      23.159  44.497  48.839  1.00  0.00    -0.224 NA
HETATM    3  C   UNL     1      22.039  45.125  48.427  1.00  0.00     0.237 A 
HETATM    4  N   UNL     1      21.765  46.433  48.474  1.00  0.00    -0.221 NA
HETATM    5  C   UNL     1      22.772  47.151  49.011  1.00  0.00     0.186 A 
HETATM    6  C   UNL     1      23.974  46.624  49.461  1.00  0.00     0.077 A 
HETATM    7  N   UNL     1      22.837  48.525  49.227  1.00  0.00    -0.041 N 
HETATM    8  N   UNL     1      24.040  48.884  49.795  1.00  0.00    -0.162 NA
HETATM    9  C   UNL     1      24.695  47.733  49.934  1.00  0.00     0.159 A 
ENDROOT
BRANCH   1  10
HETATM   10  N   UNL     1      25.341  44.627  49.783  1.00  0.00    -0.367 N 
HETATM   11  H   UNL     1      25.885  44.189  49.051  1.00  0.00     0.161 HD
BRANCH  10  12
HETATM   12  C   UNL     1      25.311  43.869  51.031  1.00  0.00     0.199 C 
BRANCH  12  13
HETATM   13  C   UNL     1      26.192  44.391  52.120  1.00  0.00     0.123 A 
HETATM   14  N   UNL     1      25.991  45.635  52.662  1.00  0.00    -0.341 N 
HETATM   15  C   UNL     1      26.928  45.838  53.641  1.00  0.00     0.063 A 
HETATM   16  H   UNL     1      25.273  46.278  52.355  1.00  0.00     0.167 HD
HETATM   17  C   UNL     1      27.687  44.672  53.637  1.00  0.00     0.091 A 
HETATM   18  C   UNL     1      27.169  46.912  54.497  1.00  0.00     0.032 A 
HETATM   19  C   UNL     1      28.770  44.540  54.529  1.00  0.00    -0.031 A 
HETATM   20  N   UNL     1      27.212  43.786  52.694  1.00  0.00    -0.231 NA
HETATM   21  C   UNL     1      29.645  43.323  54.579  1.00  0.00     0.050 C 
HETATM   22  C   UNL     1      29.024  45.619  55.401  1.00  0.00     0.009 A 
HETATM   23  C   UNL     1      28.239  46.775  55.384  1.00  0.00     0.003 A 
ENDBRANCH  12  13
ENDBRANCH  10  12
ENDBRANCH   1  10
BRANCH   7  24
HETATM   24  C   UNL     1      21.832  49.511  48.926  1.00  0.00     0.750 A 
HETATM   25  N   UNL     1      21.371  49.610  47.660  1.00  0.00    -0.073 NA
HETATM   26  C   UNL     1      20.430  50.543  47.422  1.00  0.00     0.138 A 
HETATM   27  C   UNL     1      19.931  51.381  48.390  1.00  0.00     0.040 A 
HETATM   28  C   UNL     1      20.455  51.211  49.646  1.00  0.00     0.138 A 
HETATM   29  N   UNL     1      21.395  50.295  49.940  1.00  0.00    -0.073 NA
ENDBRANCH   7  24
TORSDOF 4
ENDMDL
