MODEL 1
REMARK VINA RESULT:     -10.1      0.000      0.000
REMARK  6 active torsions:
REMARK  status: ('A' for Active; 'I' for Inactive)
REMARK    1  A    between atoms: C_2  and  C_3 
REMARK    2  A    between atoms: C_5  and  N_6 
REMARK       I    between atoms: N_6  and  C_7 
REMARK    3  A    between atoms: C_7  and  C_8 
REMARK    4  A    between atoms: N_11  and  C_12 
REMARK    5  A    between atoms: C_18  and  C_19 
REMARK    6  A    between atoms: C_28  and  O_29 
ROOT
HETATM    1  C   UNL     1      25.776  44.748  50.519  1.00  0.00     0.081 C 
HETATM    2  C   UNL     1      25.017  44.766  49.180  1.00  0.00     0.034 C 
HETATM    3  C   UNL     1      23.805  45.705  49.173  1.00  0.00     0.125 C 
HETATM    4  N   UNL     1      24.179  47.056  49.615  1.00  0.00    -0.364 N 
HETATM    5  C   UNL     1      24.841  47.065  50.933  1.00  0.00     0.125 C 
HETATM    6  C   UNL     1      26.087  46.193  50.914  1.00  0.00     0.034 C 
ENDROOT
BRANCH   1   7
HETATM    7  C   UNL     1      24.997  43.993  51.594  1.00  0.00     0.226 C 
HETATM    8  N   UNL     1      25.520  43.648  52.800  1.00  0.00    -0.324 N 
HETATM    9  H   UNL     1      24.778  43.329  53.416  1.00  0.00     0.169 HD
HETATM   10  O   UNL     1      23.814  43.681  51.406  1.00  0.00    -0.273 OA
BRANCH   8  11
HETATM   11  C   UNL     1      26.782  43.723  53.421  1.00  0.00     0.068 A 
HETATM   12  C   UNL     1      27.295  44.824  54.109  1.00  0.00     0.040 A 
HETATM   13  C   UNL     1      28.518  44.765  54.817  1.00  0.00    -0.048 A 
HETATM   14  C   UNL     1      29.232  43.554  54.782  1.00  0.00     0.011 A 
HETATM   15  C   UNL     1      28.776  42.467  54.038  1.00  0.00     0.039 A 
HETATM   16  C   UNL     1      27.575  42.570  53.353  1.00  0.00     0.092 A 
BRANCH  13  17
HETATM   17  C   UNL     1      28.999  45.953  55.676  1.00  0.00    -0.024 C 
HETATM   18  C   UNL     1      28.675  47.252  54.913  1.00  0.00     0.019 C 
HETATM   19  C   UNL     1      30.521  45.917  55.954  1.00  0.00     0.019 C 
HETATM   20  C   UNL     1      28.304  46.005  57.056  1.00  0.00     0.019 C 
ENDBRANCH  13  17
BRANCH  16  21
HETATM   21  O   UNL     1      27.169  41.491  52.614  1.00  0.00    -0.358 OA
HETATM   22  H   UNL     1      27.340  40.710  53.171  1.00  0.00     0.218 HD
ENDBRANCH  16  21
ENDBRANCH   8  11
ENDBRANCH   1   7
BRANCH   4  23
HETATM   23  C   UNL     1      23.455  48.198  49.242  1.00  0.00     0.146 A 
HETATM   24  N   UNL     1      22.143  48.122  49.283  1.00  0.00    -0.146 NA
HETATM   25  N   UNL     1      21.470  49.241  48.921  1.00  0.00    -0.188 N 
HETATM   26  C   UNL     1      22.004  50.441  48.514  1.00  0.00     0.175 A 
HETATM   27  C   UNL     1      20.115  49.417  48.885  1.00  0.00     0.258 A 
HETATM   28  C   UNL     1      23.404  50.539  48.479  1.00  0.00     0.058 A 
HETATM   29  N   UNL     1      21.037  51.288  48.239  1.00  0.00    -0.128 NA
HETATM   30  C   UNL     1      24.141  49.477  48.830  1.00  0.00     0.056 A 
HETATM   31  N   UNL     1      19.843  50.644  48.472  1.00  0.00    -0.123 NA
BRANCH  27  32
HETATM   32  C   UNL     1      19.201  48.334  49.272  1.00  0.00     0.454 C 
HETATM   33  F   UNL     1      19.232  48.076  50.607  1.00  0.00    -0.163 F 
HETATM   34  F   UNL     1      17.903  48.620  48.977  1.00  0.00    -0.163 F 
HETATM   35  F   UNL     1      19.480  47.162  48.639  1.00  0.00    -0.163 F 
ENDBRANCH  27  32
ENDBRANCH   4  23
TORSDOF 6
ENDMDL
MODEL 2
REMARK VINA RESULT:      -9.4      5.636      9.075
REMARK  6 active torsions:
REMARK  status: ('A' for Active; 'I' for Inactive)
REMARK    1  A    between atoms: C_2  and  C_3 
REMARK    2  A    between atoms: C_5  and  N_6 
REMARK       I    between atoms: N_6  and  C_7 
REMARK    3  A    between atoms: C_7  and  C_8 
REMARK    4  A    between atoms: N_11  and  C_12 
REMARK    5  A    between atoms: C_18  and  C_19 
REMARK    6  A    between atoms: C_28  and  O_29 
ROOT
HETATM    1  C   UNL     1      25.168  44.012  49.790  1.00  0.00     0.081 C 
HETATM    2  C   UNL     1      24.747  45.326  50.475  1.00  0.00     0.034 C 
HETATM    3  C   UNL     1      25.038  45.355  51.980  1.00  0.00     0.125 C 
HETATM    4  N   UNL     1      26.441  45.012  52.256  1.00  0.00    -0.364 N 
HETATM    5  C   UNL     1      26.841  43.719  51.670  1.00  0.00     0.125 C 
HETATM    6  C   UNL     1      26.623  43.721  50.164  1.00  0.00     0.034 C 
ENDROOT
BRANCH   1   7
HETATM    7  C   UNL     1      24.223  42.868  50.146  1.00  0.00     0.226 C 
HETATM    8  N   UNL     1      24.505  41.559  49.913  1.00  0.00    -0.324 N 
HETATM    9  H   UNL     1      23.831  40.972  50.397  1.00  0.00     0.169 HD
HETATM   10  O   UNL     1      23.141  43.099  50.701  1.00  0.00    -0.273 OA
BRANCH   8  11
HETATM   11  C   UNL     1      25.533  40.836  49.276  1.00  0.00     0.068 A 
HETATM   12  C   UNL     1      25.734  40.738  47.898  1.00  0.00     0.040 A 
HETATM   13  C   UNL     1      26.871  40.100  47.348  1.00  0.00    -0.048 A 
HETATM   14  C   UNL     1      27.794  39.530  48.244  1.00  0.00     0.011 A 
HETATM   15  C   UNL     1      27.572  39.551  49.620  1.00  0.00     0.039 A 
HETATM   16  C   UNL     1      26.441  40.181  50.116  1.00  0.00     0.092 A 
BRANCH  13  17
HETATM   17  C   UNL     1      27.138  40.117  45.829  1.00  0.00    -0.024 C 
HETATM   18  C   UNL     1      28.341  41.046  45.570  1.00  0.00     0.019 C 
HETATM   19  C   UNL     1      25.932  40.642  45.013  1.00  0.00     0.019 C 
HETATM   20  C   UNL     1      27.467  38.714  45.269  1.00  0.00     0.019 C 
ENDBRANCH  13  17
BRANCH  16  21
HETATM   21  O   UNL     1      26.243  40.161  51.471  1.00  0.00    -0.358 OA
HETATM   22  H   UNL     1      27.116  39.978  51.862  1.00  0.00     0.218 HD
ENDBRANCH  16  21
ENDBRANCH   8  11
ENDBRANCH   1   7
BRANCH   4  23
HETATM   23  C   UNL     1      27.105  45.435  53.416  1.00  0.00     0.146 A 
HETATM   24  N   UNL     1      28.100  44.692  53.848  1.00  0.00    -0.146 NA
HETATM   25  N   UNL     1      28.726  45.126  54.968  1.00  0.00    -0.188 N 
HETATM   26  C   UNL     1      28.436  46.251  55.703  1.00  0.00     0.175 A 
HETATM   27  C   UNL     1      29.782  44.539  55.608  1.00  0.00     0.258 A 
HETATM   28  C   UNL     1      27.384  47.061  55.245  1.00  0.00     0.058 A 
HETATM   29  N   UNL     1      29.255  46.338  56.727  1.00  0.00    -0.128 NA
HETATM   30  C   UNL     1      26.720  46.703  54.138  1.00  0.00     0.056 A 
HETATM   31  N   UNL     1      30.106  45.257  56.670  1.00  0.00    -0.123 NA
BRANCH  27  32
HETATM   32  C   UNL     1      30.383  43.300  55.095  1.00  0.00     0.454 C 
HETATM   33  F   UNL     1      30.846  43.431  53.822  1.00  0.00    -0.163 F 
HETATM   34  F   UNL     1      31.447  42.892  55.839  1.00  0.00    -0.163 F 
HETATM   35  F   UNL     1      29.508  42.257  55.089  1.00  0.00    -0.163 F 
ENDBRANCH  27  32
ENDBRANCH   4  23
TORSDOF 6
ENDMDL
MODEL 3
REMARK VINA RESULT:      -9.3      6.335      9.646
REMARK  6 active torsions:
REMARK  status: ('A' for Active; 'I' for Inactive)
REMARK    1  A    between atoms: C_2  and  C_3 
REMARK    2  A    between atoms: C_5  and  N_6 
REMARK       I    between atoms: N_6  and  C_7 
REMARK    3  A    between atoms: C_7  and  C_8 
REMARK    4  A    between atoms: N_11  and  C_12 
REMARK    5  A    between atoms: C_18  and  C_19 
REMARK    6  A    between atoms: C_28  and  O_29 
ROOT
HETATM    1  C   UNL     1      26.361  44.135  50.905  1.00  0.00     0.081 C 
HETATM    2  C   UNL     1      26.073  45.532  51.487  1.00  0.00     0.034 C 
HETATM    3  C   UNL     1      26.179  45.595  53.015  1.00  0.00     0.125 C 
HETATM    4  N   UNL     1      27.466  45.057  53.480  1.00  0.00    -0.364 N 
HETATM    5  C   UNL     1      27.725  43.689  52.993  1.00  0.00     0.125 C 
HETATM    6  C   UNL     1      27.694  43.645  51.473  1.00  0.00     0.034 C 
ENDROOT
BRANCH   1   7
HETATM    7  C   UNL     1      25.210  43.169  51.174  1.00  0.00     0.226 C 
HETATM    8  N   UNL     1      25.114  41.937  50.609  1.00  0.00    -0.324 N 
HETATM    9  H   UNL     1      24.383  41.404  51.071  1.00  0.00     0.169 HD
HETATM   10  O   UNL     1      24.307  43.475  51.964  1.00  0.00    -0.273 OA
BRANCH   8  11
HETATM   11  C   UNL     1      25.828  41.202  49.642  1.00  0.00     0.068 A 
HETATM   12  C   UNL     1      26.719  40.158  49.897  1.00  0.00     0.040 A 
HETATM   13  C   UNL     1      27.291  39.387  48.858  1.00  0.00    -0.048 A 
HETATM   14  C   UNL     1      26.955  39.727  47.535  1.00  0.00     0.011 A 
HETATM   15  C   UNL     1      26.129  40.814  47.257  1.00  0.00     0.039 A 
HETATM   16  C   UNL     1      25.595  41.548  48.305  1.00  0.00     0.092 A 
BRANCH  13  17
HETATM   17  C   UNL     1      28.169  38.157  49.170  1.00  0.00    -0.024 C 
HETATM   18  C   UNL     1      28.896  37.753  47.872  1.00  0.00     0.019 C 
HETATM   19  C   UNL     1      27.348  36.943  49.668  1.00  0.00     0.019 C 
HETATM   20  C   UNL     1      29.227  38.445  50.259  1.00  0.00     0.019 C 
ENDBRANCH  13  17
BRANCH  16  21
HETATM   21  O   UNL     1      24.806  42.623  47.994  1.00  0.00    -0.358 OA
HETATM   22  H   UNL     1      24.016  42.254  47.562  1.00  0.00     0.218 HD
ENDBRANCH  16  21
ENDBRANCH   8  11
ENDBRANCH   1   7
BRANCH   4  23
HETATM   23  C   UNL     1      28.042  45.433  54.701  1.00  0.00     0.146 A 
HETATM   24  N   UNL     1      29.035  44.699  55.154  1.00  0.00    -0.146 NA
HETATM   25  N   UNL     1      29.575  45.089  56.333  1.00  0.00    -0.188 N 
HETATM   26  C   UNL     1      29.201  46.160  57.109  1.00  0.00     0.175 A 
HETATM   27  C   UNL     1      30.610  44.500  57.004  1.00  0.00     0.258 A 
HETATM   28  C   UNL     1      28.151  46.960  56.631  1.00  0.00     0.058 A 
HETATM   29  N   UNL     1      29.952  46.214  58.186  1.00  0.00    -0.128 NA
HETATM   30  C   UNL     1      27.569  46.645  55.467  1.00  0.00     0.056 A 
HETATM   31  N   UNL     1      30.843  45.166  58.123  1.00  0.00    -0.123 NA
BRANCH  27  32
HETATM   32  C   UNL     1      31.286  43.313  56.463  1.00  0.00     0.454 C 
HETATM   33  F   UNL     1      30.550  42.178  56.611  1.00  0.00    -0.163 F 
HETATM   34  F   UNL     1      31.539  43.423  55.129  1.00  0.00    -0.163 F 
HETATM   35  F   UNL     1      32.489  43.080  57.054  1.00  0.00    -0.163 F 
ENDBRANCH  27  32
ENDBRANCH   4  23
TORSDOF 6
ENDMDL
MODEL 4
REMARK VINA RESULT:      -9.2      3.135      5.156
REMARK  6 active torsions:
REMARK  status: ('A' for Active; 'I' for Inactive)
REMARK    1  A    between atoms: C_2  and  C_3 
REMARK    2  A    between atoms: C_5  and  N_6 
REMARK       I    between atoms: N_6  and  C_7 
REMARK    3  A    between atoms: C_7  and  C_8 
REMARK    4  A    between atoms: N_11  and  C_12 
REMARK    5  A    between atoms: C_18  and  C_19 
REMARK    6  A    between atoms: C_28  and  O_29 
ROOT
HETATM    1  C   UNL     1      26.861  44.239  52.071  1.00  0.00     0.081 C 
HETATM    2  C   UNL     1      27.384  44.378  50.629  1.00  0.00     0.034 C 
HETATM    3  C   UNL     1      26.509  45.270  49.741  1.00  0.00     0.125 C 
HETATM    4  N   UNL     1      26.272  46.577  50.372  1.00  0.00    -0.364 N 
HETATM    5  C   UNL     1      25.700  46.464  51.727  1.00  0.00     0.125 C 
HETATM    6  C   UNL     1      26.609  45.642  52.627  1.00  0.00     0.034 C 
ENDROOT
BRANCH   1   7
HETATM    7  C   UNL     1      25.625  43.345  52.134  1.00  0.00     0.226 C 
HETATM    8  N   UNL     1      25.561  42.109  51.572  1.00  0.00    -0.324 N 
HETATM    9  H   UNL     1      24.728  41.628  51.898  1.00  0.00     0.169 HD
HETATM   10  O   UNL     1      24.613  43.718  52.742  1.00  0.00    -0.273 OA
BRANCH   8  11
HETATM   11  C   UNL     1      26.395  41.316  50.760  1.00  0.00     0.068 A 
HETATM   12  C   UNL     1      26.234  41.089  49.393  1.00  0.00     0.040 A 
HETATM   13  C   UNL     1      27.195  40.386  48.629  1.00  0.00    -0.048 A 
HETATM   14  C   UNL     1      28.323  39.885  49.304  1.00  0.00     0.011 A 
HETATM   15  C   UNL     1      28.464  40.034  50.683  1.00  0.00     0.039 A 
HETATM   16  C   UNL     1      27.495  40.725  51.394  1.00  0.00     0.092 A 
BRANCH  13  17
HETATM   17  C   UNL     1      27.059  40.261  47.097  1.00  0.00    -0.024 C 
HETATM   18  C   UNL     1      27.110  38.763  46.737  1.00  0.00     0.019 C 
HETATM   19  C   UNL     1      28.192  40.986  46.332  1.00  0.00     0.019 C 
HETATM   20  C   UNL     1      25.731  40.851  46.570  1.00  0.00     0.019 C 
ENDBRANCH  13  17
BRANCH  16  21
HETATM   21  O   UNL     1      27.655  40.831  52.750  1.00  0.00    -0.358 OA
HETATM   22  H   UNL     1      28.278  41.567  52.885  1.00  0.00     0.218 HD
ENDBRANCH  16  21
ENDBRANCH   8  11
ENDBRANCH   1   7
BRANCH   4  23
HETATM   23  C   UNL     1      25.967  47.727  49.630  1.00  0.00     0.146 A 
HETATM   24  N   UNL     1      24.724  47.876  49.228  1.00  0.00    -0.146 NA
HETATM   25  N   UNL     1      24.459  48.999  48.517  1.00  0.00    -0.188 N 
HETATM   26  C   UNL     1      25.341  49.993  48.167  1.00  0.00     0.175 A 
HETATM   27  C   UNL     1      23.254  49.382  47.996  1.00  0.00     0.258 A 
HETATM   28  C   UNL     1      26.668  49.853  48.601  1.00  0.00     0.058 A 
HETATM   29  N   UNL     1      24.716  50.917  47.471  1.00  0.00    -0.128 NA
HETATM   30  C   UNL     1      27.010  48.773  49.317  1.00  0.00     0.056 A 
HETATM   31  N   UNL     1      23.398  50.534  47.360  1.00  0.00    -0.123 NA
BRANCH  27  32
HETATM   32  C   UNL     1      22.052  48.559  48.183  1.00  0.00     0.454 C 
HETATM   33  F   UNL     1      20.944  49.116  47.622  1.00  0.00    -0.163 F 
HETATM   34  F   UNL     1      22.175  47.325  47.622  1.00  0.00    -0.163 F 
HETATM   35  F   UNL     1      21.762  48.346  49.496  1.00  0.00    -0.163 F 
ENDBRANCH  27  32
ENDBRANCH   4  23
TORSDOF 6
ENDMDL
MODEL 5
REMARK VINA RESULT:      -9.2      4.174      9.506
REMARK  6 active torsions:
REMARK  status: ('A' for Active; 'I' for Inactive)
REMARK    1  A    between atoms: C_2  and  C_3 
REMARK    2  A    between atoms: C_5  and  N_6 
REMARK       I    between atoms: N_6  and  C_7 
REMARK    3  A    between atoms: C_7  and  C_8 
REMARK    4  A    between atoms: N_11  and  C_12 
REMARK    5  A    between atoms: C_18  and  C_19 
REMARK    6  A    between atoms: C_28  and  O_29 
ROOT
HETATM    1  C   UNL     1      23.905  44.480  50.650  1.00  0.00     0.081 C 
HETATM    2  C   UNL     1      24.254  43.049  51.100  1.00  0.00     0.034 C 
HETATM    3  C   UNL     1      25.761  42.791  51.215  1.00  0.00     0.125 C 
HETATM    4  N   UNL     1      26.410  43.809  52.055  1.00  0.00    -0.364 N 
HETATM    5  C   UNL     1      26.148  45.185  51.594  1.00  0.00     0.125 C 
HETATM    6  C   UNL     1      24.653  45.462  51.554  1.00  0.00     0.034 C 
ENDROOT
BRANCH   1   7
HETATM    7  C   UNL     1      24.206  44.690  49.168  1.00  0.00     0.226 C 
HETATM    8  N   UNL     1      23.574  45.612  48.395  1.00  0.00    -0.324 N 
HETATM    9  H   UNL     1      24.060  45.706  47.508  1.00  0.00     0.169 HD
HETATM   10  O   UNL     1      25.084  44.022  48.607  1.00  0.00    -0.273 OA
BRANCH   8  11
HETATM   11  C   UNL     1      22.508  46.519  48.558  1.00  0.00     0.068 A 
HETATM   12  C   UNL     1      22.623  47.901  48.717  1.00  0.00     0.040 A 
HETATM   13  C   UNL     1      21.493  48.752  48.741  1.00  0.00    -0.048 A 
HETATM   14  C   UNL     1      20.226  48.153  48.629  1.00  0.00     0.011 A 
HETATM   15  C   UNL     1      20.086  46.769  48.547  1.00  0.00     0.039 A 
HETATM   16  C   UNL     1      21.220  45.971  48.534  1.00  0.00     0.092 A 
BRANCH  13  17
HETATM   17  C   UNL     1      21.652  50.286  48.786  1.00  0.00    -0.024 C 
HETATM   18  C   UNL     1      20.530  50.903  47.927  1.00  0.00     0.019 C 
HETATM   19  C   UNL     1      23.013  50.767  48.230  1.00  0.00     0.019 C 
HETATM   20  C   UNL     1      21.542  50.851  50.221  1.00  0.00     0.019 C 
ENDBRANCH  13  17
BRANCH  16  21
HETATM   21  O   UNL     1      21.044  44.614  48.477  1.00  0.00    -0.358 OA
HETATM   22  H   UNL     1      20.096  44.464  48.641  1.00  0.00     0.218 HD
ENDBRANCH  16  21
ENDBRANCH   8  11
ENDBRANCH   1   7
BRANCH   4  23
HETATM   23  C   UNL     1      27.612  43.568  52.736  1.00  0.00     0.146 A 
HETATM   24  N   UNL     1      27.917  44.375  53.729  1.00  0.00    -0.146 NA
HETATM   25  N   UNL     1      29.081  44.116  54.371  1.00  0.00    -0.188 N 
HETATM   26  C   UNL     1      29.977  43.109  54.100  1.00  0.00     0.175 A 
HETATM   27  C   UNL     1      29.613  44.800  55.428  1.00  0.00     0.258 A 
HETATM   28  C   UNL     1      29.657  42.232  53.052  1.00  0.00     0.058 A 
HETATM   29  N   UNL     1      30.993  43.182  54.931  1.00  0.00    -0.128 NA
HETATM   30  C   UNL     1      28.518  42.417  52.372  1.00  0.00     0.056 A 
HETATM   31  N   UNL     1      30.766  44.249  55.771  1.00  0.00    -0.123 NA
BRANCH  27  32
HETATM   32  C   UNL     1      28.915  45.953  56.011  1.00  0.00     0.454 C 
HETATM   33  F   UNL     1      27.619  45.680  56.322  1.00  0.00    -0.163 F 
HETATM   34  F   UNL     1      29.494  46.381  57.167  1.00  0.00    -0.163 F 
HETATM   35  F   UNL     1      28.900  47.031  55.180  1.00  0.00    -0.163 F 
ENDBRANCH  27  32
ENDBRANCH   4  23
TORSDOF 6
ENDMDL
MODEL 6
REMARK VINA RESULT:      -9.2      5.598      8.945
REMARK  6 active torsions:
REMARK  status: ('A' for Active; 'I' for Inactive)
REMARK    1  A    between atoms: C_2  and  C_3 
REMARK    2  A    between atoms: C_5  and  N_6 
REMARK       I    between atoms: N_6  and  C_7 
REMARK    3  A    between atoms: C_7  and  C_8 
REMARK    4  A    between atoms: N_11  and  C_12 
REMARK    5  A    between atoms: C_18  and  C_19 
REMARK    6  A    between atoms: C_28  and  O_29 
ROOT
HETATM    1  C   UNL     1      25.135  44.132  49.632  1.00  0.00     0.081 C 
HETATM    2  C   UNL     1      24.721  45.446  50.319  1.00  0.00     0.034 C 
HETATM    3  C   UNL     1      24.974  45.456  51.830  1.00  0.00     0.125 C 
HETATM    4  N   UNL     1      26.363  45.085  52.139  1.00  0.00    -0.364 N 
HETATM    5  C   UNL     1      26.754  43.790  51.550  1.00  0.00     0.125 C 
HETATM    6  C   UNL     1      26.574  43.810  50.040  1.00  0.00     0.034 C 
ENDROOT
BRANCH   1   7
HETATM    7  C   UNL     1      24.160  43.002  49.952  1.00  0.00     0.226 C 
HETATM    8  N   UNL     1      24.349  41.712  49.565  1.00  0.00    -0.324 N 
HETATM    9  H   UNL     1      23.686  41.111  50.045  1.00  0.00     0.169 HD
HETATM   10  O   UNL     1      23.143  43.224  50.620  1.00  0.00    -0.273 OA
BRANCH   8  11
HETATM   11  C   UNL     1      25.279  41.014  48.771  1.00  0.00     0.068 A 
HETATM   12  C   UNL     1      26.238  40.110  49.232  1.00  0.00     0.040 A 
HETATM   13  C   UNL     1      27.044  39.353  48.349  1.00  0.00    -0.048 A 
HETATM   14  C   UNL     1      26.870  39.562  46.969  1.00  0.00     0.011 A 
HETATM   15  C   UNL     1      25.973  40.515  46.490  1.00  0.00     0.039 A 
HETATM   16  C   UNL     1      25.208  41.241  47.391  1.00  0.00     0.092 A 
BRANCH  13  17
HETATM   17  C   UNL     1      28.003  38.267  48.879  1.00  0.00    -0.024 C 
HETATM   18  C   UNL     1      28.816  37.730  47.685  1.00  0.00     0.019 C 
HETATM   19  C   UNL     1      27.262  37.080  49.539  1.00  0.00     0.019 C 
HETATM   20  C   UNL     1      28.986  38.812  49.940  1.00  0.00     0.019 C 
ENDBRANCH  13  17
BRANCH  16  21
HETATM   21  O   UNL     1      24.354  42.185  46.885  1.00  0.00    -0.358 OA
HETATM   22  H   UNL     1      23.684  41.690  46.380  1.00  0.00     0.218 HD
ENDBRANCH  16  21
ENDBRANCH   8  11
ENDBRANCH   1   7
BRANCH   4  23
HETATM   23  C   UNL     1      27.005  45.484  53.319  1.00  0.00     0.146 A 
HETATM   24  N   UNL     1      27.996  44.736  53.752  1.00  0.00    -0.146 NA
HETATM   25  N   UNL     1      28.600  45.148  54.892  1.00  0.00    -0.188 N 
HETATM   26  C   UNL     1      28.292  46.255  55.646  1.00  0.00     0.175 A 
HETATM   27  C   UNL     1      29.648  44.551  55.536  1.00  0.00     0.258 A 
HETATM   28  C   UNL     1      27.245  47.070  55.188  1.00  0.00     0.058 A 
HETATM   29  N   UNL     1      29.093  46.322  56.686  1.00  0.00    -0.128 NA
HETATM   30  C   UNL     1      26.601  46.734  54.063  1.00  0.00     0.056 A 
HETATM   31  N   UNL     1      29.950  45.246  56.620  1.00  0.00    -0.123 NA
BRANCH  27  32
HETATM   32  C   UNL     1      30.263  43.327  55.006  1.00  0.00     0.454 C 
HETATM   33  F   UNL     1      29.390  42.285  54.946  1.00  0.00    -0.163 F 
HETATM   34  F   UNL     1      30.737  43.490  53.740  1.00  0.00    -0.163 F 
HETATM   35  F   UNL     1      31.323  42.908  55.751  1.00  0.00    -0.163 F 
ENDBRANCH  27  32
ENDBRANCH   4  23
TORSDOF 6
ENDMDL
MODEL 7
REMARK VINA RESULT:      -9.1      4.546      9.351
REMARK  6 active torsions:
REMARK  status: ('A' for Active; 'I' for Inactive)
REMARK    1  A    between atoms: C_2  and  C_3 
REMARK    2  A    between atoms: C_5  and  N_6 
REMARK       I    between atoms: N_6  and  C_7 
REMARK    3  A    between atoms: C_7  and  C_8 
REMARK    4  A    between atoms: N_11  and  C_12 
REMARK    5  A    between atoms: C_18  and  C_19 
REMARK    6  A    between atoms: C_28  and  O_29 
ROOT
HETATM    1  C   UNL     1      24.212  44.595  49.427  1.00  0.00     0.081 C 
HETATM    2  C   UNL     1      24.411  46.070  49.821  1.00  0.00     0.034 C 
HETATM    3  C   UNL     1      24.682  46.276  51.315  1.00  0.00     0.125 C 
HETATM    4  N   UNL     1      25.791  45.427  51.775  1.00  0.00    -0.364 N 
HETATM    5  C   UNL     1      25.583  43.999  51.472  1.00  0.00     0.125 C 
HETATM    6  C   UNL     1      25.389  43.789  49.978  1.00  0.00     0.034 C 
ENDROOT
BRANCH   1   7
HETATM    7  C   UNL     1      22.859  44.067  49.898  1.00  0.00     0.226 C 
HETATM    8  N   UNL     1      21.669  44.499  49.402  1.00  0.00    -0.324 N 
HETATM    9  H   UNL     1      20.924  43.884  49.717  1.00  0.00     0.169 HD
HETATM   10  O   UNL     1      22.798  43.181  50.759  1.00  0.00    -0.273 OA
BRANCH   8  11
HETATM   11  C   UNL     1      21.242  45.492  48.499  1.00  0.00     0.068 A 
HETATM   12  C   UNL     1      21.209  46.865  48.745  1.00  0.00     0.040 A 
HETATM   13  C   UNL     1      20.892  47.803  47.734  1.00  0.00    -0.048 A 
HETATM   14  C   UNL     1      20.574  47.302  46.459  1.00  0.00     0.011 A 
HETATM   15  C   UNL     1      20.526  45.931  46.213  1.00  0.00     0.039 A 
HETATM   16  C   UNL     1      20.838  45.047  47.234  1.00  0.00     0.092 A 
BRANCH  13  17
HETATM   17  C   UNL     1      20.989  49.321  47.996  1.00  0.00    -0.024 C 
HETATM   18  C   UNL     1      20.624  49.571  49.472  1.00  0.00     0.019 C 
HETATM   19  C   UNL     1      20.029  50.147  47.108  1.00  0.00     0.019 C 
HETATM   20  C   UNL     1      22.409  49.876  47.737  1.00  0.00     0.019 C 
ENDBRANCH  13  17
BRANCH  16  21
HETATM   21  O   UNL     1      20.758  43.707  46.963  1.00  0.00    -0.358 OA
HETATM   22  H   UNL     1      20.566  43.642  46.011  1.00  0.00     0.218 HD
ENDBRANCH  16  21
ENDBRANCH   8  11
ENDBRANCH   1   7
BRANCH   4  23
HETATM   23  C   UNL     1      26.572  45.748  52.894  1.00  0.00     0.146 A 
HETATM   24  N   UNL     1      27.502  44.889  53.249  1.00  0.00    -0.146 NA
HETATM   25  N   UNL     1      28.244  45.228  54.331  1.00  0.00    -0.188 N 
HETATM   26  C   UNL     1      28.131  46.362  55.098  1.00  0.00     0.175 A 
HETATM   27  C   UNL     1      29.265  44.512  54.891  1.00  0.00     0.258 A 
HETATM   28  C   UNL     1      27.150  47.295  54.722  1.00  0.00     0.058 A 
HETATM   29  N   UNL     1      29.018  46.335  56.067  1.00  0.00    -0.128 NA
HETATM   30  C   UNL     1      26.380  47.036  53.657  1.00  0.00     0.056 A 
HETATM   31  N   UNL     1      29.737  45.167  55.940  1.00  0.00    -0.123 NA
BRANCH  27  32
HETATM   32  C   UNL     1      29.688  43.225  54.323  1.00  0.00     0.454 C 
HETATM   33  F   UNL     1      30.741  42.679  54.990  1.00  0.00    -0.163 F 
HETATM   34  F   UNL     1      28.698  42.291  54.359  1.00  0.00    -0.163 F 
HETATM   35  F   UNL     1      30.060  43.326  53.018  1.00  0.00    -0.163 F 
ENDBRANCH  27  32
ENDBRANCH   4  23
TORSDOF 6
ENDMDL
MODEL 8
REMARK VINA RESULT:      -9.1      2.525      3.787
REMARK  6 active torsions:
REMARK  status: ('A' for Active; 'I' for Inactive)
REMARK    1  A    between atoms: C_2  and  C_3 
REMARK    2  A    between atoms: C_5  and  N_6 
REMARK       I    between atoms: N_6  and  C_7 
REMARK    3  A    between atoms: C_7  and  C_8 
REMARK    4  A    between atoms: N_11  and  C_12 
REMARK    5  A    between atoms: C_18  and  C_19 
REMARK    6  A    between atoms: C_28  and  O_29 
ROOT
HETATM    1  C   UNL     1      25.145  46.481  50.646  1.00  0.00     0.081 C 
HETATM    2  C   UNL     1      24.590  47.913  50.754  1.00  0.00     0.034 C 
HETATM    3  C   UNL     1      23.856  48.385  49.494  1.00  0.00     0.125 C 
HETATM    4  N   UNL     1      22.821  47.421  49.091  1.00  0.00    -0.364 N 
HETATM    5  C   UNL     1      23.350  46.056  48.910  1.00  0.00     0.125 C 
HETATM    6  C   UNL     1      24.011  45.561  50.187  1.00  0.00     0.034 C 
ENDROOT
BRANCH   1   7
HETATM    7  C   UNL     1      26.365  46.421  49.732  1.00  0.00     0.226 C 
HETATM    8  N   UNL     1      27.173  45.332  49.625  1.00  0.00    -0.324 N 
HETATM    9  H   UNL     1      27.796  45.445  48.830  1.00  0.00     0.169 HD
HETATM   10  O   UNL     1      26.656  47.385  49.012  1.00  0.00    -0.273 OA
BRANCH   8  11
HETATM   11  C   UNL     1      27.281  44.079  50.258  1.00  0.00     0.068 A 
HETATM   12  C   UNL     1      28.029  43.799  51.402  1.00  0.00     0.040 A 
HETATM   13  C   UNL     1      27.975  42.541  52.048  1.00  0.00    -0.048 A 
HETATM   14  C   UNL     1      27.154  41.552  51.476  1.00  0.00     0.011 A 
HETATM   15  C   UNL     1      26.459  41.787  50.291  1.00  0.00     0.039 A 
HETATM   16  C   UNL     1      26.546  43.032  49.687  1.00  0.00     0.092 A 
BRANCH  13  17
HETATM   17  C   UNL     1      28.708  42.298  53.383  1.00  0.00    -0.024 C 
HETATM   18  C   UNL     1      28.543  40.810  53.751  1.00  0.00     0.019 C 
HETATM   19  C   UNL     1      28.145  43.153  54.543  1.00  0.00     0.019 C 
HETATM   20  C   UNL     1      30.218  42.621  53.297  1.00  0.00     0.019 C 
ENDBRANCH  13  17
BRANCH  16  21
HETATM   21  O   UNL     1      25.869  43.219  48.512  1.00  0.00    -0.358 OA
HETATM   22  H   UNL     1      26.193  44.064  48.153  1.00  0.00     0.218 HD
ENDBRANCH  16  21
ENDBRANCH   8  11
ENDBRANCH   1   7
BRANCH   4  23
HETATM   23  C   UNL     1      21.701  47.791  48.335  1.00  0.00     0.146 A 
HETATM   24  N   UNL     1      21.245  49.015  48.487  1.00  0.00    -0.146 NA
HETATM   25  N   UNL     1      20.164  49.347  47.741  1.00  0.00    -0.188 N 
HETATM   26  C   UNL     1      19.491  48.548  46.848  1.00  0.00     0.175 A 
HETATM   27  C   UNL     1      19.512  50.548  47.716  1.00  0.00     0.258 A 
HETATM   28  C   UNL     1      19.975  47.243  46.665  1.00  0.00     0.058 A 
HETATM   29  N   UNL     1      18.489  49.216  46.321  1.00  0.00    -0.128 NA
HETATM   30  C   UNL     1      21.046  46.841  47.362  1.00  0.00     0.056 A 
HETATM   31  N   UNL     1      18.499  50.480  46.868  1.00  0.00    -0.123 NA
BRANCH  27  32
HETATM   32  C   UNL     1      19.964  51.672  48.547  1.00  0.00     0.454 C 
HETATM   33  F   UNL     1      19.324  52.834  48.249  1.00  0.00    -0.163 F 
HETATM   34  F   UNL     1      19.748  51.456  49.874  1.00  0.00    -0.163 F 
HETATM   35  F   UNL     1      21.297  51.915  48.420  1.00  0.00    -0.163 F 
ENDBRANCH  27  32
ENDBRANCH   4  23
TORSDOF 6
ENDMDL
MODEL 9
REMARK VINA RESULT:      -9.0      4.392     10.096
REMARK  6 active torsions:
REMARK  status: ('A' for Active; 'I' for Inactive)
REMARK    1  A    between atoms: C_2  and  C_3 
REMARK    2  A    between atoms: C_5  and  N_6 
REMARK       I    between atoms: N_6  and  C_7 
REMARK    3  A    between atoms: C_7  and  C_8 
REMARK    4  A    between atoms: N_11  and  C_12 
REMARK    5  A    between atoms: C_18  and  C_19 
REMARK    6  A    between atoms: C_28  and  O_29 
ROOT
HETATM    1  C   UNL     1      19.128  50.252  49.076  1.00  0.00     0.081 C 
HETATM    2  C   UNL     1      20.127  51.196  49.771  1.00  0.00     0.034 C 
HETATM    3  C   UNL     1      21.458  50.526  50.130  1.00  0.00     0.125 C 
HETATM    4  N   UNL     1      22.049  49.860  48.961  1.00  0.00    -0.364 N 
HETATM    5  C   UNL     1      21.131  48.895  48.326  1.00  0.00     0.125 C 
HETATM    6  C   UNL     1      19.841  49.580  47.902  1.00  0.00     0.034 C 
ENDROOT
BRANCH   1   7
HETATM    7  C   UNL     1      18.529  49.249  50.060  1.00  0.00     0.226 C 
HETATM    8  N   UNL     1      17.880  48.118  49.679  1.00  0.00    -0.324 N 
HETATM    9  H   UNL     1      17.739  47.516  50.485  1.00  0.00     0.169 HD
HETATM   10  O   UNL     1      18.640  49.426  51.279  1.00  0.00    -0.273 OA
BRANCH   8  11
HETATM   11  C   UNL     1      17.465  47.543  48.461  1.00  0.00     0.068 A 
HETATM   12  C   UNL     1      16.519  48.074  47.583  1.00  0.00     0.040 A 
HETATM   13  C   UNL     1      16.259  47.496  46.318  1.00  0.00    -0.048 A 
HETATM   14  C   UNL     1      16.973  46.332  45.976  1.00  0.00     0.011 A 
HETATM   15  C   UNL     1      17.865  45.743  46.870  1.00  0.00     0.039 A 
HETATM   16  C   UNL     1      18.084  46.339  48.103  1.00  0.00     0.092 A 
BRANCH  13  17
HETATM   17  C   UNL     1      15.306  48.174  45.312  1.00  0.00    -0.024 C 
HETATM   18  C   UNL     1      15.738  49.647  45.170  1.00  0.00     0.019 C 
HETATM   19  C   UNL     1      13.828  48.140  45.768  1.00  0.00     0.019 C 
HETATM   20  C   UNL     1      15.348  47.511  43.916  1.00  0.00     0.019 C 
ENDBRANCH  13  17
BRANCH  16  21
HETATM   21  O   UNL     1      18.949  45.719  48.965  1.00  0.00    -0.358 OA
HETATM   22  H   UNL     1      18.391  45.310  49.650  1.00  0.00     0.218 HD
ENDBRANCH  16  21
ENDBRANCH   8  11
ENDBRANCH   1   7
BRANCH   4  23
HETATM   23  C   UNL     1      23.426  49.622  48.846  1.00  0.00     0.146 A 
HETATM   24  N   UNL     1      23.939  48.666  49.590  1.00  0.00    -0.146 NA
HETATM   25  N   UNL     1      25.270  48.456  49.454  1.00  0.00    -0.188 N 
HETATM   26  C   UNL     1      26.142  49.129  48.632  1.00  0.00     0.175 A 
HETATM   27  C   UNL     1      26.032  47.527  50.107  1.00  0.00     0.258 A 
HETATM   28  C   UNL     1      25.605  50.142  47.822  1.00  0.00     0.058 A 
HETATM   29  N   UNL     1      27.356  48.647  48.781  1.00  0.00    -0.128 NA
HETATM   30  C   UNL     1      24.294  50.406  47.892  1.00  0.00     0.056 A 
HETATM   31  N   UNL     1      27.290  47.636  49.713  1.00  0.00    -0.123 NA
BRANCH  27  32
HETATM   32  C   UNL     1      25.430  46.600  51.075  1.00  0.00     0.454 C 
HETATM   33  F   UNL     1      24.332  45.967  50.581  1.00  0.00    -0.163 F 
HETATM   34  F   UNL     1      26.290  45.615  51.455  1.00  0.00    -0.163 F 
HETATM   35  F   UNL     1      25.041  47.221  52.223  1.00  0.00    -0.163 F 
ENDBRANCH  27  32
ENDBRANCH   4  23
TORSDOF 6
ENDMDL
MODEL 10
REMARK VINA RESULT:      -9.0      4.227      9.815
REMARK  6 active torsions:
REMARK  status: ('A' for Active; 'I' for Inactive)
REMARK    1  A    between atoms: C_2  and  C_3 
REMARK    2  A    between atoms: C_5  and  N_6 
REMARK       I    between atoms: N_6  and  C_7 
REMARK    3  A    between atoms: C_7  and  C_8 
REMARK    4  A    between atoms: N_11  and  C_12 
REMARK    5  A    between atoms: C_18  and  C_19 
REMARK    6  A    between atoms: C_28  and  O_29 
ROOT
HETATM    1  C   UNL     1      24.141  45.277  50.874  1.00  0.00     0.081 C 
HETATM    2  C   UNL     1      24.326  43.815  51.323  1.00  0.00     0.034 C 
HETATM    3  C   UNL     1      25.793  43.381  51.417  1.00  0.00     0.125 C 
HETATM    4  N   UNL     1      26.571  44.316  52.243  1.00  0.00    -0.364 N 
HETATM    5  C   UNL     1      26.466  45.713  51.781  1.00  0.00     0.125 C 
HETATM    6  C   UNL     1      25.014  46.165  51.763  1.00  0.00     0.034 C 
ENDROOT
BRANCH   1   7
HETATM    7  C   UNL     1      24.441  45.447  49.387  1.00  0.00     0.226 C 
HETATM    8  N   UNL     1      23.929  46.449  48.626  1.00  0.00    -0.324 N 
HETATM    9  H   UNL     1      24.407  46.478  47.730  1.00  0.00     0.169 HD
HETATM   10  O   UNL     1      25.209  44.666  48.810  1.00  0.00    -0.273 OA
BRANCH   8  11
HETATM   11  C   UNL     1      23.002  47.494  48.808  1.00  0.00     0.068 A 
HETATM   12  C   UNL     1      21.617  47.398  48.662  1.00  0.00     0.040 A 
HETATM   13  C   UNL     1      20.750  48.465  48.995  1.00  0.00    -0.048 A 
HETATM   14  C   UNL     1      21.335  49.659  49.456  1.00  0.00     0.011 A 
HETATM   15  C   UNL     1      22.719  49.801  49.536  1.00  0.00     0.039 A 
HETATM   16  C   UNL     1      23.532  48.732  49.193  1.00  0.00     0.092 A 
BRANCH  13  17
HETATM   17  C   UNL     1      19.218  48.291  48.949  1.00  0.00    -0.024 C 
HETATM   18  C   UNL     1      18.672  48.529  50.371  1.00  0.00     0.019 C 
HETATM   19  C   UNL     1      18.787  46.878  48.491  1.00  0.00     0.019 C 
HETATM   20  C   UNL     1      18.536  49.289  47.985  1.00  0.00     0.019 C 
ENDBRANCH  13  17
BRANCH  16  21
HETATM   21  O   UNL     1      24.888  48.915  49.261  1.00  0.00    -0.358 OA
HETATM   22  H   UNL     1      25.204  48.295  49.942  1.00  0.00     0.218 HD
ENDBRANCH  16  21
ENDBRANCH   8  11
ENDBRANCH   1   7
BRANCH   4  23
HETATM   23  C   UNL     1      27.746  43.936  52.907  1.00  0.00     0.146 A 
HETATM   24  N   UNL     1      28.101  44.639  53.959  1.00  0.00    -0.146 NA
HETATM   25  N   UNL     1      29.238  44.247  54.583  1.00  0.00    -0.188 N 
HETATM   26  C   UNL     1      30.061  43.202  54.237  1.00  0.00     0.175 A 
HETATM   27  C   UNL     1      29.809  44.806  55.691  1.00  0.00     0.258 A 
HETATM   28  C   UNL     1      29.686  42.433  53.123  1.00  0.00     0.058 A 
HETATM   29  N   UNL     1      31.072  43.135  55.074  1.00  0.00    -0.128 NA
HETATM   30  C   UNL     1      28.569  42.753  52.456  1.00  0.00     0.056 A 
HETATM   31  N   UNL     1      30.916  44.148  55.994  1.00  0.00    -0.123 NA
BRANCH  27  32
HETATM   32  C   UNL     1      29.192  45.960  56.360  1.00  0.00     0.454 C 
HETATM   33  F   UNL     1      29.048  47.029  55.533  1.00  0.00    -0.163 F 
HETATM   34  F   UNL     1      27.946  45.681  56.832  1.00  0.00    -0.163 F 
HETATM   35  F   UNL     1      29.912  46.388  57.433  1.00  0.00    -0.163 F 
ENDBRANCH  27  32
ENDBRANCH   4  23
TORSDOF 6
ENDMDL
