MODEL 1
REMARK VINA RESULT:     -10.0      0.000      0.000
REMARK  5 active torsions:
REMARK  status: ('A' for Active; 'I' for Inactive)
REMARK    1  A    between atoms: C_2  and  C_3 
REMARK    2  A    between atoms: C_8  and  N_9 
REMARK       I    between atoms: N_9  and  C_10 
REMARK       I    between atoms: C_10  and  N_11 
REMARK    3  A    between atoms: N_11  and  C_12 
REMARK    4  A    between atoms: C_12  and  C_13 
REMARK    5  A    between atoms: C_13  and  C_14 
ROOT
HETATM    1  N   UNL     1      24.597  47.921  49.956  1.00  0.00    -0.305 N 
HETATM    2  C   UNL     1      25.116  46.656  50.086  1.00  0.00     0.320 C 
HETATM    3  N   UNL     1      24.635  46.048  51.229  1.00  0.00    -0.343 N 
HETATM    4  O   UNL     1      25.870  46.090  49.309  1.00  0.00    -0.247 OA
HETATM    5  H   UNL     1      23.742  48.090  50.466  1.00  0.00     0.171 HD
HETATM    6  H   UNL     1      24.456  46.668  52.005  1.00  0.00     0.164 HD
ENDROOT
BRANCH   3   7
HETATM    7  C   UNL     1      25.052  44.695  51.555  1.00  0.00     0.129 C 
BRANCH   7   8
HETATM    8  C   UNL     1      25.042  44.414  53.062  1.00  0.00     0.058 C 
BRANCH   8   9
HETATM    9  C   UNL     1      26.330  44.630  53.827  1.00  0.00    -0.056 A 
HETATM   10  C   UNL     1      27.356  43.677  53.894  1.00  0.00     0.019 A 
HETATM   11  C   UNL     1      28.552  43.930  54.594  1.00  0.00    -0.025 A 
HETATM   12  C   UNL     1      28.731  45.179  55.229  1.00  0.00    -0.026 A 
HETATM   13  C   UNL     1      29.574  42.970  54.671  1.00  0.00     0.012 A 
HETATM   14  C   UNL     1      27.715  46.139  55.148  1.00  0.00     0.013 A 
HETATM   15  C   UNL     1      29.927  45.434  55.921  1.00  0.00     0.012 A 
HETATM   16  C   UNL     1      26.533  45.868  54.453  1.00  0.00     0.008 A 
HETATM   17  C   UNL     1      30.932  44.469  55.988  1.00  0.00     0.001 A 
HETATM   18  C   UNL     1      30.756  43.238  55.364  1.00  0.00     0.001 A 
ENDBRANCH   8   9
ENDBRANCH   7   8
ENDBRANCH   3   7
BRANCH   1  19
HETATM   19  C   UNL     1      24.925  48.841  48.972  1.00  0.00     0.095 A 
HETATM   20  C   UNL     1      23.983  49.455  48.172  1.00  0.00     0.107 A 
HETATM   21  O   UNL     1      24.599  50.299  47.308  1.00  0.00    -0.215 OA
HETATM   22  N   UNL     1      25.957  50.277  47.530  1.00  0.00    -0.131 NA
HETATM   23  C   UNL     1      26.157  49.410  48.534  1.00  0.00     0.087 A 
HETATM   24  C   UNL     1      27.540  49.224  49.033  1.00  0.00     0.075 C 
BRANCH  20  25
HETATM   25  C   UNL     1      22.506  49.382  48.056  1.00  0.00     0.065 C 
HETATM   26  C   UNL     1      21.854  50.737  48.279  1.00  0.00     0.012 C 
ENDBRANCH  20  25
ENDBRANCH   1  19
TORSDOF 5
ENDMDL
MODEL 2
REMARK VINA RESULT:      -9.8      1.085      1.971
REMARK  5 active torsions:
REMARK  status: ('A' for Active; 'I' for Inactive)
REMARK    1  A    between atoms: C_2  and  C_3 
REMARK    2  A    between atoms: C_8  and  N_9 
REMARK       I    between atoms: N_9  and  C_10 
REMARK       I    between atoms: C_10  and  N_11 
REMARK    3  A    between atoms: N_11  and  C_12 
REMARK    4  A    between atoms: C_12  and  C_13 
REMARK    5  A    between atoms: C_13  and  C_14 
ROOT
HETATM    1  N   UNL     1      24.625  48.032  50.237  1.00  0.00    -0.305 N 
HETATM    2  C   UNL     1      25.637  47.192  50.633  1.00  0.00     0.320 C 
HETATM    3  N   UNL     1      25.357  46.640  51.867  1.00  0.00    -0.343 N 
HETATM    4  O   UNL     1      26.645  46.909  50.001  1.00  0.00    -0.247 OA
HETATM    5  H   UNL     1      23.735  47.875  50.687  1.00  0.00     0.171 HD
HETATM    6  H   UNL     1      24.837  47.234  52.497  1.00  0.00     0.164 HD
ENDROOT
BRANCH   3   7
HETATM    7  C   UNL     1      26.297  45.711  52.471  1.00  0.00     0.129 C 
BRANCH   7   8
HETATM    8  C   UNL     1      26.830  46.195  53.824  1.00  0.00     0.058 C 
BRANCH   8   9
HETATM    9  C   UNL     1      27.994  45.443  54.432  1.00  0.00    -0.056 A 
HETATM   10  C   UNL     1      28.607  45.814  55.638  1.00  0.00     0.019 A 
HETATM   11  C   UNL     1      29.669  45.068  56.184  1.00  0.00    -0.025 A 
HETATM   12  C   UNL     1      30.119  43.910  55.513  1.00  0.00    -0.026 A 
HETATM   13  C   UNL     1      30.290  45.448  57.385  1.00  0.00     0.012 A 
HETATM   14  C   UNL     1      29.497  43.528  54.317  1.00  0.00     0.013 A 
HETATM   15  C   UNL     1      31.175  43.162  56.061  1.00  0.00     0.012 A 
HETATM   16  C   UNL     1      28.446  44.282  53.788  1.00  0.00     0.008 A 
HETATM   17  C   UNL     1      31.781  43.554  57.255  1.00  0.00     0.001 A 
HETATM   18  C   UNL     1      31.339  44.696  57.916  1.00  0.00     0.001 A 
ENDBRANCH   8   9
ENDBRANCH   7   8
ENDBRANCH   3   7
BRANCH   1  19
HETATM   19  C   UNL     1      24.613  48.812  49.090  1.00  0.00     0.095 A 
HETATM   20  C   UNL     1      23.486  48.988  48.314  1.00  0.00     0.107 A 
HETATM   21  O   UNL     1      23.778  49.798  47.265  1.00  0.00    -0.215 OA
HETATM   22  N   UNL     1      25.096  50.189  47.336  1.00  0.00    -0.131 NA
HETATM   23  C   UNL     1      25.599  49.606  48.435  1.00  0.00     0.087 A 
HETATM   24  C   UNL     1      27.005  49.899  48.801  1.00  0.00     0.075 C 
BRANCH  20  25
HETATM   25  C   UNL     1      22.089  48.495  48.375  1.00  0.00     0.065 C 
HETATM   26  C   UNL     1      21.120  49.456  47.705  1.00  0.00     0.012 C 
ENDBRANCH  20  25
ENDBRANCH   1  19
TORSDOF 5
ENDMDL
MODEL 3
REMARK VINA RESULT:      -9.6      1.153      2.768
REMARK  5 active torsions:
REMARK  status: ('A' for Active; 'I' for Inactive)
REMARK    1  A    between atoms: C_2  and  C_3 
REMARK    2  A    between atoms: C_8  and  N_9 
REMARK       I    between atoms: N_9  and  C_10 
REMARK       I    between atoms: C_10  and  N_11 
REMARK    3  A    between atoms: N_11  and  C_12 
REMARK    4  A    between atoms: C_12  and  C_13 
REMARK    5  A    between atoms: C_13  and  C_14 
ROOT
HETATM    1  N   UNL     1      24.639  47.931  50.315  1.00  0.00    -0.305 N 
HETATM    2  C   UNL     1      24.776  46.564  50.356  1.00  0.00     0.320 C 
HETATM    3  N   UNL     1      25.112  46.147  51.629  1.00  0.00    -0.343 N 
HETATM    4  O   UNL     1      24.597  45.782  49.435  1.00  0.00    -0.247 OA
HETATM    5  H   UNL     1      24.466  48.373  51.207  1.00  0.00     0.171 HD
HETATM    6  H   UNL     1      25.687  46.789  52.156  1.00  0.00     0.164 HD
ENDROOT
BRANCH   3   7
HETATM    7  C   UNL     1      25.297  44.731  51.898  1.00  0.00     0.129 C 
BRANCH   7   8
HETATM    8  C   UNL     1      26.651  44.203  51.411  1.00  0.00     0.058 C 
BRANCH   8   9
HETATM    9  C   UNL     1      27.746  44.020  52.439  1.00  0.00    -0.056 A 
HETATM   10  C   UNL     1      27.876  44.825  53.580  1.00  0.00     0.019 A 
HETATM   11  C   UNL     1      28.893  44.601  54.528  1.00  0.00    -0.025 A 
HETATM   12  C   UNL     1      29.795  43.531  54.336  1.00  0.00    -0.026 A 
HETATM   13  C   UNL     1      29.029  45.416  55.663  1.00  0.00     0.012 A 
HETATM   14  C   UNL     1      29.656  42.715  53.206  1.00  0.00     0.013 A 
HETATM   15  C   UNL     1      30.806  43.304  55.284  1.00  0.00     0.012 A 
HETATM   16  C   UNL     1      28.643  42.955  52.274  1.00  0.00     0.008 A 
HETATM   17  C   UNL     1      30.927  44.123  56.407  1.00  0.00     0.001 A 
HETATM   18  C   UNL     1      30.040  45.179  56.596  1.00  0.00     0.001 A 
ENDBRANCH   8   9
ENDBRANCH   7   8
ENDBRANCH   3   7
BRANCH   1  19
HETATM   19  C   UNL     1      24.386  48.692  49.184  1.00  0.00     0.095 A 
HETATM   20  C   UNL     1      25.351  49.460  48.565  1.00  0.00     0.107 A 
HETATM   21  O   UNL     1      24.811  50.089  47.490  1.00  0.00    -0.215 OA
HETATM   22  N   UNL     1      23.487  49.735  47.364  1.00  0.00    -0.131 NA
HETATM   23  C   UNL     1      23.229  48.889  48.374  1.00  0.00     0.087 A 
HETATM   24  C   UNL     1      21.876  48.292  48.459  1.00  0.00     0.075 C 
BRANCH  20  25
HETATM   25  C   UNL     1      26.785  49.740  48.820  1.00  0.00     0.065 C 
HETATM   26  C   UNL     1      27.590  48.462  48.984  1.00  0.00     0.012 C 
ENDBRANCH  20  25
ENDBRANCH   1  19
TORSDOF 5
ENDMDL
MODEL 4
REMARK VINA RESULT:      -9.4      1.808      2.879
REMARK  5 active torsions:
REMARK  status: ('A' for Active; 'I' for Inactive)
REMARK    1  A    between atoms: C_2  and  C_3 
REMARK    2  A    between atoms: C_8  and  N_9 
REMARK       I    between atoms: N_9  and  C_10 
REMARK       I    between atoms: C_10  and  N_11 
REMARK    3  A    between atoms: N_11  and  C_12 
REMARK    4  A    between atoms: C_12  and  C_13 
REMARK    5  A    between atoms: C_13  and  C_14 
ROOT
HETATM    1  N   UNL     1      23.806  47.363  50.386  1.00  0.00    -0.305 N 
HETATM    2  C   UNL     1      24.831  46.498  50.681  1.00  0.00     0.320 C 
HETATM    3  N   UNL     1      25.254  46.671  51.984  1.00  0.00    -0.343 N 
HETATM    4  O   UNL     1      25.310  45.650  49.943  1.00  0.00    -0.247 OA
HETATM    5  H   UNL     1      23.306  47.726  51.185  1.00  0.00     0.171 HD
HETATM    6  H   UNL     1      25.194  47.616  52.336  1.00  0.00     0.164 HD
ENDROOT
BRANCH   3   7
HETATM    7  C   UNL     1      26.330  45.846  52.508  1.00  0.00     0.129 C 
BRANCH   7   8
HETATM    8  C   UNL     1      26.889  46.367  53.836  1.00  0.00     0.058 C 
BRANCH   8   9
HETATM    9  C   UNL     1      28.027  45.597  54.472  1.00  0.00    -0.056 A 
HETATM   10  C   UNL     1      28.609  45.952  55.697  1.00  0.00     0.019 A 
HETATM   11  C   UNL     1      29.647  45.189  56.267  1.00  0.00    -0.025 A 
HETATM   12  C   UNL     1      30.102  44.031  55.600  1.00  0.00    -0.026 A 
HETATM   13  C   UNL     1      30.237  45.552  57.489  1.00  0.00     0.012 A 
HETATM   14  C   UNL     1      29.511  43.666  54.384  1.00  0.00     0.013 A 
HETATM   15  C   UNL     1      31.134  43.267  56.172  1.00  0.00     0.012 A 
HETATM   16  C   UNL     1      28.484  44.436  53.831  1.00  0.00     0.008 A 
HETATM   17  C   UNL     1      31.709  43.643  57.386  1.00  0.00     0.001 A 
HETATM   18  C   UNL     1      31.262  44.784  58.044  1.00  0.00     0.001 A 
ENDBRANCH   8   9
ENDBRANCH   7   8
ENDBRANCH   3   7
BRANCH   1  19
HETATM   19  C   UNL     1      23.197  47.517  49.149  1.00  0.00     0.095 A 
HETATM   20  C   UNL     1      23.238  48.696  48.434  1.00  0.00     0.107 A 
HETATM   21  O   UNL     1      22.559  48.545  47.269  1.00  0.00    -0.215 OA
HETATM   22  N   UNL     1      22.073  47.260  47.181  1.00  0.00    -0.131 NA
HETATM   23  C   UNL     1      22.461  46.636  48.303  1.00  0.00     0.087 A 
HETATM   24  C   UNL     1      22.124  45.202  48.460  1.00  0.00     0.075 C 
BRANCH  20  25
HETATM   25  C   UNL     1      23.831  50.036  48.662  1.00  0.00     0.065 C 
HETATM   26  C   UNL     1      22.881  50.955  49.411  1.00  0.00     0.012 C 
ENDBRANCH  20  25
ENDBRANCH   1  19
TORSDOF 5
ENDMDL
MODEL 5
REMARK VINA RESULT:      -9.4      3.185      4.539
REMARK  5 active torsions:
REMARK  status: ('A' for Active; 'I' for Inactive)
REMARK    1  A    between atoms: C_2  and  C_3 
REMARK    2  A    between atoms: C_8  and  N_9 
REMARK       I    between atoms: N_9  and  C_10 
REMARK       I    between atoms: C_10  and  N_11 
REMARK    3  A    between atoms: N_11  and  C_12 
REMARK    4  A    between atoms: C_12  and  C_13 
REMARK    5  A    between atoms: C_13  and  C_14 
ROOT
HETATM    1  N   UNL     1      25.358  43.395  51.828  1.00  0.00    -0.305 N 
HETATM    2  C   UNL     1      26.596  42.860  51.566  1.00  0.00     0.320 C 
HETATM    3  N   UNL     1      27.053  42.137  52.650  1.00  0.00    -0.343 N 
HETATM    4  O   UNL     1      27.229  42.951  50.524  1.00  0.00    -0.247 OA
HETATM    5  H   UNL     1      24.839  42.939  52.564  1.00  0.00     0.171 HD
HETATM    6  H   UNL     1      26.768  42.487  53.554  1.00  0.00     0.164 HD
ENDROOT
BRANCH   3   7
HETATM    7  C   UNL     1      28.346  41.477  52.583  1.00  0.00     0.129 C 
BRANCH   7   8
HETATM    8  C   UNL     1      29.521  42.454  52.694  1.00  0.00     0.058 C 
BRANCH   8   9
HETATM    9  C   UNL     1      29.589  43.337  53.921  1.00  0.00    -0.056 A 
HETATM   10  C   UNL     1      30.493  43.128  54.973  1.00  0.00     0.019 A 
HETATM   11  C   UNL     1      30.543  43.992  56.084  1.00  0.00    -0.025 A 
HETATM   12  C   UNL     1      29.675  45.105  56.134  1.00  0.00    -0.026 A 
HETATM   13  C   UNL     1      31.440  43.775  57.142  1.00  0.00     0.012 A 
HETATM   14  C   UNL     1      28.784  45.326  55.077  1.00  0.00     0.013 A 
HETATM   15  C   UNL     1      29.729  45.971  57.240  1.00  0.00     0.012 A 
HETATM   16  C   UNL     1      28.746  44.455  53.984  1.00  0.00     0.008 A 
HETATM   17  C   UNL     1      30.626  45.741  58.283  1.00  0.00     0.001 A 
HETATM   18  C   UNL     1      31.480  44.643  58.235  1.00  0.00     0.001 A 
ENDBRANCH   8   9
ENDBRANCH   7   8
ENDBRANCH   3   7
BRANCH   1  19
HETATM   19  C   UNL     1      24.641  44.240  50.994  1.00  0.00     0.095 A 
HETATM   20  C   UNL     1      24.900  45.591  50.892  1.00  0.00     0.107 A 
HETATM   21  O   UNL     1      24.042  46.153  50.004  1.00  0.00    -0.215 OA
HETATM   22  N   UNL     1      23.213  45.185  49.487  1.00  0.00    -0.131 NA
HETATM   23  C   UNL     1      23.574  44.032  50.071  1.00  0.00     0.087 A 
HETATM   24  C   UNL     1      22.880  42.790  49.658  1.00  0.00     0.075 C 
BRANCH  20  25
HETATM   25  C   UNL     1      25.867  46.519  51.527  1.00  0.00     0.065 C 
HETATM   26  C   UNL     1      25.679  46.590  53.034  1.00  0.00     0.012 C 
ENDBRANCH  20  25
ENDBRANCH   1  19
TORSDOF 5
ENDMDL
MODEL 6
REMARK VINA RESULT:      -9.3      5.341      7.820
REMARK  5 active torsions:
REMARK  status: ('A' for Active; 'I' for Inactive)
REMARK    1  A    between atoms: C_2  and  C_3 
REMARK    2  A    between atoms: C_8  and  N_9 
REMARK       I    between atoms: N_9  and  C_10 
REMARK       I    between atoms: C_10  and  N_11 
REMARK    3  A    between atoms: N_11  and  C_12 
REMARK    4  A    between atoms: C_12  and  C_13 
REMARK    5  A    between atoms: C_13  and  C_14 
ROOT
HETATM    1  N   UNL     1      27.661  39.982  51.001  1.00  0.00    -0.305 N 
HETATM    2  C   UNL     1      27.388  41.328  50.979  1.00  0.00     0.320 C 
HETATM    3  N   UNL     1      27.061  41.779  52.243  1.00  0.00    -0.343 N 
HETATM    4  O   UNL     1      27.448  42.073  50.012  1.00  0.00    -0.247 OA
HETATM    5  H   UNL     1      27.913  39.609  51.905  1.00  0.00     0.171 HD
HETATM    6  H   UNL     1      26.575  41.113  52.827  1.00  0.00     0.164 HD
ENDROOT
BRANCH   3   7
HETATM    7  C   UNL     1      26.743  43.182  52.447  1.00  0.00     0.129 C 
BRANCH   7   8
HETATM    8  C   UNL     1      27.985  44.079  52.471  1.00  0.00     0.058 C 
BRANCH   8   9
HETATM    9  C   UNL     1      28.589  44.411  53.819  1.00  0.00    -0.056 A 
HETATM   10  C   UNL     1      29.625  43.668  54.404  1.00  0.00     0.019 A 
HETATM   11  C   UNL     1      30.178  44.029  55.648  1.00  0.00    -0.025 A 
HETATM   12  C   UNL     1      29.691  45.174  56.316  1.00  0.00    -0.026 A 
HETATM   13  C   UNL     1      31.207  43.278  56.238  1.00  0.00     0.012 A 
HETATM   14  C   UNL     1      28.668  45.927  55.725  1.00  0.00     0.013 A 
HETATM   15  C   UNL     1      30.247  45.538  57.554  1.00  0.00     0.012 A 
HETATM   16  C   UNL     1      28.128  45.551  54.492  1.00  0.00     0.008 A 
HETATM   17  C   UNL     1      31.269  44.780  58.126  1.00  0.00     0.001 A 
HETATM   18  C   UNL     1      31.748  43.651  57.469  1.00  0.00     0.001 A 
ENDBRANCH   8   9
ENDBRANCH   7   8
ENDBRANCH   3   7
BRANCH   1  19
HETATM   19  C   UNL     1      27.946  39.189  49.900  1.00  0.00     0.095 A 
HETATM   20  C   UNL     1      29.029  38.336  49.848  1.00  0.00     0.107 A 
HETATM   21  O   UNL     1      29.048  37.695  48.653  1.00  0.00    -0.215 OA
HETATM   22  N   UNL     1      27.969  38.095  47.897  1.00  0.00    -0.131 NA
HETATM   23  C   UNL     1      27.299  38.985  48.646  1.00  0.00     0.087 A 
HETATM   24  C   UNL     1      26.041  39.550  48.103  1.00  0.00     0.075 C 
BRANCH  20  25
HETATM   25  C   UNL     1      30.134  37.994  50.777  1.00  0.00     0.065 C 
HETATM   26  C   UNL     1      29.863  36.700  51.526  1.00  0.00     0.012 C 
ENDBRANCH  20  25
ENDBRANCH   1  19
TORSDOF 5
ENDMDL
MODEL 7
REMARK VINA RESULT:      -9.0      5.343      7.284
REMARK  5 active torsions:
REMARK  status: ('A' for Active; 'I' for Inactive)
REMARK    1  A    between atoms: C_2  and  C_3 
REMARK    2  A    between atoms: C_8  and  N_9 
REMARK       I    between atoms: N_9  and  C_10 
REMARK       I    between atoms: C_10  and  N_11 
REMARK    3  A    between atoms: N_11  and  C_12 
REMARK    4  A    between atoms: C_12  and  C_13 
REMARK    5  A    between atoms: C_13  and  C_14 
ROOT
HETATM    1  N   UNL     1      28.638  40.728  50.270  1.00  0.00    -0.305 N 
HETATM    2  C   UNL     1      27.602  41.247  51.008  1.00  0.00     0.320 C 
HETATM    3  N   UNL     1      28.024  42.343  51.735  1.00  0.00    -0.343 N 
HETATM    4  O   UNL     1      26.445  40.855  51.024  1.00  0.00    -0.247 OA
HETATM    5  H   UNL     1      29.402  41.364  50.094  1.00  0.00     0.171 HD
HETATM    6  H   UNL     1      28.982  42.308  52.052  1.00  0.00     0.164 HD
ENDROOT
BRANCH   3   7
HETATM    7  C   UNL     1      27.080  43.053  52.582  1.00  0.00     0.129 C 
BRANCH   7   8
HETATM    8  C   UNL     1      27.519  44.488  52.893  1.00  0.00     0.058 C 
BRANCH   8   9
HETATM    9  C   UNL     1      28.301  44.724  54.168  1.00  0.00    -0.056 A 
HETATM   10  C   UNL     1      29.348  43.895  54.595  1.00  0.00     0.019 A 
HETATM   11  C   UNL     1      30.069  44.168  55.773  1.00  0.00    -0.025 A 
HETATM   12  C   UNL     1      29.744  45.311  56.535  1.00  0.00    -0.026 A 
HETATM   13  C   UNL     1      31.110  43.330  56.206  1.00  0.00     0.012 A 
HETATM   14  C   UNL     1      28.709  46.150  56.101  1.00  0.00     0.013 A 
HETATM   15  C   UNL     1      30.468  45.588  57.707  1.00  0.00     0.012 A 
HETATM   16  C   UNL     1      28.002  45.862  54.931  1.00  0.00     0.008 A 
HETATM   17  C   UNL     1      31.498  44.744  58.124  1.00  0.00     0.001 A 
HETATM   18  C   UNL     1      31.819  43.616  57.374  1.00  0.00     0.001 A 
ENDBRANCH   8   9
ENDBRANCH   7   8
ENDBRANCH   3   7
BRANCH   1  19
HETATM   19  C   UNL     1      28.590  39.583  49.489  1.00  0.00     0.095 A 
HETATM   20  C   UNL     1      28.012  39.551  48.237  1.00  0.00     0.107 A 
HETATM   21  O   UNL     1      28.117  38.301  47.719  1.00  0.00    -0.215 OA
HETATM   22  N   UNL     1      28.782  37.487  48.607  1.00  0.00    -0.131 NA
HETATM   23  C   UNL     1      29.076  38.254  49.668  1.00  0.00     0.087 A 
HETATM   24  C   UNL     1      29.855  37.650  50.775  1.00  0.00     0.075 C 
BRANCH  20  25
HETATM   25  C   UNL     1      27.323  40.545  47.380  1.00  0.00     0.065 C 
HETATM   26  C   UNL     1      28.197  40.997  46.221  1.00  0.00     0.012 C 
ENDBRANCH  20  25
ENDBRANCH   1  19
TORSDOF 5
ENDMDL
MODEL 8
REMARK VINA RESULT:      -9.0      1.750      3.147
REMARK  5 active torsions:
REMARK  status: ('A' for Active; 'I' for Inactive)
REMARK    1  A    between atoms: C_2  and  C_3 
REMARK    2  A    between atoms: C_8  and  N_9 
REMARK       I    between atoms: N_9  and  C_10 
REMARK       I    between atoms: C_10  and  N_11 
REMARK    3  A    between atoms: N_11  and  C_12 
REMARK    4  A    between atoms: C_12  and  C_13 
REMARK    5  A    between atoms: C_13  and  C_14 
ROOT
HETATM    1  N   UNL     1      25.265  46.096  49.607  1.00  0.00    -0.305 N 
HETATM    2  C   UNL     1      25.736  45.557  50.780  1.00  0.00     0.320 C 
HETATM    3  N   UNL     1      25.973  44.205  50.634  1.00  0.00    -0.343 N 
HETATM    4  O   UNL     1      25.967  46.156  51.820  1.00  0.00    -0.247 OA
HETATM    5  H   UNL     1      25.473  45.562  48.775  1.00  0.00     0.171 HD
HETATM    6  H   UNL     1      25.350  43.723  50.001  1.00  0.00     0.164 HD
ENDROOT
BRANCH   3   7
HETATM    7  C   UNL     1      26.486  43.438  51.756  1.00  0.00     0.129 C 
BRANCH   7   8
HETATM    8  C   UNL     1      28.013  43.301  51.738  1.00  0.00     0.058 C 
BRANCH   8   9
HETATM    9  C   UNL     1      28.762  43.608  53.017  1.00  0.00    -0.056 A 
HETATM   10  C   UNL     1      28.350  44.582  53.937  1.00  0.00     0.019 A 
HETATM   11  C   UNL     1      29.061  44.817  55.130  1.00  0.00    -0.025 A 
HETATM   12  C   UNL     1      30.207  44.043  55.415  1.00  0.00    -0.026 A 
HETATM   13  C   UNL     1      28.653  45.800  56.045  1.00  0.00     0.012 A 
HETATM   14  C   UNL     1      30.612  43.058  54.505  1.00  0.00     0.013 A 
HETATM   15  C   UNL     1      30.914  44.273  56.608  1.00  0.00     0.012 A 
HETATM   16  C   UNL     1      29.895  42.842  53.325  1.00  0.00     0.008 A 
HETATM   17  C   UNL     1      30.495  45.255  57.507  1.00  0.00     0.001 A 
HETATM   18  C   UNL     1      29.367  46.018  57.225  1.00  0.00     0.001 A 
ENDBRANCH   8   9
ENDBRANCH   7   8
ENDBRANCH   3   7
BRANCH   1  19
HETATM   19  C   UNL     1      24.850  47.405  49.418  1.00  0.00     0.095 A 
HETATM   20  C   UNL     1      25.726  48.469  49.354  1.00  0.00     0.107 A 
HETATM   21  O   UNL     1      25.032  49.619  49.165  1.00  0.00    -0.215 OA
HETATM   22  N   UNL     1      23.687  49.339  49.079  1.00  0.00    -0.131 NA
HETATM   23  C   UNL     1      23.573  48.010  49.223  1.00  0.00     0.087 A 
HETATM   24  C   UNL     1      22.224  47.407  49.115  1.00  0.00     0.075 C 
BRANCH  20  25
HETATM   25  C   UNL     1      27.198  48.616  49.454  1.00  0.00     0.065 C 
HETATM   26  C   UNL     1      27.678  49.927  48.853  1.00  0.00     0.012 C 
ENDBRANCH  20  25
ENDBRANCH   1  19
TORSDOF 5
ENDMDL
MODEL 9
REMARK VINA RESULT:      -8.8      2.213      2.684
REMARK  5 active torsions:
REMARK  status: ('A' for Active; 'I' for Inactive)
REMARK    1  A    between atoms: C_2  and  C_3 
REMARK    2  A    between atoms: C_8  and  N_9 
REMARK       I    between atoms: N_9  and  C_10 
REMARK       I    between atoms: C_10  and  N_11 
REMARK    3  A    between atoms: N_11  and  C_12 
REMARK    4  A    between atoms: C_12  and  C_13 
REMARK    5  A    between atoms: C_13  and  C_14 
ROOT
HETATM    1  N   UNL     1      22.474  47.606  49.157  1.00  0.00    -0.305 N 
HETATM    2  C   UNL     1      23.680  47.572  49.814  1.00  0.00     0.320 C 
HETATM    3  N   UNL     1      24.068  46.269  50.053  1.00  0.00    -0.343 N 
HETATM    4  O   UNL     1      24.370  48.531  50.129  1.00  0.00    -0.247 OA
HETATM    5  H   UNL     1      22.228  46.758  48.666  1.00  0.00     0.171 HD
HETATM    6  H   UNL     1      23.315  45.618  50.222  1.00  0.00     0.164 HD
ENDROOT
BRANCH   3   7
HETATM    7  C   UNL     1      25.325  46.004  50.732  1.00  0.00     0.129 C 
BRANCH   7   8
HETATM    8  C   UNL     1      25.140  45.275  52.068  1.00  0.00     0.058 C 
BRANCH   8   9
HETATM    9  C   UNL     1      26.293  45.298  53.048  1.00  0.00    -0.056 A 
HETATM   10  C   UNL     1      27.226  44.258  53.166  1.00  0.00     0.019 A 
HETATM   11  C   UNL     1      28.302  44.333  54.072  1.00  0.00    -0.025 A 
HETATM   12  C   UNL     1      28.456  45.489  54.869  1.00  0.00    -0.026 A 
HETATM   13  C   UNL     1      29.229  43.286  54.198  1.00  0.00     0.012 A 
HETATM   14  C   UNL     1      27.535  46.536  54.741  1.00  0.00     0.013 A 
HETATM   15  C   UNL     1      29.533  45.566  55.769  1.00  0.00     0.012 A 
HETATM   16  C   UNL     1      26.471  46.442  53.839  1.00  0.00     0.008 A 
HETATM   17  C   UNL     1      30.444  44.516  55.881  1.00  0.00     0.001 A 
HETATM   18  C   UNL     1      30.292  43.377  55.097  1.00  0.00     0.001 A 
ENDBRANCH   8   9
ENDBRANCH   7   8
ENDBRANCH   3   7
BRANCH   1  19
HETATM   19  C   UNL     1      21.753  48.745  48.831  1.00  0.00     0.095 A 
HETATM   20  C   UNL     1      20.422  48.908  49.152  1.00  0.00     0.107 A 
HETATM   21  O   UNL     1      19.991  50.115  48.707  1.00  0.00    -0.215 OA
HETATM   22  N   UNL     1      21.031  50.782  48.101  1.00  0.00    -0.131 NA
HETATM   23  C   UNL     1      22.094  49.967  48.180  1.00  0.00     0.087 A 
HETATM   24  C   UNL     1      23.390  50.454  47.652  1.00  0.00     0.075 C 
BRANCH  20  25
HETATM   25  C   UNL     1      19.405  48.077  49.841  1.00  0.00     0.065 C 
HETATM   26  C   UNL     1      18.704  48.845  50.950  1.00  0.00     0.012 C 
ENDBRANCH  20  25
ENDBRANCH   1  19
TORSDOF 5
ENDMDL
MODEL 10
REMARK VINA RESULT:      -8.7      2.692      4.050
REMARK  5 active torsions:
REMARK  status: ('A' for Active; 'I' for Inactive)
REMARK    1  A    between atoms: C_2  and  C_3 
REMARK    2  A    between atoms: C_8  and  N_9 
REMARK       I    between atoms: N_9  and  C_10 
REMARK       I    between atoms: C_10  and  N_11 
REMARK    3  A    between atoms: N_11  and  C_12 
REMARK    4  A    between atoms: C_12  and  C_13 
REMARK    5  A    between atoms: C_13  and  C_14 
ROOT
HETATM    1  N   UNL     1      26.351  44.374  49.891  1.00  0.00    -0.305 N 
HETATM    2  C   UNL     1      26.510  43.557  50.984  1.00  0.00     0.320 C 
HETATM    3  N   UNL     1      27.776  43.006  51.000  1.00  0.00    -0.343 N 
HETATM    4  O   UNL     1      25.691  43.345  51.866  1.00  0.00    -0.247 OA
HETATM    5  H   UNL     1      27.208  44.714  49.479  1.00  0.00     0.171 HD
HETATM    6  H   UNL     1      28.177  42.819  50.092  1.00  0.00     0.164 HD
ENDROOT
BRANCH   3   7
HETATM    7  C   UNL     1      28.160  42.113  52.080  1.00  0.00     0.129 C 
BRANCH   7   8
HETATM    8  C   UNL     1      29.529  42.453  52.678  1.00  0.00     0.058 C 
BRANCH   8   9
HETATM    9  C   UNL     1      29.560  43.334  53.909  1.00  0.00    -0.056 A 
HETATM   10  C   UNL     1      30.493  43.180  54.945  1.00  0.00     0.019 A 
HETATM   11  C   UNL     1      30.505  44.041  56.059  1.00  0.00    -0.025 A 
HETATM   12  C   UNL     1      29.568  45.095  56.130  1.00  0.00    -0.026 A 
HETATM   13  C   UNL     1      31.432  43.877  57.101  1.00  0.00     0.012 A 
HETATM   14  C   UNL     1      28.647  45.261  55.088  1.00  0.00     0.013 A 
HETATM   15  C   UNL     1      29.584  45.958  57.239  1.00  0.00     0.012 A 
HETATM   16  C   UNL     1      28.647  44.395  53.992  1.00  0.00     0.008 A 
HETATM   17  C   UNL     1      30.512  45.781  58.266  1.00  0.00     0.001 A 
HETATM   18  C   UNL     1      31.435  44.742  58.198  1.00  0.00     0.001 A 
ENDBRANCH   8   9
ENDBRANCH   7   8
ENDBRANCH   3   7
BRANCH   1  19
HETATM   19  C   UNL     1      25.183  45.023  49.520  1.00  0.00     0.095 A 
HETATM   20  C   UNL     1      24.152  44.393  48.856  1.00  0.00     0.107 A 
HETATM   21  O   UNL     1      23.149  45.277  48.628  1.00  0.00    -0.215 OA
HETATM   22  N   UNL     1      23.486  46.504  49.154  1.00  0.00    -0.131 NA
HETATM   23  C   UNL     1      24.704  46.354  49.698  1.00  0.00     0.087 A 
HETATM   24  C   UNL     1      25.305  47.514  50.398  1.00  0.00     0.075 C 
BRANCH  20  25
HETATM   25  C   UNL     1      23.922  43.017  48.351  1.00  0.00     0.065 C 
HETATM   26  C   UNL     1      23.433  43.017  46.911  1.00  0.00     0.012 C 
ENDBRANCH  20  25
ENDBRANCH   1  19
TORSDOF 5
ENDMDL
