MODEL 1
REMARK VINA RESULT:     -11.1      0.000      0.000
REMARK  6 active torsions:
REMARK  status: ('A' for Active; 'I' for Inactive)
REMARK    1  A    between atoms: C_2  and  O_4 
REMARK    2  A    between atoms: O_4  and  C_5 
REMARK    3  A    between atoms: C_9  and  N_10 
REMARK    4  A    between atoms: N_10  and  C_11 
REMARK    5  A    between atoms: N_14  and  C_17 
REMARK    6  A    between atoms: C_20  and  C_23 
ROOT
HETATM    1  C   UNL     1      22.528  47.692  48.409  1.00  0.00     0.176 C 
HETATM    2  C   UNL     1      22.687  46.212  48.094  1.00  0.00     0.055 C 
HETATM    3  C   UNL     1      23.125  45.610  49.415  1.00  0.00     0.135 C 
HETATM    4  N   UNL     1      23.910  46.644  50.046  1.00  0.00    -0.316 N 
HETATM    5  C   UNL     1      23.542  47.903  49.541  1.00  0.00     0.247 C 
HETATM    6  O   UNL     1      23.894  49.014  49.918  1.00  0.00    -0.271 OA
ENDROOT
BRANCH   4   7
HETATM    7  C   UNL     1      24.850  46.387  51.083  1.00  0.00     0.037 A 
HETATM    8  C   UNL     1      24.729  45.277  51.932  1.00  0.00     0.030 A 
HETATM    9  C   UNL     1      25.619  45.065  52.993  1.00  0.00     0.016 A 
HETATM   10  C   UNL     1      26.636  45.984  53.243  1.00  0.00    -0.005 A 
HETATM   11  C   UNL     1      26.811  47.066  52.382  1.00  0.00     0.016 A 
HETATM   12  C   UNL     1      25.926  47.263  51.313  1.00  0.00     0.030 A 
BRANCH  10  13
HETATM   13  C   UNL     1      27.573  45.800  54.381  1.00  0.00     0.098 A 
HETATM   14  N   UNL     1      27.424  46.603  55.394  1.00  0.00    -0.170 NA
HETATM   15  N   UNL     1      28.295  46.508  56.432  1.00  0.00    -0.242 N 
HETATM   16  C   UNL     1      29.378  45.667  56.505  1.00  0.00     0.272 A 
HETATM   17  H   UNL     1      28.171  47.170  57.192  1.00  0.00     0.192 HD
HETATM   18  O   UNL     1      30.160  45.684  57.449  1.00  0.00    -0.266 OA
HETATM   19  C   UNL     1      29.537  44.717  55.394  1.00  0.00     0.046 A 
HETATM   20  C   UNL     1      30.571  43.773  55.419  1.00  0.00     0.018 A 
HETATM   21  C   UNL     1      28.623  44.746  54.342  1.00  0.00     0.011 A 
HETATM   22  C   UNL     1      30.682  42.836  54.392  1.00  0.00     0.001 A 
HETATM   23  C   UNL     1      29.748  42.832  53.356  1.00  0.00     0.001 A 
HETATM   24  C   UNL     1      28.716  43.775  53.335  1.00  0.00     0.015 A 
ENDBRANCH  10  13
ENDBRANCH   4   7
BRANCH   1  25
HETATM   25  N   UNL     1      21.160  47.961  48.861  1.00  0.00    -0.377 N 
HETATM   26  H   UNL     1      20.864  47.375  49.642  1.00  0.00     0.160 HD
BRANCH  25  27
HETATM   27  C   UNL     1      20.638  49.252  48.930  1.00  0.00     0.031 A 
HETATM   28  C   UNL     1      21.169  50.360  48.261  1.00  0.00     0.029 A 
HETATM   29  C   UNL     1      20.555  51.615  48.332  1.00  0.00     0.005 A 
HETATM   30  C   UNL     1      19.362  51.769  49.030  1.00  0.00     0.037 A 
HETATM   31  C   UNL     1      18.776  50.668  49.649  1.00  0.00     0.077 A 
HETATM   32  C   UNL     1      19.426  49.429  49.617  1.00  0.00     0.066 A 
BRANCH  31  33
HETATM   33  O   UNL     1      17.586  50.909  50.277  1.00  0.00    -0.290 OA
BRANCH  33  34
HETATM   34  C   UNL     1      16.748  51.839  49.608  1.00  0.00     0.505 C 
HETATM   35  F   UNL     1      15.637  51.198  49.171  1.00  0.00    -0.184 F 
HETATM   36  F   UNL     1      16.336  52.747  50.529  1.00  0.00    -0.184 F 
ENDBRANCH  33  34
ENDBRANCH  31  33
ENDBRANCH  25  27
ENDBRANCH   1  25
TORSDOF 6
ENDMDL
MODEL 2
REMARK VINA RESULT:     -10.9      1.589      2.104
REMARK  6 active torsions:
REMARK  status: ('A' for Active; 'I' for Inactive)
REMARK    1  A    between atoms: C_2  and  O_4 
REMARK    2  A    between atoms: O_4  and  C_5 
REMARK    3  A    between atoms: C_9  and  N_10 
REMARK    4  A    between atoms: N_10  and  C_11 
REMARK    5  A    between atoms: N_14  and  C_17 
REMARK    6  A    between atoms: C_20  and  C_23 
ROOT
HETATM    1  C   UNL     1      22.374  47.621  48.457  1.00  0.00     0.176 C 
HETATM    2  C   UNL     1      22.253  46.202  47.924  1.00  0.00     0.055 C 
HETATM    3  C   UNL     1      22.806  45.348  49.049  1.00  0.00     0.135 C 
HETATM    4  N   UNL     1      23.832  46.163  49.656  1.00  0.00    -0.316 N 
HETATM    5  C   UNL     1      23.581  47.523  49.400  1.00  0.00     0.247 C 
HETATM    6  O   UNL     1      24.154  48.507  49.850  1.00  0.00    -0.271 OA
ENDROOT
BRANCH   4   7
HETATM    7  C   UNL     1      24.880  45.630  50.457  1.00  0.00     0.037 A 
HETATM    8  C   UNL     1      24.642  45.125  51.744  1.00  0.00     0.030 A 
HETATM    9  C   UNL     1      25.688  44.662  52.554  1.00  0.00     0.016 A 
HETATM   10  C   UNL     1      27.003  44.726  52.098  1.00  0.00    -0.005 A 
HETATM   11  C   UNL     1      27.260  45.173  50.803  1.00  0.00     0.016 A 
HETATM   12  C   UNL     1      26.207  45.619  49.992  1.00  0.00     0.030 A 
BRANCH  10  13
HETATM   13  C   UNL     1      28.133  44.273  52.950  1.00  0.00     0.098 A 
HETATM   14  N   UNL     1      28.819  43.258  52.515  1.00  0.00    -0.170 NA
HETATM   15  N   UNL     1      29.826  42.774  53.288  1.00  0.00    -0.242 N 
HETATM   16  C   UNL     1      30.172  43.222  54.539  1.00  0.00     0.272 A 
HETATM   17  H   UNL     1      30.321  41.961  52.935  1.00  0.00     0.192 HD
HETATM   18  O   UNL     1      31.052  42.692  55.207  1.00  0.00    -0.266 OA
HETATM   19  C   UNL     1      29.441  44.400  55.030  1.00  0.00     0.046 A 
HETATM   20  C   UNL     1      29.776  44.971  56.265  1.00  0.00     0.018 A 
HETATM   21  C   UNL     1      28.444  44.960  54.234  1.00  0.00     0.011 A 
HETATM   22  C   UNL     1      29.121  46.123  56.699  1.00  0.00     0.001 A 
HETATM   23  C   UNL     1      28.150  46.713  55.890  1.00  0.00     0.001 A 
HETATM   24  C   UNL     1      27.819  46.141  54.657  1.00  0.00     0.015 A 
ENDBRANCH  10  13
ENDBRANCH   4   7
BRANCH   1  25
HETATM   25  N   UNL     1      21.156  47.986  49.186  1.00  0.00    -0.377 N 
HETATM   26  H   UNL     1      21.073  47.532  50.096  1.00  0.00     0.160 HD
BRANCH  25  27
HETATM   27  C   UNL     1      20.645  49.283  49.184  1.00  0.00     0.031 A 
HETATM   28  C   UNL     1      21.227  50.364  48.512  1.00  0.00     0.029 A 
HETATM   29  C   UNL     1      20.624  51.626  48.508  1.00  0.00     0.005 A 
HETATM   30  C   UNL     1      19.393  51.813  49.129  1.00  0.00     0.037 A 
HETATM   31  C   UNL     1      18.760  50.738  49.746  1.00  0.00     0.077 A 
HETATM   32  C   UNL     1      19.397  49.493  49.792  1.00  0.00     0.066 A 
BRANCH  31  33
HETATM   33  O   UNL     1      17.538  51.010  50.296  1.00  0.00    -0.290 OA
BRANCH  33  34
HETATM   34  C   UNL     1      16.607  51.590  49.394  1.00  0.00     0.505 C 
HETATM   35  F   UNL     1      16.085  50.614  48.611  1.00  0.00    -0.184 F 
HETATM   36  F   UNL     1      15.582  52.084  50.134  1.00  0.00    -0.184 F 
ENDBRANCH  33  34
ENDBRANCH  31  33
ENDBRANCH  25  27
ENDBRANCH   1  25
TORSDOF 6
ENDMDL
MODEL 3
REMARK VINA RESULT:     -10.1      4.756     11.518
REMARK  6 active torsions:
REMARK  status: ('A' for Active; 'I' for Inactive)
REMARK    1  A    between atoms: C_2  and  O_4 
REMARK    2  A    between atoms: O_4  and  C_5 
REMARK    3  A    between atoms: C_9  and  N_10 
REMARK    4  A    between atoms: N_10  and  C_11 
REMARK    5  A    between atoms: N_14  and  C_17 
REMARK    6  A    between atoms: C_20  and  C_23 
ROOT
HETATM    1  C   UNL     1      26.700  44.092  52.114  1.00  0.00     0.176 C 
HETATM    2  C   UNL     1      27.519  44.309  50.850  1.00  0.00     0.055 C 
HETATM    3  C   UNL     1      26.856  45.506  50.195  1.00  0.00     0.135 C 
HETATM    4  N   UNL     1      25.460  45.384  50.539  1.00  0.00    -0.316 N 
HETATM    5  C   UNL     1      25.317  44.621  51.711  1.00  0.00     0.247 C 
HETATM    6  O   UNL     1      24.307  44.409  52.371  1.00  0.00    -0.271 OA
ENDROOT
BRANCH   4   7
HETATM    7  C   UNL     1      24.419  46.030  49.814  1.00  0.00     0.037 A 
HETATM    8  C   UNL     1      24.282  47.426  49.803  1.00  0.00     0.030 A 
HETATM    9  C   UNL     1      23.217  48.053  49.143  1.00  0.00     0.016 A 
HETATM   10  C   UNL     1      22.246  47.285  48.504  1.00  0.00    -0.005 A 
HETATM   11  C   UNL     1      22.388  45.900  48.454  1.00  0.00     0.016 A 
HETATM   12  C   UNL     1      23.465  45.280  49.103  1.00  0.00     0.030 A 
BRANCH  10  13
HETATM   13  C   UNL     1      21.088  47.923  47.824  1.00  0.00     0.098 A 
HETATM   14  N   UNL     1      20.520  47.238  46.876  1.00  0.00    -0.170 NA
HETATM   15  N   UNL     1      19.494  47.806  46.190  1.00  0.00    -0.242 N 
HETATM   16  C   UNL     1      19.014  49.081  46.360  1.00  0.00     0.272 A 
HETATM   17  H   UNL     1      19.094  47.258  45.434  1.00  0.00     0.192 HD
HETATM   18  O   UNL     1      18.126  49.548  45.657  1.00  0.00    -0.266 OA
HETATM   19  C   UNL     1      19.609  49.855  47.460  1.00  0.00     0.046 A 
HETATM   20  C   UNL     1      19.131  51.139  47.755  1.00  0.00     0.018 A 
HETATM   21  C   UNL     1      20.621  49.279  48.225  1.00  0.00     0.011 A 
HETATM   22  C   UNL     1      19.657  51.845  48.835  1.00  0.00     0.001 A 
HETATM   23  C   UNL     1      20.643  51.260  49.630  1.00  0.00     0.001 A 
HETATM   24  C   UNL     1      21.117  49.978  49.334  1.00  0.00     0.015 A 
ENDBRANCH  10  13
ENDBRANCH   4   7
BRANCH   1  25
HETATM   25  N   UNL     1      27.268  44.873  53.217  1.00  0.00    -0.377 N 
HETATM   26  H   UNL     1      26.569  45.372  53.768  1.00  0.00     0.160 HD
BRANCH  25  27
HETATM   27  C   UNL     1      28.331  44.408  53.991  1.00  0.00     0.031 A 
HETATM   28  C   UNL     1      28.953  43.167  53.819  1.00  0.00     0.029 A 
HETATM   29  C   UNL     1      30.054  42.793  54.598  1.00  0.00     0.005 A 
HETATM   30  C   UNL     1      30.587  43.683  55.525  1.00  0.00     0.037 A 
HETATM   31  C   UNL     1      30.028  44.950  55.668  1.00  0.00     0.077 A 
HETATM   32  C   UNL     1      28.895  45.294  54.923  1.00  0.00     0.066 A 
BRANCH  31  33
HETATM   33  O   UNL     1      30.643  45.767  56.575  1.00  0.00    -0.290 OA
BRANCH  33  34
HETATM   34  C   UNL     1      29.990  45.839  57.834  1.00  0.00     0.505 C 
HETATM   35  F   UNL     1      30.141  44.656  58.478  1.00  0.00    -0.184 F 
HETATM   36  F   UNL     1      30.643  46.770  58.575  1.00  0.00    -0.184 F 
ENDBRANCH  33  34
ENDBRANCH  31  33
ENDBRANCH  25  27
ENDBRANCH   1  25
TORSDOF 6
ENDMDL
MODEL 4
REMARK VINA RESULT:      -9.8      2.696      3.207
REMARK  6 active torsions:
REMARK  status: ('A' for Active; 'I' for Inactive)
REMARK    1  A    between atoms: C_2  and  O_4 
REMARK    2  A    between atoms: O_4  and  C_5 
REMARK    3  A    between atoms: C_9  and  N_10 
REMARK    4  A    between atoms: N_10  and  C_11 
REMARK    5  A    between atoms: N_14  and  C_17 
REMARK    6  A    between atoms: C_20  and  C_23 
ROOT
HETATM    1  C   UNL     1      22.332  48.776  48.567  1.00  0.00     0.176 C 
HETATM    2  C   UNL     1      21.926  47.695  47.576  1.00  0.00     0.055 C 
HETATM    3  C   UNL     1      22.207  46.404  48.319  1.00  0.00     0.135 C 
HETATM    4  N   UNL     1      23.352  46.699  49.147  1.00  0.00    -0.316 N 
HETATM    5  C   UNL     1      23.428  48.082  49.388  1.00  0.00     0.247 C 
HETATM    6  O   UNL     1      24.181  48.691  50.138  1.00  0.00    -0.271 OA
ENDROOT
BRANCH   4   7
HETATM    7  C   UNL     1      24.205  45.696  49.687  1.00  0.00     0.037 A 
HETATM    8  C   UNL     1      23.722  44.704  50.553  1.00  0.00     0.030 A 
HETATM    9  C   UNL     1      24.578  43.758  51.134  1.00  0.00     0.016 A 
HETATM   10  C   UNL     1      25.946  43.809  50.880  1.00  0.00    -0.005 A 
HETATM   11  C   UNL     1      26.443  44.751  49.981  1.00  0.00     0.016 A 
HETATM   12  C   UNL     1      25.579  45.683  49.390  1.00  0.00     0.030 A 
BRANCH  10  13
HETATM   13  C   UNL     1      26.880  42.840  51.509  1.00  0.00     0.098 A 
HETATM   14  N   UNL     1      26.921  41.649  50.988  1.00  0.00    -0.170 NA
HETATM   15  N   UNL     1      27.719  40.713  51.566  1.00  0.00    -0.242 N 
HETATM   16  C   UNL     1      28.467  40.880  52.705  1.00  0.00     0.272 A 
HETATM   17  H   UNL     1      27.703  39.785  51.155  1.00  0.00     0.192 HD
HETATM   18  O   UNL     1      29.114  39.968  53.206  1.00  0.00    -0.266 OA
HETATM   19  C   UNL     1      28.474  42.233  53.282  1.00  0.00     0.046 A 
HETATM   20  C   UNL     1      29.267  42.515  54.403  1.00  0.00     0.018 A 
HETATM   21  C   UNL     1      27.716  43.233  52.677  1.00  0.00     0.011 A 
HETATM   22  C   UNL     1      29.316  43.813  54.910  1.00  0.00     0.001 A 
HETATM   23  C   UNL     1      28.591  44.828  54.286  1.00  0.00     0.001 A 
HETATM   24  C   UNL     1      27.802  44.543  53.168  1.00  0.00     0.015 A 
ENDBRANCH  10  13
ENDBRANCH   4   7
BRANCH   1  25
HETATM   25  N   UNL     1      21.187  49.138  49.407  1.00  0.00    -0.377 N 
HETATM   26  H   UNL     1      21.418  49.231  50.397  1.00  0.00     0.160 HD
BRANCH  25  27
HETATM   27  C   UNL     1      20.216  50.050  48.994  1.00  0.00     0.031 A 
HETATM   28  C   UNL     1      20.357  51.441  49.058  1.00  0.00     0.029 A 
HETATM   29  C   UNL     1      19.362  52.294  48.569  1.00  0.00     0.005 A 
HETATM   30  C   UNL     1      18.231  51.767  47.954  1.00  0.00     0.037 A 
HETATM   31  C   UNL     1      18.099  50.389  47.816  1.00  0.00     0.077 A 
HETATM   32  C   UNL     1      19.073  49.542  48.356  1.00  0.00     0.066 A 
BRANCH  31  33
HETATM   33  O   UNL     1      16.973  49.967  47.163  1.00  0.00    -0.290 OA
BRANCH  33  34
HETATM   34  C   UNL     1      15.758  50.310  47.812  1.00  0.00     0.505 C 
HETATM   35  F   UNL     1      15.028  51.102  46.989  1.00  0.00    -0.184 F 
HETATM   36  F   UNL     1      15.050  49.164  47.976  1.00  0.00    -0.184 F 
ENDBRANCH  33  34
ENDBRANCH  31  33
ENDBRANCH  25  27
ENDBRANCH   1  25
TORSDOF 6
ENDMDL
MODEL 5
REMARK VINA RESULT:      -9.5     14.926     18.077
REMARK  6 active torsions:
REMARK  status: ('A' for Active; 'I' for Inactive)
REMARK    1  A    between atoms: C_2  and  O_4 
REMARK    2  A    between atoms: O_4  and  C_5 
REMARK    3  A    between atoms: C_9  and  N_10 
REMARK    4  A    between atoms: N_10  and  C_11 
REMARK    5  A    between atoms: N_14  and  C_17 
REMARK    6  A    between atoms: C_20  and  C_23 
ROOT
HETATM    1  C   UNL     1      39.092  53.306  44.030  1.00  0.00     0.176 C 
HETATM    2  C   UNL     1      38.891  53.768  42.595  1.00  0.00     0.055 C 
HETATM    3  C   UNL     1      37.384  53.758  42.423  1.00  0.00     0.135 C 
HETATM    4  N   UNL     1      36.929  52.669  43.255  1.00  0.00    -0.316 N 
HETATM    5  C   UNL     1      37.868  52.412  44.268  1.00  0.00     0.247 C 
HETATM    6  O   UNL     1      37.775  51.655  45.227  1.00  0.00    -0.271 OA
ENDROOT
BRANCH   4   7
HETATM    7  C   UNL     1      35.667  52.032  43.085  1.00  0.00     0.037 A 
HETATM    8  C   UNL     1      35.374  51.265  41.948  1.00  0.00     0.030 A 
HETATM    9  C   UNL     1      34.109  50.696  41.754  1.00  0.00     0.016 A 
HETATM   10  C   UNL     1      33.098  50.912  42.687  1.00  0.00    -0.005 A 
HETATM   11  C   UNL     1      33.379  51.625  43.852  1.00  0.00     0.016 A 
HETATM   12  C   UNL     1      34.652  52.178  44.047  1.00  0.00     0.030 A 
BRANCH  10  13
HETATM   13  C   UNL     1      31.737  50.347  42.490  1.00  0.00     0.098 A 
HETATM   14  N   UNL     1      31.536  49.143  42.938  1.00  0.00    -0.170 NA
HETATM   15  N   UNL     1      30.324  48.566  42.729  1.00  0.00    -0.242 N 
HETATM   16  C   UNL     1      29.277  49.114  42.030  1.00  0.00     0.272 A 
HETATM   17  H   UNL     1      30.210  47.614  43.063  1.00  0.00     0.192 HD
HETATM   18  O   UNL     1      28.233  48.505  41.826  1.00  0.00    -0.266 OA
HETATM   19  C   UNL     1      29.466  50.493  41.557  1.00  0.00     0.046 A 
HETATM   20  C   UNL     1      28.424  51.159  40.897  1.00  0.00     0.018 A 
HETATM   21  C   UNL     1      30.675  51.138  41.809  1.00  0.00     0.011 A 
HETATM   22  C   UNL     1      28.586  52.486  40.503  1.00  0.00     0.001 A 
HETATM   23  C   UNL     1      29.779  53.151  40.788  1.00  0.00     0.001 A 
HETATM   24  C   UNL     1      30.816  52.484  41.447  1.00  0.00     0.015 A 
ENDBRANCH  10  13
ENDBRANCH   4   7
BRANCH   1  25
HETATM   25  N   UNL     1      39.091  54.462  44.931  1.00  0.00    -0.377 N 
HETATM   26  H   UNL     1      38.338  55.126  44.744  1.00  0.00     0.160 HD
BRANCH  25  27
HETATM   27  C   UNL     1      39.383  54.350  46.290  1.00  0.00     0.031 A 
HETATM   28  C   UNL     1      38.423  54.237  47.301  1.00  0.00     0.029 A 
HETATM   29  C   UNL     1      38.794  54.069  48.639  1.00  0.00     0.005 A 
HETATM   30  C   UNL     1      40.138  53.953  48.981  1.00  0.00     0.037 A 
HETATM   31  C   UNL     1      41.110  53.993  47.986  1.00  0.00     0.077 A 
HETATM   32  C   UNL     1      40.732  54.216  46.658  1.00  0.00     0.066 A 
BRANCH  31  33
HETATM   33  O   UNL     1      42.399  53.832  48.414  1.00  0.00    -0.290 OA
BRANCH  33  34
HETATM   34  C   UNL     1      43.256  54.922  48.112  1.00  0.00     0.505 C 
HETATM   35  F   UNL     1      42.554  56.077  48.218  1.00  0.00    -0.184 F 
HETATM   36  F   UNL     1      44.214  54.961  49.072  1.00  0.00    -0.184 F 
ENDBRANCH  33  34
ENDBRANCH  31  33
ENDBRANCH  25  27
ENDBRANCH   1  25
TORSDOF 6
ENDMDL
MODEL 6
REMARK VINA RESULT:      -9.4     13.523     16.514
REMARK  6 active torsions:
REMARK  status: ('A' for Active; 'I' for Inactive)
REMARK    1  A    between atoms: C_2  and  O_4 
REMARK    2  A    between atoms: O_4  and  C_5 
REMARK    3  A    between atoms: C_9  and  N_10 
REMARK    4  A    between atoms: N_10  and  C_11 
REMARK    5  A    between atoms: N_14  and  C_17 
REMARK    6  A    between atoms: C_20  and  C_23 
ROOT
HETATM    1  C   UNL     1      36.140  51.787  43.124  1.00  0.00     0.176 C 
HETATM    2  C   UNL     1      36.502  50.725  42.097  1.00  0.00     0.055 C 
HETATM    3  C   UNL     1      35.245  50.594  41.258  1.00  0.00     0.135 C 
HETATM    4  N   UNL     1      34.163  50.844  42.180  1.00  0.00    -0.316 N 
HETATM    5  C   UNL     1      34.622  51.612  43.265  1.00  0.00     0.247 C 
HETATM    6  O   UNL     1      33.976  52.120  44.173  1.00  0.00    -0.271 OA
ENDROOT
BRANCH   4   7
HETATM    7  C   UNL     1      32.824  50.424  41.944  1.00  0.00     0.037 A 
HETATM    8  C   UNL     1      32.138  49.600  42.847  1.00  0.00     0.030 A 
HETATM    9  C   UNL     1      30.844  49.135  42.578  1.00  0.00     0.016 A 
HETATM   10  C   UNL     1      30.221  49.464  41.376  1.00  0.00    -0.005 A 
HETATM   11  C   UNL     1      30.860  50.326  40.486  1.00  0.00     0.016 A 
HETATM   12  C   UNL     1      32.148  50.801  40.770  1.00  0.00     0.030 A 
BRANCH  10  13
HETATM   13  C   UNL     1      28.863  48.958  41.051  1.00  0.00     0.098 A 
HETATM   14  N   UNL     1      27.861  49.701  41.418  1.00  0.00    -0.170 NA
HETATM   15  N   UNL     1      26.600  49.250  41.191  1.00  0.00    -0.242 N 
HETATM   16  C   UNL     1      26.260  48.035  40.650  1.00  0.00     0.272 A 
HETATM   17  H   UNL     1      25.840  49.839  41.519  1.00  0.00     0.192 HD
HETATM   18  O   UNL     1      25.096  47.669  40.536  1.00  0.00    -0.266 OA
HETATM   19  C   UNL     1      27.377  47.200  40.183  1.00  0.00     0.046 A 
HETATM   20  C   UNL     1      27.122  45.975  39.550  1.00  0.00     0.018 A 
HETATM   21  C   UNL     1      28.682  47.661  40.343  1.00  0.00     0.011 A 
HETATM   22  C   UNL     1      28.181  45.215  39.057  1.00  0.00     0.001 A 
HETATM   23  C   UNL     1      29.488  45.688  39.177  1.00  0.00     0.001 A 
HETATM   24  C   UNL     1      29.738  46.911  39.808  1.00  0.00     0.015 A 
ENDBRANCH  10  13
ENDBRANCH   4   7
BRANCH   1  25
HETATM   25  N   UNL     1      36.477  53.117  42.607  1.00  0.00    -0.377 N 
HETATM   26  H   UNL     1      35.702  53.579  42.131  1.00  0.00     0.160 HD
BRANCH  25  27
HETATM   27  C   UNL     1      37.284  54.009  43.311  1.00  0.00     0.031 A 
HETATM   28  C   UNL     1      38.093  54.985  42.718  1.00  0.00     0.029 A 
HETATM   29  C   UNL     1      38.832  55.885  43.493  1.00  0.00     0.005 A 
HETATM   30  C   UNL     1      38.728  55.860  44.880  1.00  0.00     0.037 A 
HETATM   31  C   UNL     1      37.878  54.944  45.493  1.00  0.00     0.077 A 
HETATM   32  C   UNL     1      37.185  54.012  44.712  1.00  0.00     0.066 A 
BRANCH  31  33
HETATM   33  O   UNL     1      37.813  55.020  46.857  1.00  0.00    -0.290 OA
BRANCH  33  34
HETATM   34  C   UNL     1      38.520  53.992  47.535  1.00  0.00     0.505 C 
HETATM   35  F   UNL     1      39.752  54.451  47.868  1.00  0.00    -0.184 F 
HETATM   36  F   UNL     1      37.867  53.753  48.700  1.00  0.00    -0.184 F 
ENDBRANCH  33  34
ENDBRANCH  31  33
ENDBRANCH  25  27
ENDBRANCH   1  25
TORSDOF 6
ENDMDL
MODEL 7
REMARK VINA RESULT:      -9.3      4.872     11.402
REMARK  6 active torsions:
REMARK  status: ('A' for Active; 'I' for Inactive)
REMARK    1  A    between atoms: C_2  and  O_4 
REMARK    2  A    between atoms: O_4  and  C_5 
REMARK    3  A    between atoms: C_9  and  N_10 
REMARK    4  A    between atoms: N_10  and  C_11 
REMARK    5  A    between atoms: N_14  and  C_17 
REMARK    6  A    between atoms: C_20  and  C_23 
ROOT
HETATM    1  C   UNL     1      26.616  43.312  52.440  1.00  0.00     0.176 C 
HETATM    2  C   UNL     1      26.655  42.312  51.294  1.00  0.00     0.055 C 
HETATM    3  C   UNL     1      26.095  43.092  50.120  1.00  0.00     0.135 C 
HETATM    4  N   UNL     1      25.127  43.989  50.705  1.00  0.00    -0.316 N 
HETATM    5  C   UNL     1      25.434  44.213  52.058  1.00  0.00     0.247 C 
HETATM    6  O   UNL     1      24.920  45.002  52.841  1.00  0.00    -0.271 OA
ENDROOT
BRANCH   4   7
HETATM    7  C   UNL     1      24.078  44.597  49.960  1.00  0.00     0.037 A 
HETATM    8  C   UNL     1      24.142  45.939  49.555  1.00  0.00     0.030 A 
HETATM    9  C   UNL     1      23.078  46.553  48.880  1.00  0.00     0.016 A 
HETATM   10  C   UNL     1      21.911  45.837  48.624  1.00  0.00    -0.005 A 
HETATM   11  C   UNL     1      21.843  44.487  48.967  1.00  0.00     0.016 A 
HETATM   12  C   UNL     1      22.918  43.876  49.628  1.00  0.00     0.030 A 
BRANCH  10  13
HETATM   13  C   UNL     1      20.756  46.472  47.939  1.00  0.00     0.098 A 
HETATM   14  N   UNL     1      19.918  47.121  48.693  1.00  0.00    -0.170 NA
HETATM   15  N   UNL     1      18.817  47.671  48.116  1.00  0.00    -0.242 N 
HETATM   16  C   UNL     1      18.457  47.565  46.796  1.00  0.00     0.272 A 
HETATM   17  H   UNL     1      18.166  48.142  48.737  1.00  0.00     0.192 HD
HETATM   18  O   UNL     1      17.412  48.034  46.360  1.00  0.00    -0.266 OA
HETATM   19  C   UNL     1      19.415  46.878  45.917  1.00  0.00     0.046 A 
HETATM   20  C   UNL     1      19.166  46.787  44.541  1.00  0.00     0.018 A 
HETATM   21  C   UNL     1      20.585  46.358  46.465  1.00  0.00     0.011 A 
HETATM   22  C   UNL     1      20.105  46.187  43.703  1.00  0.00     0.001 A 
HETATM   23  C   UNL     1      21.297  45.699  44.237  1.00  0.00     0.001 A 
HETATM   24  C   UNL     1      21.543  45.792  45.611  1.00  0.00     0.015 A 
ENDBRANCH  10  13
ENDBRANCH   4   7
BRANCH   1  25
HETATM   25  N   UNL     1      27.870  44.070  52.485  1.00  0.00    -0.377 N 
HETATM   26  H   UNL     1      27.805  44.994  52.056  1.00  0.00     0.160 HD
BRANCH  25  27
HETATM   27  C   UNL     1      28.715  44.050  53.594  1.00  0.00     0.031 A 
HETATM   28  C   UNL     1      29.737  43.115  53.795  1.00  0.00     0.029 A 
HETATM   29  C   UNL     1      30.584  43.194  54.906  1.00  0.00     0.005 A 
HETATM   30  C   UNL     1      30.458  44.247  55.806  1.00  0.00     0.037 A 
HETATM   31  C   UNL     1      29.494  45.228  55.592  1.00  0.00     0.077 A 
HETATM   32  C   UNL     1      28.617  45.111  54.508  1.00  0.00     0.066 A 
BRANCH  31  33
HETATM   33  O   UNL     1      29.472  46.243  56.508  1.00  0.00    -0.290 OA
BRANCH  33  34
HETATM   34  C   UNL     1      29.672  45.825  57.849  1.00  0.00     0.505 C 
HETATM   35  F   UNL     1      30.492  46.709  58.469  1.00  0.00    -0.184 F 
HETATM   36  F   UNL     1      28.472  45.900  58.480  1.00  0.00    -0.184 F 
ENDBRANCH  33  34
ENDBRANCH  31  33
ENDBRANCH  25  27
ENDBRANCH   1  25
TORSDOF 6
ENDMDL
MODEL 8
REMARK VINA RESULT:      -9.3      2.293      3.015
REMARK  6 active torsions:
REMARK  status: ('A' for Active; 'I' for Inactive)
REMARK    1  A    between atoms: C_2  and  O_4 
REMARK    2  A    between atoms: O_4  and  C_5 
REMARK    3  A    between atoms: C_9  and  N_10 
REMARK    4  A    between atoms: N_10  and  C_11 
REMARK    5  A    between atoms: N_14  and  C_17 
REMARK    6  A    between atoms: C_20  and  C_23 
ROOT
HETATM    1  C   UNL     1      21.610  46.280  47.445  1.00  0.00     0.176 C 
HETATM    2  C   UNL     1      21.780  44.797  47.152  1.00  0.00     0.055 C 
HETATM    3  C   UNL     1      22.400  44.250  48.423  1.00  0.00     0.135 C 
HETATM    4  N   UNL     1      23.221  45.327  48.923  1.00  0.00    -0.316 N 
HETATM    5  C   UNL     1      22.749  46.558  48.436  1.00  0.00     0.247 C 
HETATM    6  O   UNL     1      23.107  47.690  48.736  1.00  0.00    -0.271 OA
ENDROOT
BRANCH   4   7
HETATM    7  C   UNL     1      24.292  45.130  49.840  1.00  0.00     0.037 A 
HETATM    8  C   UNL     1      25.584  45.609  49.580  1.00  0.00     0.030 A 
HETATM    9  C   UNL     1      26.650  45.356  50.454  1.00  0.00     0.016 A 
HETATM   10  C   UNL     1      26.445  44.586  51.596  1.00  0.00    -0.005 A 
HETATM   11  C   UNL     1      25.159  44.144  51.905  1.00  0.00     0.016 A 
HETATM   12  C   UNL     1      24.095  44.415  51.035  1.00  0.00     0.030 A 
BRANCH  10  13
HETATM   13  C   UNL     1      27.564  44.274  52.523  1.00  0.00     0.098 A 
HETATM   14  N   UNL     1      28.309  43.255  52.213  1.00  0.00    -0.170 NA
HETATM   15  N   UNL     1      29.309  42.899  53.061  1.00  0.00    -0.242 N 
HETATM   16  C   UNL     1      29.592  43.486  54.270  1.00  0.00     0.272 A 
HETATM   17  H   UNL     1      29.851  42.079  52.807  1.00  0.00     0.192 HD
HETATM   18  O   UNL     1      30.471  43.067  55.014  1.00  0.00    -0.266 OA
HETATM   19  C   UNL     1      28.793  44.671  54.616  1.00  0.00     0.046 A 
HETATM   20  C   UNL     1      29.060  45.378  55.797  1.00  0.00     0.018 A 
HETATM   21  C   UNL     1      27.800  45.101  53.738  1.00  0.00     0.011 A 
HETATM   22  C   UNL     1      28.341  46.535  56.091  1.00  0.00     0.001 A 
HETATM   23  C   UNL     1      27.373  46.994  55.199  1.00  0.00     0.001 A 
HETATM   24  C   UNL     1      27.109  46.287  54.021  1.00  0.00     0.015 A 
ENDBRANCH  10  13
ENDBRANCH   4   7
BRANCH   1  25
HETATM   25  N   UNL     1      20.301  46.521  48.059  1.00  0.00    -0.377 N 
HETATM   26  H   UNL     1      20.233  46.189  49.021  1.00  0.00     0.160 HD
BRANCH  25  27
HETATM   27  C   UNL     1      19.580  47.695  47.842  1.00  0.00     0.031 A 
HETATM   28  C   UNL     1      18.838  47.969  46.688  1.00  0.00     0.029 A 
HETATM   29  C   UNL     1      18.091  49.145  46.567  1.00  0.00     0.005 A 
HETATM   30  C   UNL     1      18.028  50.044  47.627  1.00  0.00     0.037 A 
HETATM   31  C   UNL     1      18.703  49.763  48.812  1.00  0.00     0.077 A 
HETATM   32  C   UNL     1      19.490  48.610  48.904  1.00  0.00     0.066 A 
BRANCH  31  33
HETATM   33  O   UNL     1      18.551  50.685  49.810  1.00  0.00    -0.290 OA
BRANCH  33  34
HETATM   34  C   UNL     1      19.649  51.573  49.957  1.00  0.00     0.505 C 
HETATM   35  F   UNL     1      20.707  50.887  50.455  1.00  0.00    -0.184 F 
HETATM   36  F   UNL     1      20.004  51.987  48.714  1.00  0.00    -0.184 F 
ENDBRANCH  33  34
ENDBRANCH  31  33
ENDBRANCH  25  27
ENDBRANCH   1  25
TORSDOF 6
ENDMDL
MODEL 9
REMARK VINA RESULT:      -9.2      5.502     13.108
REMARK  6 active torsions:
REMARK  status: ('A' for Active; 'I' for Inactive)
REMARK    1  A    between atoms: C_2  and  O_4 
REMARK    2  A    between atoms: O_4  and  C_5 
REMARK    3  A    between atoms: C_9  and  N_10 
REMARK    4  A    between atoms: N_10  and  C_11 
REMARK    5  A    between atoms: N_14  and  C_17 
REMARK    6  A    between atoms: C_20  and  C_23 
ROOT
HETATM    1  C   UNL     1      20.505  47.963  48.254  1.00  0.00     0.176 C 
HETATM    2  C   UNL     1      19.894  48.094  46.867  1.00  0.00     0.055 C 
HETATM    3  C   UNL     1      19.301  49.490  46.867  1.00  0.00     0.135 C 
HETATM    4  N   UNL     1      18.879  49.707  48.230  1.00  0.00    -0.316 N 
HETATM    5  C   UNL     1      19.614  48.883  49.100  1.00  0.00     0.247 C 
HETATM    6  O   UNL     1      19.625  48.876  50.325  1.00  0.00    -0.271 OA
ENDROOT
BRANCH   4   7
HETATM    7  C   UNL     1      17.912  50.684  48.601  1.00  0.00     0.037 A 
HETATM    8  C   UNL     1      18.284  51.917  49.158  1.00  0.00     0.030 A 
HETATM    9  C   UNL     1      17.327  52.848  49.582  1.00  0.00     0.016 A 
HETATM   10  C   UNL     1      15.970  52.545  49.486  1.00  0.00    -0.005 A 
HETATM   11  C   UNL     1      15.575  51.350  48.888  1.00  0.00     0.016 A 
HETATM   12  C   UNL     1      16.538  50.431  48.450  1.00  0.00     0.030 A 
BRANCH  10  13
HETATM   13  C   UNL     1      14.935  53.500  49.959  1.00  0.00     0.098 A 
HETATM   14  N   UNL     1      14.869  53.698  51.243  1.00  0.00    -0.170 NA
HETATM   15  N   UNL     1      13.901  54.520  51.725  1.00  0.00    -0.242 N 
HETATM   16  C   UNL     1      12.924  55.139  50.985  1.00  0.00     0.272 A 
HETATM   17  H   UNL     1      13.856  54.628  52.733  1.00  0.00     0.192 HD
HETATM   18  O   UNL     1      12.041  55.816  51.499  1.00  0.00    -0.266 OA
HETATM   19  C   UNL     1      13.009  54.969  49.527  1.00  0.00     0.046 A 
HETATM   20  C   UNL     1      12.097  55.623  48.688  1.00  0.00     0.018 A 
HETATM   21  C   UNL     1      14.029  54.182  48.995  1.00  0.00     0.011 A 
HETATM   22  C   UNL     1      12.219  55.506  47.304  1.00  0.00     0.001 A 
HETATM   23  C   UNL     1      13.261  54.754  46.762  1.00  0.00     0.001 A 
HETATM   24  C   UNL     1      14.169  54.102  47.602  1.00  0.00     0.015 A 
ENDBRANCH  10  13
ENDBRANCH   4   7
BRANCH   1  25
HETATM   25  N   UNL     1      21.892  48.435  48.235  1.00  0.00    -0.377 N 
HETATM   26  H   UNL     1      21.983  49.445  48.356  1.00  0.00     0.160 HD
BRANCH  25  27
HETATM   27  C   UNL     1      22.930  47.726  48.839  1.00  0.00     0.031 A 
HETATM   28  C   UNL     1      22.946  46.338  49.015  1.00  0.00     0.029 A 
HETATM   29  C   UNL     1      24.051  45.690  49.578  1.00  0.00     0.005 A 
HETATM   30  C   UNL     1      25.185  46.417  49.923  1.00  0.00     0.037 A 
HETATM   31  C   UNL     1      25.222  47.790  49.696  1.00  0.00     0.077 A 
HETATM   32  C   UNL     1      24.092  48.437  49.182  1.00  0.00     0.066 A 
BRANCH  31  33
HETATM   33  O   UNL     1      26.392  48.413  50.031  1.00  0.00    -0.290 OA
BRANCH  33  34
HETATM   34  C   UNL     1      27.168  48.836  48.920  1.00  0.00     0.505 C 
HETATM   35  F   UNL     1      27.717  50.043  49.200  1.00  0.00    -0.184 F 
HETATM   36  F   UNL     1      28.199  47.962  48.790  1.00  0.00    -0.184 F 
ENDBRANCH  33  34
ENDBRANCH  31  33
ENDBRANCH  25  27
ENDBRANCH   1  25
TORSDOF 6
ENDMDL
MODEL 10
REMARK VINA RESULT:      -9.2      2.834      3.879
REMARK  6 active torsions:
REMARK  status: ('A' for Active; 'I' for Inactive)
REMARK    1  A    between atoms: C_2  and  O_4 
REMARK    2  A    between atoms: O_4  and  C_5 
REMARK    3  A    between atoms: C_9  and  N_10 
REMARK    4  A    between atoms: N_10  and  C_11 
REMARK    5  A    between atoms: N_14  and  C_17 
REMARK    6  A    between atoms: C_20  and  C_23 
ROOT
HETATM    1  C   UNL     1      21.542  50.584  48.650  1.00  0.00     0.176 C 
HETATM    2  C   UNL     1      22.881  51.304  48.621  1.00  0.00     0.055 C 
HETATM    3  C   UNL     1      23.873  50.204  48.295  1.00  0.00     0.135 C 
HETATM    4  N   UNL     1      23.324  49.022  48.915  1.00  0.00    -0.316 N 
HETATM    5  C   UNL     1      21.936  49.163  49.078  1.00  0.00     0.247 C 
HETATM    6  O   UNL     1      21.117  48.331  49.450  1.00  0.00    -0.271 OA
ENDROOT
BRANCH   4   7
HETATM    7  C   UNL     1      24.103  47.871  49.225  1.00  0.00     0.037 A 
HETATM    8  C   UNL     1      23.550  46.582  49.217  1.00  0.00     0.030 A 
HETATM    9  C   UNL     1      24.303  45.459  49.587  1.00  0.00     0.016 A 
HETATM   10  C   UNL     1      25.623  45.613  50.004  1.00  0.00    -0.005 A 
HETATM   11  C   UNL     1      26.211  46.876  49.970  1.00  0.00     0.016 A 
HETATM   12  C   UNL     1      25.457  47.992  49.583  1.00  0.00     0.030 A 
BRANCH  10  13
HETATM   13  C   UNL     1      26.433  44.444  50.434  1.00  0.00     0.098 A 
HETATM   14  N   UNL     1      26.729  43.572  49.515  1.00  0.00    -0.170 NA
HETATM   15  N   UNL     1      27.421  42.459  49.875  1.00  0.00    -0.242 N 
HETATM   16  C   UNL     1      27.804  42.121  51.149  1.00  0.00     0.272 A 
HETATM   17  H   UNL     1      27.607  41.783  49.141  1.00  0.00     0.192 HD
HETATM   18  O   UNL     1      28.370  41.065  51.406  1.00  0.00    -0.266 OA
HETATM   19  C   UNL     1      27.523  43.116  52.195  1.00  0.00     0.046 A 
HETATM   20  C   UNL     1      27.944  42.889  53.512  1.00  0.00     0.018 A 
HETATM   21  C   UNL     1      26.871  44.298  51.849  1.00  0.00     0.011 A 
HETATM   22  C   UNL     1      27.728  43.861  54.488  1.00  0.00     0.001 A 
HETATM   23  C   UNL     1      27.112  45.064  54.142  1.00  0.00     0.001 A 
HETATM   24  C   UNL     1      26.694  45.287  52.826  1.00  0.00     0.015 A 
ENDBRANCH  10  13
ENDBRANCH   4   7
BRANCH   1  25
HETATM   25  N   UNL     1      20.943  50.590  47.313  1.00  0.00    -0.377 N 
HETATM   26  H   UNL     1      21.483  50.070  46.620  1.00  0.00     0.160 HD
BRANCH  25  27
HETATM   27  C   UNL     1      19.567  50.486  47.110  1.00  0.00     0.031 A 
HETATM   28  C   UNL     1      18.941  49.425  46.446  1.00  0.00     0.029 A 
HETATM   29  C   UNL     1      17.548  49.360  46.333  1.00  0.00     0.005 A 
HETATM   30  C   UNL     1      16.754  50.331  46.935  1.00  0.00     0.037 A 
HETATM   31  C   UNL     1      17.349  51.360  47.659  1.00  0.00     0.077 A 
HETATM   32  C   UNL     1      18.744  51.446  47.721  1.00  0.00     0.066 A 
BRANCH  31  33
HETATM   33  O   UNL     1      16.486  52.244  48.246  1.00  0.00    -0.290 OA
BRANCH  33  34
HETATM   34  C   UNL     1      16.286  52.031  49.635  1.00  0.00     0.505 C 
HETATM   35  F   UNL     1      16.955  52.985  50.328  1.00  0.00    -0.184 F 
HETATM   36  F   UNL     1      14.966  52.222  49.888  1.00  0.00    -0.184 F 
ENDBRANCH  33  34
ENDBRANCH  31  33
ENDBRANCH  25  27
ENDBRANCH   1  25
TORSDOF 6
ENDMDL
