MODEL 1
REMARK VINA RESULT:      -7.5      0.000      0.000
REMARK  8 active torsions:
REMARK  status: ('A' for Active; 'I' for Inactive)
REMARK    1  A    between atoms: S_2  and  C_3 
REMARK    2  A    between atoms: C_4  and  N_5 
REMARK       I    between atoms: N_5  and  C_6 
REMARK    3  A    between atoms: C_6  and  C_7 
REMARK       I    between atoms: C_7  and  N_8 
REMARK    4  A    between atoms: N_8  and  C_9 
REMARK    5  A    between atoms: C_9  and  C_10 
REMARK    6  A    between atoms: C_10  and  C_11 
REMARK    7  A    between atoms: C_13  and  O_14 
REMARK    8  A    between atoms: N_20  and  C_21 
ROOT
HETATM    1  N   UNL     1      24.693  45.026  48.586  1.00  0.00    -0.302 N 
HETATM    2  C   UNL     1      23.460  44.490  48.082  1.00  0.00     0.315 C 
HETATM    3  O   UNL     1      23.527  43.822  47.064  1.00  0.00    -0.262 OA
HETATM    4  H   UNL     1      25.524  44.588  48.205  1.00  0.00     0.171 HD
ENDROOT
BRANCH   2   5
HETATM    5  C   UNL     1      22.128  44.626  48.859  1.00  0.00     0.309 C 
HETATM    6  N   UNL     1      21.224  45.493  48.269  1.00  0.00    -0.353 N 
HETATM    7  H   UNL     1      21.473  45.895  47.368  1.00  0.00     0.162 HD
HETATM    8  O   UNL     1      21.913  43.981  49.873  1.00  0.00    -0.262 OA
BRANCH   6   9
HETATM    9  C   UNL     1      19.852  45.587  48.734  1.00  0.00     0.128 C 
BRANCH   9  10
HETATM   10  C   UNL     1      19.078  46.690  48.012  1.00  0.00     0.058 C 
BRANCH  10  11
HETATM   11  C   UNL     1      18.961  47.937  48.849  1.00  0.00    -0.054 A 
HETATM   12  C   UNL     1      18.914  47.851  50.248  1.00  0.00     0.043 A 
HETATM   13  C   UNL     1      18.790  49.012  51.009  1.00  0.00     0.066 A 
HETATM   14  C   UNL     1      18.706  50.258  50.402  1.00  0.00     0.036 A 
HETATM   15  C   UNL     1      18.746  50.351  49.013  1.00  0.00     0.003 A 
HETATM   16  C   UNL     1      18.871  49.196  48.238  1.00  0.00     0.007 A 
BRANCH  13  17
HETATM   17  O   UNL     1      18.747  48.968  52.371  1.00  0.00    -0.361 OA
HETATM   18  H   UNL     1      19.501  49.467  52.726  1.00  0.00     0.217 HD
ENDBRANCH  13  17
ENDBRANCH  10  11
ENDBRANCH   9  10
ENDBRANCH   6   9
ENDBRANCH   2   5
BRANCH   1  19
HETATM   19  C   UNL     1      24.793  45.653  49.820  1.00  0.00     0.150 A 
HETATM   20  C   UNL     1      25.218  45.006  50.957  1.00  0.00     0.065 A 
HETATM   21  C   UNL     1      25.159  45.971  51.971  1.00  0.00     0.161 A 
HETATM   22  N   UNL     1      24.728  47.150  51.527  1.00  0.00    -0.176 NA
HETATM   23  N   UNL     1      24.531  46.977  50.186  1.00  0.00    -0.216 N 
BRANCH  20  24
HETATM   24  S   UNL     1      25.685  43.332  51.093  1.00  0.00    -0.129 SA
HETATM   25  C   UNL     1      26.692  43.365  52.596  1.00  0.00     0.096 C 
ENDBRANCH  20  24
BRANCH  23  26
HETATM   26  C   UNL     1      24.191  48.095  49.368  1.00  0.00     0.060 A 
HETATM   27  C   UNL     1      25.157  48.984  48.878  1.00  0.00     0.031 A 
HETATM   28  C   UNL     1      24.773  50.077  48.094  1.00  0.00     0.002 A 
HETATM   29  C   UNL     1      23.429  50.297  47.800  1.00  0.00     0.000 A 
HETATM   30  C   UNL     1      22.461  49.427  48.291  1.00  0.00     0.002 A 
HETATM   31  C   UNL     1      22.837  48.331  49.072  1.00  0.00     0.031 A 
ENDBRANCH  23  26
ENDBRANCH   1  19
TORSDOF 8
ENDMDL
MODEL 2
REMARK VINA RESULT:      -7.5     11.658     13.830
REMARK  8 active torsions:
REMARK  status: ('A' for Active; 'I' for Inactive)
REMARK    1  A    between atoms: S_2  and  C_3 
REMARK    2  A    between atoms: C_4  and  N_5 
REMARK       I    between atoms: N_5  and  C_6 
REMARK    3  A    between atoms: C_6  and  C_7 
REMARK       I    between atoms: C_7  and  N_8 
REMARK    4  A    between atoms: N_8  and  C_9 
REMARK    5  A    between atoms: C_9  and  C_10 
REMARK    6  A    between atoms: C_10  and  C_11 
REMARK    7  A    between atoms: C_13  and  O_14 
REMARK    8  A    between atoms: N_20  and  C_21 
ROOT
HETATM    1  N   UNL     1      33.039  51.129  42.197  1.00  0.00    -0.302 N 
HETATM    2  C   UNL     1      32.385  49.877  42.450  1.00  0.00     0.315 C 
HETATM    3  O   UNL     1      31.775  49.779  43.501  1.00  0.00    -0.262 OA
HETATM    4  H   UNL     1      32.719  51.892  42.782  1.00  0.00     0.171 HD
ENDROOT
BRANCH   2   5
HETATM    5  C   UNL     1      32.331  48.750  41.389  1.00  0.00     0.309 C 
HETATM    6  N   UNL     1      31.178  48.761  40.623  1.00  0.00    -0.353 N 
HETATM    7  H   UNL     1      30.520  49.524  40.766  1.00  0.00     0.162 HD
HETATM    8  O   UNL     1      33.257  47.969  41.242  1.00  0.00    -0.262 OA
BRANCH   6   9
HETATM    9  C   UNL     1      31.043  47.919  39.448  1.00  0.00     0.128 C 
BRANCH   9  10
HETATM   10  C   UNL     1      29.703  47.183  39.423  1.00  0.00     0.058 C 
BRANCH  10  11
HETATM   11  C   UNL     1      28.538  48.135  39.355  1.00  0.00    -0.054 A 
HETATM   12  C   UNL     1      27.937  48.436  38.124  1.00  0.00     0.043 A 
HETATM   13  C   UNL     1      26.870  49.331  38.075  1.00  0.00     0.066 A 
HETATM   14  C   UNL     1      26.393  49.937  39.229  1.00  0.00     0.036 A 
HETATM   15  C   UNL     1      26.988  49.648  40.455  1.00  0.00     0.003 A 
HETATM   16  C   UNL     1      28.057  48.752  40.520  1.00  0.00     0.007 A 
BRANCH  13  17
HETATM   17  O   UNL     1      26.258  49.642  36.898  1.00  0.00    -0.361 OA
HETATM   18  H   UNL     1      25.842  48.842  36.537  1.00  0.00     0.217 HD
ENDBRANCH  13  17
ENDBRANCH  10  11
ENDBRANCH   9  10
ENDBRANCH   6   9
ENDBRANCH   2   5
BRANCH   1  19
HETATM   19  C   UNL     1      33.620  51.442  40.976  1.00  0.00     0.150 A 
HETATM   20  C   UNL     1      34.965  51.287  40.724  1.00  0.00     0.065 A 
HETATM   21  C   UNL     1      35.143  51.725  39.406  1.00  0.00     0.161 A 
HETATM   22  N   UNL     1      34.005  52.135  38.847  1.00  0.00    -0.176 NA
HETATM   23  N   UNL     1      33.046  51.931  39.799  1.00  0.00    -0.216 N 
BRANCH  20  24
HETATM   24  S   UNL     1      36.175  50.706  41.837  1.00  0.00    -0.129 SA
HETATM   25  C   UNL     1      36.343  52.126  42.948  1.00  0.00     0.096 C 
ENDBRANCH  20  24
BRANCH  23  26
HETATM   26  C   UNL     1      31.672  52.143  39.479  1.00  0.00     0.060 A 
HETATM   27  C   UNL     1      30.828  52.916  40.288  1.00  0.00     0.031 A 
HETATM   28  C   UNL     1      29.482  53.081  39.943  1.00  0.00     0.002 A 
HETATM   29  C   UNL     1      28.966  52.472  38.801  1.00  0.00     0.000 A 
HETATM   30  C   UNL     1      29.794  51.693  37.998  1.00  0.00     0.002 A 
HETATM   31  C   UNL     1      31.139  51.527  38.334  1.00  0.00     0.031 A 
ENDBRANCH  23  26
ENDBRANCH   1  19
TORSDOF 8
ENDMDL
MODEL 3
REMARK VINA RESULT:      -7.1      2.632      5.941
REMARK  8 active torsions:
REMARK  status: ('A' for Active; 'I' for Inactive)
REMARK    1  A    between atoms: S_2  and  C_3 
REMARK    2  A    between atoms: C_4  and  N_5 
REMARK       I    between atoms: N_5  and  C_6 
REMARK    3  A    between atoms: C_6  and  C_7 
REMARK       I    between atoms: C_7  and  N_8 
REMARK    4  A    between atoms: N_8  and  C_9 
REMARK    5  A    between atoms: C_9  and  C_10 
REMARK    6  A    between atoms: C_10  and  C_11 
REMARK    7  A    between atoms: C_13  and  O_14 
REMARK    8  A    between atoms: N_20  and  C_21 
ROOT
HETATM    1  N   UNL     1      20.672  47.059  46.763  1.00  0.00    -0.302 N 
HETATM    2  C   UNL     1      21.397  45.821  46.726  1.00  0.00     0.315 C 
HETATM    3  O   UNL     1      21.788  45.446  45.633  1.00  0.00    -0.262 OA
HETATM    4  H   UNL     1      20.780  47.630  45.932  1.00  0.00     0.171 HD
ENDROOT
BRANCH   2   5
HETATM    5  C   UNL     1      21.790  45.062  48.017  1.00  0.00     0.309 C 
HETATM    6  N   UNL     1      23.122  45.206  48.364  1.00  0.00    -0.353 N 
HETATM    7  H   UNL     1      23.693  45.835  47.804  1.00  0.00     0.162 HD
HETATM    8  O   UNL     1      20.965  44.439  48.666  1.00  0.00    -0.262 OA
BRANCH   6   9
HETATM    9  C   UNL     1      23.624  44.745  49.646  1.00  0.00     0.128 C 
BRANCH   9  10
HETATM   10  C   UNL     1      25.040  45.251  49.922  1.00  0.00     0.058 C 
BRANCH  10  11
HETATM   11  C   UNL     1      25.281  45.479  51.392  1.00  0.00    -0.054 A 
HETATM   12  C   UNL     1      25.055  44.449  52.316  1.00  0.00     0.043 A 
HETATM   13  C   UNL     1      25.267  44.679  53.674  1.00  0.00     0.066 A 
HETATM   14  C   UNL     1      25.695  45.919  54.130  1.00  0.00     0.036 A 
HETATM   15  C   UNL     1      25.916  46.949  53.218  1.00  0.00     0.003 A 
HETATM   16  C   UNL     1      25.709  46.732  51.855  1.00  0.00     0.007 A 
BRANCH  13  17
HETATM   17  O   UNL     1      25.064  43.701  54.601  1.00  0.00    -0.361 OA
HETATM   18  H   UNL     1      25.907  43.249  54.772  1.00  0.00     0.217 HD
ENDBRANCH  13  17
ENDBRANCH  10  11
ENDBRANCH   9  10
ENDBRANCH   6   9
ENDBRANCH   2   5
BRANCH   1  19
HETATM   19  C   UNL     1      20.319  47.691  47.947  1.00  0.00     0.150 A 
HETATM   20  C   UNL     1      19.129  47.455  48.597  1.00  0.00     0.065 A 
HETATM   21  C   UNL     1      19.153  48.290  49.721  1.00  0.00     0.161 A 
HETATM   22  N   UNL     1      20.271  49.012  49.794  1.00  0.00    -0.176 NA
HETATM   23  N   UNL     1      21.018  48.624  48.719  1.00  0.00    -0.216 N 
BRANCH  20  24
HETATM   24  S   UNL     1      17.859  46.375  48.087  1.00  0.00    -0.129 SA
HETATM   25  C   UNL     1      16.388  47.374  48.425  1.00  0.00     0.096 C 
ENDBRANCH  20  24
BRANCH  23  26
HETATM   26  C   UNL     1      22.350  49.112  48.566  1.00  0.00     0.060 A 
HETATM   27  C   UNL     1      22.651  50.224  47.769  1.00  0.00     0.031 A 
HETATM   28  C   UNL     1      23.976  50.655  47.635  1.00  0.00     0.002 A 
HETATM   29  C   UNL     1      25.007  49.979  48.284  1.00  0.00     0.000 A 
HETATM   30  C   UNL     1      24.719  48.867  49.068  1.00  0.00     0.002 A 
HETATM   31  C   UNL     1      23.399  48.432  49.210  1.00  0.00     0.031 A 
ENDBRANCH  23  26
ENDBRANCH   1  19
TORSDOF 8
ENDMDL
MODEL 4
REMARK VINA RESULT:      -7.1     10.892     14.250
REMARK  8 active torsions:
REMARK  status: ('A' for Active; 'I' for Inactive)
REMARK    1  A    between atoms: S_2  and  C_3 
REMARK    2  A    between atoms: C_4  and  N_5 
REMARK       I    between atoms: N_5  and  C_6 
REMARK    3  A    between atoms: C_6  and  C_7 
REMARK       I    between atoms: C_7  and  N_8 
REMARK    4  A    between atoms: N_8  and  C_9 
REMARK    5  A    between atoms: C_9  and  C_10 
REMARK    6  A    between atoms: C_10  and  C_11 
REMARK    7  A    between atoms: C_13  and  O_14 
REMARK    8  A    between atoms: N_20  and  C_21 
ROOT
HETATM    1  N   UNL     1      26.969  50.227  40.635  1.00  0.00    -0.302 N 
HETATM    2  C   UNL     1      27.668  51.475  40.519  1.00  0.00     0.315 C 
HETATM    3  O   UNL     1      27.444  52.312  41.377  1.00  0.00    -0.262 OA
HETATM    4  H   UNL     1      26.562  50.061  41.549  1.00  0.00     0.171 HD
ENDROOT
BRANCH   2   5
HETATM    5  C   UNL     1      28.760  51.707  39.446  1.00  0.00     0.309 C 
HETATM    6  N   UNL     1      30.047  51.738  39.956  1.00  0.00    -0.353 N 
HETATM    7  H   UNL     1      30.168  51.539  40.947  1.00  0.00     0.162 HD
HETATM    8  O   UNL     1      28.478  51.806  38.262  1.00  0.00    -0.262 OA
BRANCH   6   9
HETATM    9  C   UNL     1      31.207  51.734  39.083  1.00  0.00     0.128 C 
BRANCH   9  10
HETATM   10  C   UNL     1      32.323  52.635  39.612  1.00  0.00     0.058 C 
BRANCH  10  11
HETATM   11  C   UNL     1      33.333  51.866  40.423  1.00  0.00    -0.054 A 
HETATM   12  C   UNL     1      34.392  51.199  39.790  1.00  0.00     0.043 A 
HETATM   13  C   UNL     1      35.309  50.478  40.552  1.00  0.00     0.066 A 
HETATM   14  C   UNL     1      35.189  50.403  41.933  1.00  0.00     0.036 A 
HETATM   15  C   UNL     1      34.136  51.058  42.569  1.00  0.00     0.003 A 
HETATM   16  C   UNL     1      33.210  51.785  41.818  1.00  0.00     0.007 A 
BRANCH  13  17
HETATM   17  O   UNL     1      36.355  49.823  39.972  1.00  0.00    -0.361 OA
HETATM   18  H   UNL     1      36.461  48.957  40.400  1.00  0.00     0.217 HD
ENDBRANCH  13  17
ENDBRANCH  10  11
ENDBRANCH   9  10
ENDBRANCH   6   9
ENDBRANCH   2   5
BRANCH   1  19
HETATM   19  C   UNL     1      27.253  49.127  39.838  1.00  0.00     0.150 A 
HETATM   20  C   UNL     1      26.429  48.709  38.817  1.00  0.00     0.065 A 
HETATM   21  C   UNL     1      27.055  47.577  38.282  1.00  0.00     0.161 A 
HETATM   22  N   UNL     1      28.194  47.282  38.907  1.00  0.00    -0.176 NA
HETATM   23  N   UNL     1      28.347  48.257  39.851  1.00  0.00    -0.216 N 
BRANCH  20  24
HETATM   24  S   UNL     1      24.913  49.426  38.340  1.00  0.00    -0.129 SA
HETATM   25  C   UNL     1      23.764  48.619  39.482  1.00  0.00     0.096 C 
ENDBRANCH  20  24
BRANCH  23  26
HETATM   26  C   UNL     1      29.546  48.319  40.621  1.00  0.00     0.060 A 
HETATM   27  C   UNL     1      29.540  48.615  41.991  1.00  0.00     0.031 A 
HETATM   28  C   UNL     1      30.744  48.683  42.700  1.00  0.00     0.002 A 
HETATM   29  C   UNL     1      31.958  48.466  42.053  1.00  0.00     0.000 A 
HETATM   30  C   UNL     1      31.975  48.184  40.691  1.00  0.00     0.002 A 
HETATM   31  C   UNL     1      30.778  48.111  39.976  1.00  0.00     0.031 A 
ENDBRANCH  23  26
ENDBRANCH   1  19
TORSDOF 8
ENDMDL
MODEL 5
REMARK VINA RESULT:      -7.0     11.529     13.834
REMARK  8 active torsions:
REMARK  status: ('A' for Active; 'I' for Inactive)
REMARK    1  A    between atoms: S_2  and  C_3 
REMARK    2  A    between atoms: C_4  and  N_5 
REMARK       I    between atoms: N_5  and  C_6 
REMARK    3  A    between atoms: C_6  and  C_7 
REMARK       I    between atoms: C_7  and  N_8 
REMARK    4  A    between atoms: N_8  and  C_9 
REMARK    5  A    between atoms: C_9  and  C_10 
REMARK    6  A    between atoms: C_10  and  C_11 
REMARK    7  A    between atoms: C_13  and  O_14 
REMARK    8  A    between atoms: N_20  and  C_21 
ROOT
HETATM    1  N   UNL     1      32.954  51.139  42.158  1.00  0.00    -0.302 N 
HETATM    2  C   UNL     1      32.311  49.879  42.403  1.00  0.00     0.315 C 
HETATM    3  O   UNL     1      31.692  49.773  43.448  1.00  0.00    -0.262 OA
HETATM    4  H   UNL     1      32.619  51.898  42.741  1.00  0.00     0.171 HD
ENDROOT
BRANCH   2   5
HETATM    5  C   UNL     1      32.281  48.753  41.341  1.00  0.00     0.309 C 
HETATM    6  N   UNL     1      31.137  48.754  40.561  1.00  0.00    -0.353 N 
HETATM    7  H   UNL     1      30.470  49.511  40.697  1.00  0.00     0.162 HD
HETATM    8  O   UNL     1      33.216  47.981  41.204  1.00  0.00    -0.262 OA
BRANCH   6   9
HETATM    9  C   UNL     1      31.024  47.912  39.383  1.00  0.00     0.128 C 
BRANCH   9  10
HETATM   10  C   UNL     1      29.690  48.112  38.663  1.00  0.00     0.058 C 
BRANCH  10  11
HETATM   11  C   UNL     1      28.616  47.204  39.203  1.00  0.00    -0.054 A 
HETATM   12  C   UNL     1      28.940  45.923  39.674  1.00  0.00     0.043 A 
HETATM   13  C   UNL     1      27.933  45.088  40.155  1.00  0.00     0.066 A 
HETATM   14  C   UNL     1      26.609  45.503  40.173  1.00  0.00     0.036 A 
HETATM   15  C   UNL     1      26.278  46.772  39.702  1.00  0.00     0.003 A 
HETATM   16  C   UNL     1      27.276  47.619  39.217  1.00  0.00     0.007 A 
BRANCH  13  17
HETATM   17  O   UNL     1      28.211  43.839  40.626  1.00  0.00    -0.361 OA
HETATM   18  H   UNL     1      28.746  43.365  39.969  1.00  0.00     0.217 HD
ENDBRANCH  13  17
ENDBRANCH  10  11
ENDBRANCH   9  10
ENDBRANCH   6   9
ENDBRANCH   2   5
BRANCH   1  19
HETATM   19  C   UNL     1      33.543  51.460  40.944  1.00  0.00     0.150 A 
HETATM   20  C   UNL     1      34.890  51.311  40.702  1.00  0.00     0.065 A 
HETATM   21  C   UNL     1      35.078  51.757  39.388  1.00  0.00     0.161 A 
HETATM   22  N   UNL     1      33.943  52.164  38.822  1.00  0.00    -0.176 NA
HETATM   23  N   UNL     1      32.977  51.952  39.764  1.00  0.00    -0.216 N 
BRANCH  20  24
HETATM   24  S   UNL     1      36.093  50.730  41.822  1.00  0.00    -0.129 SA
HETATM   25  C   UNL     1      36.976  52.260  42.218  1.00  0.00     0.096 C 
ENDBRANCH  20  24
BRANCH  23  26
HETATM   26  C   UNL     1      31.605  52.161  39.435  1.00  0.00     0.060 A 
HETATM   27  C   UNL     1      31.020  51.608  38.287  1.00  0.00     0.031 A 
HETATM   28  C   UNL     1      29.674  51.856  37.996  1.00  0.00     0.002 A 
HETATM   29  C   UNL     1      28.906  52.658  38.837  1.00  0.00     0.000 A 
HETATM   30  C   UNL     1      29.481  53.221  39.972  1.00  0.00     0.002 A 
HETATM   31  C   UNL     1      30.823  52.976  40.271  1.00  0.00     0.031 A 
ENDBRANCH  23  26
ENDBRANCH   1  19
TORSDOF 8
ENDMDL
MODEL 6
REMARK VINA RESULT:      -7.0     10.727     13.640
REMARK  8 active torsions:
REMARK  status: ('A' for Active; 'I' for Inactive)
REMARK    1  A    between atoms: S_2  and  C_3 
REMARK    2  A    between atoms: C_4  and  N_5 
REMARK       I    between atoms: N_5  and  C_6 
REMARK    3  A    between atoms: C_6  and  C_7 
REMARK       I    between atoms: C_7  and  N_8 
REMARK    4  A    between atoms: N_8  and  C_9 
REMARK    5  A    between atoms: C_9  and  C_10 
REMARK    6  A    between atoms: C_10  and  C_11 
REMARK    7  A    between atoms: C_13  and  O_14 
REMARK    8  A    between atoms: N_20  and  C_21 
ROOT
HETATM    1  N   UNL     1      28.025  49.162  38.361  1.00  0.00    -0.302 N 
HETATM    2  C   UNL     1      28.344  50.537  38.621  1.00  0.00     0.315 C 
HETATM    3  O   UNL     1      28.589  51.236  37.652  1.00  0.00    -0.262 OA
HETATM    4  H   UNL     1      27.778  48.967  37.398  1.00  0.00     0.171 HD
ENDROOT
BRANCH   2   5
HETATM    5  C   UNL     1      28.247  51.148  40.040  1.00  0.00     0.309 C 
HETATM    6  N   UNL     1      29.477  51.425  40.613  1.00  0.00    -0.353 N 
HETATM    7  H   UNL     1      30.308  51.279  40.045  1.00  0.00     0.162 HD
HETATM    8  O   UNL     1      27.168  51.389  40.558  1.00  0.00    -0.262 OA
BRANCH   6   9
HETATM    9  C   UNL     1      29.583  52.190  41.843  1.00  0.00     0.128 C 
BRANCH   9  10
HETATM   10  C   UNL     1      30.793  53.124  41.833  1.00  0.00     0.058 C 
BRANCH  10  11
HETATM   11  C   UNL     1      32.081  52.376  41.606  1.00  0.00    -0.054 A 
HETATM   12  C   UNL     1      32.574  52.188  40.307  1.00  0.00     0.043 A 
HETATM   13  C   UNL     1      33.758  51.480  40.112  1.00  0.00     0.066 A 
HETATM   14  C   UNL     1      34.460  50.952  41.188  1.00  0.00     0.036 A 
HETATM   15  C   UNL     1      33.974  51.129  42.481  1.00  0.00     0.003 A 
HETATM   16  C   UNL     1      32.788  51.837  42.691  1.00  0.00     0.007 A 
BRANCH  13  17
HETATM   17  O   UNL     1      34.271  51.283  38.865  1.00  0.00    -0.361 OA
HETATM   18  H   UNL     1      34.903  51.994  38.667  1.00  0.00     0.217 HD
ENDBRANCH  13  17
ENDBRANCH  10  11
ENDBRANCH   9  10
ENDBRANCH   6   9
ENDBRANCH   2   5
BRANCH   1  19
HETATM   19  C   UNL     1      27.559  48.299  39.343  1.00  0.00     0.150 A 
HETATM   20  C   UNL     1      26.294  47.756  39.325  1.00  0.00     0.065 A 
HETATM   21  C   UNL     1      26.216  46.970  40.481  1.00  0.00     0.161 A 
HETATM   22  N   UNL     1      27.342  47.000  41.194  1.00  0.00    -0.176 NA
HETATM   23  N   UNL     1      28.195  47.793  40.480  1.00  0.00    -0.216 N 
BRANCH  20  24
HETATM   24  S   UNL     1      25.055  48.037  38.131  1.00  0.00    -0.129 SA
HETATM   25  C   UNL     1      24.445  49.667  38.630  1.00  0.00     0.096 C 
ENDBRANCH  20  24
BRANCH  23  26
HETATM   26  C   UNL     1      29.552  47.933  40.899  1.00  0.00     0.060 A 
HETATM   27  C   UNL     1      30.626  47.504  40.108  1.00  0.00     0.031 A 
HETATM   28  C   UNL     1      31.939  47.646  40.570  1.00  0.00     0.002 A 
HETATM   29  C   UNL     1      32.191  48.206  41.820  1.00  0.00     0.000 A 
HETATM   30  C   UNL     1      31.131  48.625  42.617  1.00  0.00     0.002 A 
HETATM   31  C   UNL     1      29.817  48.489  42.163  1.00  0.00     0.031 A 
ENDBRANCH  23  26
ENDBRANCH   1  19
TORSDOF 8
ENDMDL
MODEL 7
REMARK VINA RESULT:      -6.9     12.073     15.402
REMARK  8 active torsions:
REMARK  status: ('A' for Active; 'I' for Inactive)
REMARK    1  A    between atoms: S_2  and  C_3 
REMARK    2  A    between atoms: C_4  and  N_5 
REMARK       I    between atoms: N_5  and  C_6 
REMARK    3  A    between atoms: C_6  and  C_7 
REMARK       I    between atoms: C_7  and  N_8 
REMARK    4  A    between atoms: N_8  and  C_9 
REMARK    5  A    between atoms: C_9  and  C_10 
REMARK    6  A    between atoms: C_10  and  C_11 
REMARK    7  A    between atoms: C_13  and  O_14 
REMARK    8  A    between atoms: N_20  and  C_21 
ROOT
HETATM    1  N   UNL     1      29.338  51.077  41.727  1.00  0.00    -0.302 N 
HETATM    2  C   UNL     1      29.529  52.215  40.874  1.00  0.00     0.315 C 
HETATM    3  O   UNL     1      28.952  53.242  41.191  1.00  0.00    -0.262 OA
HETATM    4  H   UNL     1      28.962  51.300  42.641  1.00  0.00     0.171 HD
ENDROOT
BRANCH   2   5
HETATM    5  C   UNL     1      30.526  52.194  39.689  1.00  0.00     0.309 C 
HETATM    6  N   UNL     1      31.806  52.596  40.030  1.00  0.00    -0.353 N 
HETATM    7  H   UNL     1      31.996  52.792  41.010  1.00  0.00     0.162 HD
HETATM    8  O   UNL     1      30.188  51.813  38.580  1.00  0.00    -0.262 OA
BRANCH   6   9
HETATM    9  C   UNL     1      32.918  52.441  39.108  1.00  0.00     0.128 C 
BRANCH   9  10
HETATM   10  C   UNL     1      34.066  53.396  39.433  1.00  0.00     0.058 C 
BRANCH  10  11
HETATM   11  C   UNL     1      35.374  52.668  39.601  1.00  0.00    -0.054 A 
HETATM   12  C   UNL     1      35.552  51.392  39.047  1.00  0.00     0.043 A 
HETATM   13  C   UNL     1      36.762  50.723  39.223  1.00  0.00     0.066 A 
HETATM   14  C   UNL     1      37.798  51.301  39.946  1.00  0.00     0.036 A 
HETATM   15  C   UNL     1      37.628  52.566  40.504  1.00  0.00     0.003 A 
HETATM   16  C   UNL     1      36.421  53.247  40.334  1.00  0.00     0.007 A 
BRANCH  13  17
HETATM   17  O   UNL     1      36.974  49.485  38.695  1.00  0.00    -0.361 OA
HETATM   18  H   UNL     1      37.516  49.572  37.893  1.00  0.00     0.217 HD
ENDBRANCH  13  17
ENDBRANCH  10  11
ENDBRANCH   9  10
ENDBRANCH   6   9
ENDBRANCH   2   5
BRANCH   1  19
HETATM   19  C   UNL     1      30.063  49.901  41.588  1.00  0.00     0.150 A 
HETATM   20  C   UNL     1      29.589  48.805  40.904  1.00  0.00     0.065 A 
HETATM   21  C   UNL     1      30.599  47.841  41.013  1.00  0.00     0.161 A 
HETATM   22  N   UNL     1      31.645  48.277  41.714  1.00  0.00    -0.176 NA
HETATM   23  N   UNL     1      31.340  49.566  42.047  1.00  0.00    -0.216 N 
BRANCH  20  24
HETATM   24  S   UNL     1      28.042  48.656  40.115  1.00  0.00    -0.129 SA
HETATM   25  C   UNL     1      28.542  48.179  38.442  1.00  0.00     0.096 C 
ENDBRANCH  20  24
BRANCH  23  26
HETATM   26  C   UNL     1      32.314  50.381  42.696  1.00  0.00     0.060 A 
HETATM   27  C   UNL     1      32.002  51.176  43.808  1.00  0.00     0.031 A 
HETATM   28  C   UNL     1      32.987  51.973  44.400  1.00  0.00     0.002 A 
HETATM   29  C   UNL     1      34.283  51.993  43.887  1.00  0.00     0.000 A 
HETATM   30  C   UNL     1      34.599  51.217  42.777  1.00  0.00     0.002 A 
HETATM   31  C   UNL     1      33.622  50.415  42.182  1.00  0.00     0.031 A 
ENDBRANCH  23  26
ENDBRANCH   1  19
TORSDOF 8
ENDMDL
MODEL 8
REMARK VINA RESULT:      -6.9      3.236      6.464
REMARK  8 active torsions:
REMARK  status: ('A' for Active; 'I' for Inactive)
REMARK    1  A    between atoms: S_2  and  C_3 
REMARK    2  A    between atoms: C_4  and  N_5 
REMARK       I    between atoms: N_5  and  C_6 
REMARK    3  A    between atoms: C_6  and  C_7 
REMARK       I    between atoms: C_7  and  N_8 
REMARK    4  A    between atoms: N_8  and  C_9 
REMARK    5  A    between atoms: C_9  and  C_10 
REMARK    6  A    between atoms: C_10  and  C_11 
REMARK    7  A    between atoms: C_13  and  O_14 
REMARK    8  A    between atoms: N_20  and  C_21 
ROOT
HETATM    1  N   UNL     1      25.768  43.103  52.448  1.00  0.00    -0.302 N 
HETATM    2  C   UNL     1      25.367  44.229  51.655  1.00  0.00     0.315 C 
HETATM    3  O   UNL     1      24.300  44.748  51.938  1.00  0.00    -0.262 OA
HETATM    4  H   UNL     1      25.264  43.008  53.323  1.00  0.00     0.171 HD
ENDROOT
BRANCH   2   5
HETATM    5  C   UNL     1      26.297  44.852  50.585  1.00  0.00     0.309 C 
HETATM    6  N   UNL     1      26.004  46.173  50.292  1.00  0.00    -0.353 N 
HETATM    7  H   UNL     1      25.276  46.630  50.838  1.00  0.00     0.162 HD
HETATM    8  O   UNL     1      27.220  44.219  50.097  1.00  0.00    -0.262 OA
BRANCH   6   9
HETATM    9  C   UNL     1      26.891  46.982  49.475  1.00  0.00     0.128 C 
BRANCH   9  10
HETATM   10  C   UNL     1      26.651  48.477  49.679  1.00  0.00     0.058 C 
BRANCH  10  11
HETATM   11  C   UNL     1      25.305  48.908  49.155  1.00  0.00    -0.054 A 
HETATM   12  C   UNL     1      24.136  48.266  49.588  1.00  0.00     0.043 A 
HETATM   13  C   UNL     1      22.900  48.665  49.083  1.00  0.00     0.066 A 
HETATM   14  C   UNL     1      22.807  49.689  48.150  1.00  0.00     0.036 A 
HETATM   15  C   UNL     1      23.964  50.329  47.711  1.00  0.00     0.003 A 
HETATM   16  C   UNL     1      25.209  49.940  48.210  1.00  0.00     0.007 A 
BRANCH  13  17
HETATM   17  O   UNL     1      21.742  48.068  49.485  1.00  0.00    -0.361 OA
HETATM   18  H   UNL     1      21.509  48.395  50.369  1.00  0.00     0.217 HD
ENDBRANCH  13  17
ENDBRANCH  10  11
ENDBRANCH   9  10
ENDBRANCH   6   9
ENDBRANCH   2   5
BRANCH   1  19
HETATM   19  C   UNL     1      27.026  42.525  52.355  1.00  0.00     0.150 A 
HETATM   20  C   UNL     1      27.318  41.500  51.484  1.00  0.00     0.065 A 
HETATM   21  C   UNL     1      28.666  41.198  51.711  1.00  0.00     0.161 A 
HETATM   22  N   UNL     1      29.207  41.965  52.657  1.00  0.00    -0.176 NA
HETATM   23  N   UNL     1      28.210  42.817  53.039  1.00  0.00    -0.216 N 
BRANCH  20  24
HETATM   24  S   UNL     1      26.216  40.730  50.373  1.00  0.00    -0.129 SA
HETATM   25  C   UNL     1      27.320  40.341  48.992  1.00  0.00     0.096 C 
ENDBRANCH  20  24
BRANCH  23  26
HETATM   26  C   UNL     1      28.491  43.873  53.956  1.00  0.00     0.060 A 
HETATM   27  C   UNL     1      27.662  44.997  54.078  1.00  0.00     0.031 A 
HETATM   28  C   UNL     1      27.990  46.017  54.978  1.00  0.00     0.002 A 
HETATM   29  C   UNL     1      29.143  45.930  55.754  1.00  0.00     0.000 A 
HETATM   30  C   UNL     1      29.978  44.824  55.632  1.00  0.00     0.002 A 
HETATM   31  C   UNL     1      29.657  43.800  54.738  1.00  0.00     0.031 A 
ENDBRANCH  23  26
ENDBRANCH   1  19
TORSDOF 8
ENDMDL
MODEL 9
REMARK VINA RESULT:      -6.8     21.450     24.576
REMARK  8 active torsions:
REMARK  status: ('A' for Active; 'I' for Inactive)
REMARK    1  A    between atoms: S_2  and  C_3 
REMARK    2  A    between atoms: C_4  and  N_5 
REMARK       I    between atoms: N_5  and  C_6 
REMARK    3  A    between atoms: C_6  and  C_7 
REMARK       I    between atoms: C_7  and  N_8 
REMARK    4  A    between atoms: N_8  and  C_9 
REMARK    5  A    between atoms: C_9  and  C_10 
REMARK    6  A    between atoms: C_10  and  C_11 
REMARK    7  A    between atoms: C_13  and  O_14 
REMARK    8  A    between atoms: N_20  and  C_21 
ROOT
HETATM    1  N   UNL     1      39.009  45.110  63.548  1.00  0.00    -0.302 N 
HETATM    2  C   UNL     1      40.309  44.928  64.127  1.00  0.00     0.315 C 
HETATM    3  O   UNL     1      41.229  45.546  63.618  1.00  0.00    -0.262 OA
HETATM    4  H   UNL     1      38.930  45.925  62.950  1.00  0.00     0.171 HD
ENDROOT
BRANCH   2   5
HETATM    5  C   UNL     1      40.524  44.101  65.419  1.00  0.00     0.309 C 
HETATM    6  N   UNL     1      41.192  42.906  65.212  1.00  0.00    -0.353 N 
HETATM    7  H   UNL     1      41.539  42.713  64.275  1.00  0.00     0.162 HD
HETATM    8  O   UNL     1      40.161  44.516  66.508  1.00  0.00    -0.262 OA
BRANCH   6   9
HETATM    9  C   UNL     1      41.667  42.102  66.324  1.00  0.00     0.128 C 
BRANCH   9  10
HETATM   10  C   UNL     1      42.738  41.102  65.890  1.00  0.00     0.058 C 
BRANCH  10  11
HETATM   11  C   UNL     1      42.217  39.689  65.877  1.00  0.00    -0.054 A 
HETATM   12  C   UNL     1      42.583  38.807  64.850  1.00  0.00     0.043 A 
HETATM   13  C   UNL     1      42.081  37.507  64.842  1.00  0.00     0.066 A 
HETATM   14  C   UNL     1      41.216  37.070  65.836  1.00  0.00     0.036 A 
HETATM   15  C   UNL     1      40.843  37.941  66.857  1.00  0.00     0.003 A 
HETATM   16  C   UNL     1      41.339  39.246  66.878  1.00  0.00     0.007 A 
BRANCH  13  17
HETATM   17  O   UNL     1      42.419  36.620  63.864  1.00  0.00    -0.361 OA
HETATM   18  H   UNL     1      41.999  35.765  64.054  1.00  0.00     0.217 HD
ENDBRANCH  13  17
ENDBRANCH  10  11
ENDBRANCH   9  10
ENDBRANCH   6   9
ENDBRANCH   2   5
BRANCH   1  19
HETATM   19  C   UNL     1      37.850  44.610  64.126  1.00  0.00     0.150 A 
HETATM   20  C   UNL     1      36.823  45.416  64.563  1.00  0.00     0.065 A 
HETATM   21  C   UNL     1      35.867  44.537  65.088  1.00  0.00     0.161 A 
HETATM   22  N   UNL     1      36.244  43.262  64.999  1.00  0.00    -0.176 NA
HETATM   23  N   UNL     1      37.458  43.292  64.372  1.00  0.00    -0.216 N 
BRANCH  20  24
HETATM   24  S   UNL     1      36.766  47.157  64.506  1.00  0.00    -0.129 SA
HETATM   25  C   UNL     1      35.818  47.530  66.003  1.00  0.00     0.096 C 
ENDBRANCH  20  24
BRANCH  23  26
HETATM   26  C   UNL     1      38.092  42.071  63.995  1.00  0.00     0.060 A 
HETATM   27  C   UNL     1      38.653  41.881  62.725  1.00  0.00     0.031 A 
HETATM   28  C   UNL     1      39.248  40.658  62.395  1.00  0.00     0.002 A 
HETATM   29  C   UNL     1      39.283  39.618  63.321  1.00  0.00     0.000 A 
HETATM   30  C   UNL     1      38.718  39.792  64.580  1.00  0.00     0.002 A 
HETATM   31  C   UNL     1      38.125  41.011  64.918  1.00  0.00     0.031 A 
ENDBRANCH  23  26
ENDBRANCH   1  19
TORSDOF 8
ENDMDL
MODEL 10
REMARK VINA RESULT:      -6.6      6.172      8.774
REMARK  8 active torsions:
REMARK  status: ('A' for Active; 'I' for Inactive)
REMARK    1  A    between atoms: S_2  and  C_3 
REMARK    2  A    between atoms: C_4  and  N_5 
REMARK       I    between atoms: N_5  and  C_6 
REMARK    3  A    between atoms: C_6  and  C_7 
REMARK       I    between atoms: C_7  and  N_8 
REMARK    4  A    between atoms: N_8  and  C_9 
REMARK    5  A    between atoms: C_9  and  C_10 
REMARK    6  A    between atoms: C_10  and  C_11 
REMARK    7  A    between atoms: C_13  and  O_14 
REMARK    8  A    between atoms: N_20  and  C_21 
ROOT
HETATM    1  N   UNL     1      14.500  49.967  45.416  1.00  0.00    -0.302 N 
HETATM    2  C   UNL     1      14.410  48.792  46.236  1.00  0.00     0.315 C 
HETATM    3  O   UNL     1      13.376  48.151  46.165  1.00  0.00    -0.262 OA
HETATM    4  H   UNL     1      13.814  50.007  44.670  1.00  0.00     0.171 HD
ENDROOT
BRANCH   2   5
HETATM    5  C   UNL     1      15.612  48.277  47.065  1.00  0.00     0.309 C 
HETATM    6  N   UNL     1      16.702  47.907  46.296  1.00  0.00    -0.353 N 
HETATM    7  H   UNL     1      16.652  48.068  45.293  1.00  0.00     0.162 HD
HETATM    8  O   UNL     1      15.580  48.254  48.285  1.00  0.00    -0.262 OA
BRANCH   6   9
HETATM    9  C   UNL     1      17.986  47.601  46.902  1.00  0.00     0.128 C 
BRANCH   9  10
HETATM   10  C   UNL     1      19.018  48.697  46.638  1.00  0.00     0.058 C 
BRANCH  10  11
HETATM   11  C   UNL     1      19.279  49.532  47.865  1.00  0.00    -0.054 A 
HETATM   12  C   UNL     1      18.976  49.035  49.140  1.00  0.00     0.043 A 
HETATM   13  C   UNL     1      19.208  49.825  50.265  1.00  0.00     0.066 A 
HETATM   14  C   UNL     1      19.731  51.105  50.142  1.00  0.00     0.036 A 
HETATM   15  C   UNL     1      20.030  51.609  48.878  1.00  0.00     0.003 A 
HETATM   16  C   UNL     1      19.803  50.828  47.743  1.00  0.00     0.007 A 
BRANCH  13  17
HETATM   17  O   UNL     1      18.933  49.372  51.520  1.00  0.00    -0.361 OA
HETATM   18  H   UNL     1      19.123  48.421  51.562  1.00  0.00     0.217 HD
ENDBRANCH  13  17
ENDBRANCH  10  11
ENDBRANCH   9  10
ENDBRANCH   6   9
ENDBRANCH   2   5
BRANCH   1  19
HETATM   19  C   UNL     1      15.673  50.692  45.263  1.00  0.00     0.150 A 
HETATM   20  C   UNL     1      16.464  50.611  44.139  1.00  0.00     0.065 A 
HETATM   21  C   UNL     1      17.543  51.469  44.387  1.00  0.00     0.161 A 
HETATM   22  N   UNL     1      17.460  52.058  45.579  1.00  0.00    -0.176 NA
HETATM   23  N   UNL     1      16.287  51.612  46.118  1.00  0.00    -0.216 N 
BRANCH  20  24
HETATM   24  S   UNL     1      16.184  49.614  42.736  1.00  0.00    -0.129 SA
HETATM   25  C   UNL     1      17.812  49.650  41.947  1.00  0.00     0.096 C 
ENDBRANCH  20  24
BRANCH  23  26
HETATM   26  C   UNL     1      15.819  52.156  47.351  1.00  0.00     0.060 A 
HETATM   27  C   UNL     1      16.254  51.674  48.593  1.00  0.00     0.031 A 
HETATM   28  C   UNL     1      15.752  52.227  49.776  1.00  0.00     0.002 A 
HETATM   29  C   UNL     1      14.813  53.255  49.733  1.00  0.00     0.000 A 
HETATM   30  C   UNL     1      14.366  53.732  48.505  1.00  0.00     0.002 A 
HETATM   31  C   UNL     1      14.864  53.188  47.319  1.00  0.00     0.031 A 
ENDBRANCH  23  26
ENDBRANCH   1  19
TORSDOF 8
ENDMDL
