MODEL 1
REMARK VINA RESULT:      -7.8      0.000      0.000
REMARK  5 active torsions:
REMARK  status: ('A' for Active; 'I' for Inactive)
REMARK    1  A    between atoms: C_8  and  O_9 
REMARK    2  A    between atoms: O_9  and  C_10 
REMARK    3  A    between atoms: C_17  and  C_18 
REMARK       I    between atoms: C_18  and  N_19 
REMARK    4  A    between atoms: N_19  and  C_20 
REMARK    5  A    between atoms: C_20  and  C_21 
ROOT
HETATM    1  C   UNL     1      28.367  44.002  53.714  1.00  0.00     0.051 C 
HETATM    2  C   UNL     1      27.409  45.153  53.538  1.00  0.00    -0.018 A 
HETATM    3  C   UNL     1      27.278  46.156  54.519  1.00  0.00     0.065 A 
HETATM    4 CL   UNL     1      28.198  46.092  55.986  1.00  0.00    -0.082 Cl
HETATM    5  C   UNL     1      26.381  47.212  54.306  1.00  0.00     0.056 A 
HETATM    6  C   UNL     1      26.203  48.324  55.302  1.00  0.00     0.072 C 
HETATM    7  N   UNL     1      25.607  47.301  53.196  1.00  0.00    -0.227 NA
HETATM    8  C   UNL     1      25.693  46.303  52.285  1.00  0.00     0.186 A 
HETATM    9  C   UNL     1      26.578  45.232  52.397  1.00  0.00     0.092 A 
ENDROOT
BRANCH   8  10
HETATM   10  O   UNL     1      24.893  46.391  51.154  1.00  0.00    -0.291 OA
BRANCH  10  11
HETATM   11  C   UNL     1      25.138  47.446  50.310  1.00  0.00     0.078 A 
HETATM   12  C   UNL     1      26.468  47.724  49.984  1.00  0.00     0.040 A 
HETATM   13  C   UNL     1      26.757  48.754  49.090  1.00  0.00     0.045 A 
HETATM   14  C   UNL     1      25.717  49.481  48.520  1.00  0.00     0.116 A 
HETATM   15  F   UNL     1      25.997  50.468  47.659  1.00  0.00    -0.206 F 
HETATM   16  C   UNL     1      24.388  49.193  48.821  1.00  0.00     0.045 A 
HETATM   17  C   UNL     1      24.095  48.163  49.716  1.00  0.00     0.040 A 
ENDBRANCH  10  11
ENDBRANCH   8  10
BRANCH   9  18
HETATM   18  C   UNL     1      26.579  44.159  51.373  1.00  0.00     0.256 C 
HETATM   19  N   UNL     1      25.723  43.101  51.588  1.00  0.00    -0.353 N 
HETATM   20  H   UNL     1      25.329  42.978  52.513  1.00  0.00     0.163 HD
HETATM   21  O   UNL     1      27.315  44.251  50.397  1.00  0.00    -0.267 OA
BRANCH  19  22
HETATM   22  C   UNL     1      25.774  41.944  50.731  1.00  0.00     0.149 C 
BRANCH  22  23
HETATM   23  C   UNL     1      26.713  40.905  51.268  1.00  0.00    -0.018 C 
HETATM   24  C   UNL     1      28.054  40.892  51.221  1.00  0.00     0.008 C 
ENDBRANCH  22  23
ENDBRANCH  19  22
ENDBRANCH   9  18
TORSDOF 5
ENDMDL
MODEL 2
REMARK VINA RESULT:      -7.2      2.017      2.761
REMARK  5 active torsions:
REMARK  status: ('A' for Active; 'I' for Inactive)
REMARK    1  A    between atoms: C_8  and  O_9 
REMARK    2  A    between atoms: O_9  and  C_10 
REMARK    3  A    between atoms: C_17  and  C_18 
REMARK       I    between atoms: C_18  and  N_19 
REMARK    4  A    between atoms: N_19  and  C_20 
REMARK    5  A    between atoms: C_20  and  C_21 
ROOT
HETATM    1  C   UNL     1      30.230  42.862  53.093  1.00  0.00     0.051 C 
HETATM    2  C   UNL     1      29.146  43.704  53.718  1.00  0.00    -0.018 A 
HETATM    3  C   UNL     1      29.368  44.422  54.910  1.00  0.00     0.065 A 
HETATM    4 CL   UNL     1      30.896  44.343  55.724  1.00  0.00    -0.082 Cl
HETATM    5  C   UNL     1      28.332  45.199  55.448  1.00  0.00     0.056 A 
HETATM    6  C   UNL     1      28.506  46.002  56.706  1.00  0.00     0.072 C 
HETATM    7  N   UNL     1      27.104  45.274  54.879  1.00  0.00    -0.227 NA
HETATM    8  C   UNL     1      26.878  44.536  53.767  1.00  0.00     0.186 A 
HETATM    9  C   UNL     1      27.854  43.760  53.145  1.00  0.00     0.092 A 
ENDROOT
BRANCH   8  10
HETATM   10  O   UNL     1      25.616  44.606  53.191  1.00  0.00    -0.291 OA
BRANCH  10  11
HETATM   11  C   UNL     1      25.471  45.475  52.137  1.00  0.00     0.078 A 
HETATM   12  C   UNL     1      24.560  45.136  51.135  1.00  0.00     0.040 A 
HETATM   13  C   UNL     1      24.344  46.016  50.073  1.00  0.00     0.045 A 
HETATM   14  C   UNL     1      25.028  47.226  50.036  1.00  0.00     0.116 A 
HETATM   15  F   UNL     1      24.817  48.071  49.018  1.00  0.00    -0.206 F 
HETATM   16  C   UNL     1      25.920  47.581  51.045  1.00  0.00     0.045 A 
HETATM   17  C   UNL     1      26.138  46.704  52.108  1.00  0.00     0.040 A 
ENDBRANCH  10  11
ENDBRANCH   8  10
BRANCH   9  18
HETATM   18  C   UNL     1      27.511  42.948  51.952  1.00  0.00     0.256 C 
HETATM   19  N   UNL     1      26.823  41.776  52.182  1.00  0.00    -0.353 N 
HETATM   20  H   UNL     1      26.798  41.407  53.124  1.00  0.00     0.163 HD
HETATM   21  O   UNL     1      27.835  43.339  50.837  1.00  0.00    -0.267 OA
BRANCH  19  22
HETATM   22  C   UNL     1      26.589  40.852  51.101  1.00  0.00     0.149 C 
BRANCH  22  23
HETATM   23  C   UNL     1      25.353  41.212  50.330  1.00  0.00    -0.018 C 
HETATM   24  C   UNL     1      25.265  41.729  49.096  1.00  0.00     0.008 C 
ENDBRANCH  22  23
ENDBRANCH  19  22
ENDBRANCH   9  18
TORSDOF 5
ENDMDL
MODEL 3
REMARK VINA RESULT:      -7.1      2.854      5.702
REMARK  5 active torsions:
REMARK  status: ('A' for Active; 'I' for Inactive)
REMARK    1  A    between atoms: C_8  and  O_9 
REMARK    2  A    between atoms: O_9  and  C_10 
REMARK    3  A    between atoms: C_17  and  C_18 
REMARK       I    between atoms: C_18  and  N_19 
REMARK    4  A    between atoms: N_19  and  C_20 
REMARK    5  A    between atoms: C_20  and  C_21 
ROOT
HETATM    1  C   UNL     1      28.002  47.308  55.192  1.00  0.00     0.051 C 
HETATM    2  C   UNL     1      28.240  45.840  54.941  1.00  0.00    -0.018 A 
HETATM    3  C   UNL     1      29.409  45.197  55.396  1.00  0.00     0.065 A 
HETATM    4 CL   UNL     1      30.636  46.079  56.245  1.00  0.00    -0.082 Cl
HETATM    5  C   UNL     1      29.582  43.828  55.147  1.00  0.00     0.056 A 
HETATM    6  C   UNL     1      30.795  43.077  55.619  1.00  0.00     0.072 C 
HETATM    7  N   UNL     1      28.676  43.091  54.459  1.00  0.00    -0.227 NA
HETATM    8  C   UNL     1      27.584  43.726  53.972  1.00  0.00     0.186 A 
HETATM    9  C   UNL     1      27.313  45.075  54.197  1.00  0.00     0.092 A 
ENDROOT
BRANCH   8  10
HETATM   10  O   UNL     1      26.662  42.971  53.259  1.00  0.00    -0.291 OA
BRANCH  10  11
HETATM   11  C   UNL     1      27.098  42.435  52.072  1.00  0.00     0.078 A 
HETATM   12  C   UNL     1      27.769  41.212  52.118  1.00  0.00     0.040 A 
HETATM   13  C   UNL     1      28.183  40.607  50.930  1.00  0.00     0.045 A 
HETATM   14  C   UNL     1      27.904  41.222  49.715  1.00  0.00     0.116 A 
HETATM   15  F   UNL     1      28.298  40.638  48.575  1.00  0.00    -0.206 F 
HETATM   16  C   UNL     1      27.212  42.429  49.660  1.00  0.00     0.045 A 
HETATM   17  C   UNL     1      26.798  43.037  50.846  1.00  0.00     0.040 A 
ENDBRANCH  10  11
ENDBRANCH   8  10
BRANCH   9  18
HETATM   18  C   UNL     1      26.113  45.703  53.591  1.00  0.00     0.256 C 
HETATM   19  N   UNL     1      26.241  46.150  52.294  1.00  0.00    -0.353 N 
HETATM   20  H   UNL     1      27.170  46.256  51.908  1.00  0.00     0.163 HD
HETATM   21  O   UNL     1      25.080  45.794  54.244  1.00  0.00    -0.267 OA
BRANCH  19  22
HETATM   22  C   UNL     1      25.180  46.912  51.685  1.00  0.00     0.149 C 
BRANCH  22  23
HETATM   23  C   UNL     1      25.528  47.314  50.283  1.00  0.00    -0.018 C 
HETATM   24  C   UNL     1      26.579  48.033  49.861  1.00  0.00     0.008 C 
ENDBRANCH  22  23
ENDBRANCH  19  22
ENDBRANCH   9  18
TORSDOF 5
ENDMDL
MODEL 4
REMARK VINA RESULT:      -7.0      3.636      6.903
REMARK  5 active torsions:
REMARK  status: ('A' for Active; 'I' for Inactive)
REMARK    1  A    between atoms: C_8  and  O_9 
REMARK    2  A    between atoms: O_9  and  C_10 
REMARK    3  A    between atoms: C_17  and  C_18 
REMARK       I    between atoms: C_18  and  N_19 
REMARK    4  A    between atoms: N_19  and  C_20 
REMARK    5  A    between atoms: C_20  and  C_21 
ROOT
HETATM    1  C   UNL     1      26.360  42.957  49.152  1.00  0.00     0.051 C 
HETATM    2  C   UNL     1      27.009  42.294  50.341  1.00  0.00    -0.018 A 
HETATM    3  C   UNL     1      27.821  41.153  50.192  1.00  0.00     0.065 A 
HETATM    4 CL   UNL     1      28.088  40.446  48.632  1.00  0.00    -0.082 Cl
HETATM    5  C   UNL     1      28.411  40.577  51.326  1.00  0.00     0.056 A 
HETATM    6  C   UNL     1      29.302  39.369  51.239  1.00  0.00     0.072 C 
HETATM    7  N   UNL     1      28.214  41.060  52.578  1.00  0.00    -0.227 NA
HETATM    8  C   UNL     1      27.384  42.120  52.721  1.00  0.00     0.186 A 
HETATM    9  C   UNL     1      26.780  42.776  51.650  1.00  0.00     0.092 A 
ENDROOT
BRANCH   8  10
HETATM   10  O   UNL     1      27.175  42.608  54.005  1.00  0.00    -0.291 OA
BRANCH  10  11
HETATM   11  C   UNL     1      28.156  43.420  54.519  1.00  0.00     0.078 A 
HETATM   12  C   UNL     1      27.783  44.688  54.966  1.00  0.00     0.040 A 
HETATM   13  C   UNL     1      28.739  45.525  55.543  1.00  0.00     0.045 A 
HETATM   14  C   UNL     1      30.049  45.076  55.681  1.00  0.00     0.116 A 
HETATM   15  F   UNL     1      30.965  45.880  56.238  1.00  0.00    -0.206 F 
HETATM   16  C   UNL     1      30.422  43.803  55.259  1.00  0.00     0.045 A 
HETATM   17  C   UNL     1      29.469  42.964  54.681  1.00  0.00     0.040 A 
ENDBRANCH  10  11
ENDBRANCH   8  10
BRANCH   9  18
HETATM   18  C   UNL     1      25.850  43.905  51.898  1.00  0.00     0.256 C 
HETATM   19  N   UNL     1      26.399  45.169  51.880  1.00  0.00    -0.353 N 
HETATM   20  H   UNL     1      27.405  45.261  51.944  1.00  0.00     0.163 HD
HETATM   21  O   UNL     1      24.662  43.682  52.098  1.00  0.00    -0.267 OA
BRANCH  19  22
HETATM   22  C   UNL     1      25.603  46.308  52.267  1.00  0.00     0.149 C 
BRANCH  22  23
HETATM   23  C   UNL     1      25.140  47.084  51.070  1.00  0.00    -0.018 C 
HETATM   24  C   UNL     1      24.381  46.662  50.048  1.00  0.00     0.008 C 
ENDBRANCH  22  23
ENDBRANCH  19  22
ENDBRANCH   9  18
TORSDOF 5
ENDMDL
MODEL 5
REMARK VINA RESULT:      -7.0     17.413     18.844
REMARK  5 active torsions:
REMARK  status: ('A' for Active; 'I' for Inactive)
REMARK    1  A    between atoms: C_8  and  O_9 
REMARK    2  A    between atoms: O_9  and  C_10 
REMARK    3  A    between atoms: C_17  and  C_18 
REMARK       I    between atoms: C_18  and  N_19 
REMARK    4  A    between atoms: N_19  and  C_20 
REMARK    5  A    between atoms: C_20  and  C_21 
ROOT
HETATM    1  C   UNL     1      38.240  47.242  65.894  1.00  0.00     0.051 C 
HETATM    2  C   UNL     1      38.935  46.144  65.129  1.00  0.00    -0.018 A 
HETATM    3  C   UNL     1      40.310  46.213  64.833  1.00  0.00     0.065 A 
HETATM    4 CL   UNL     1      41.258  47.581  65.316  1.00  0.00    -0.082 Cl
HETATM    5  C   UNL     1      40.915  45.162  64.127  1.00  0.00     0.056 A 
HETATM    6  C   UNL     1      42.380  45.162  63.792  1.00  0.00     0.072 C 
HETATM    7  N   UNL     1      40.222  44.081  63.691  1.00  0.00    -0.227 NA
HETATM    8  C   UNL     1      38.889  44.049  63.926  1.00  0.00     0.186 A 
HETATM    9  C   UNL     1      38.210  45.031  64.646  1.00  0.00     0.092 A 
ENDROOT
BRANCH   8  10
HETATM   10  O   UNL     1      38.179  42.946  63.470  1.00  0.00    -0.291 OA
BRANCH  10  11
HETATM   11  C   UNL     1      38.774  41.720  63.644  1.00  0.00     0.078 A 
HETATM   12  C   UNL     1      39.015  41.294  64.952  1.00  0.00     0.040 A 
HETATM   13  C   UNL     1      39.571  40.033  65.174  1.00  0.00     0.045 A 
HETATM   14  C   UNL     1      39.860  39.210  64.090  1.00  0.00     0.116 A 
HETATM   15  F   UNL     1      40.389  37.999  64.306  1.00  0.00    -0.206 F 
HETATM   16  C   UNL     1      39.599  39.620  62.785  1.00  0.00     0.045 A 
HETATM   17  C   UNL     1      39.044  40.880  62.559  1.00  0.00     0.040 A 
ENDBRANCH  10  11
ENDBRANCH   8  10
BRANCH   9  18
HETATM   18  C   UNL     1      36.739  44.939  64.822  1.00  0.00     0.256 C 
HETATM   19  N   UNL     1      36.293  44.176  65.879  1.00  0.00    -0.353 N 
HETATM   20  H   UNL     1      36.940  43.536  66.321  1.00  0.00     0.163 HD
HETATM   21  O   UNL     1      35.997  45.534  64.050  1.00  0.00    -0.267 OA
BRANCH  19  22
HETATM   22  C   UNL     1      34.885  43.904  66.029  1.00  0.00     0.149 C 
BRANCH  22  23
HETATM   23  C   UNL     1      34.573  42.464  65.751  1.00  0.00    -0.018 C 
HETATM   24  C   UNL     1      35.383  41.519  65.250  1.00  0.00     0.008 C 
ENDBRANCH  22  23
ENDBRANCH  19  22
ENDBRANCH   9  18
TORSDOF 5
ENDMDL
MODEL 6
REMARK VINA RESULT:      -7.0      2.555      4.653
REMARK  5 active torsions:
REMARK  status: ('A' for Active; 'I' for Inactive)
REMARK    1  A    between atoms: C_8  and  O_9 
REMARK    2  A    between atoms: O_9  and  C_10 
REMARK    3  A    between atoms: C_17  and  C_18 
REMARK       I    between atoms: C_18  and  N_19 
REMARK    4  A    between atoms: N_19  and  C_20 
REMARK    5  A    between atoms: C_20  and  C_21 
ROOT
HETATM    1  C   UNL     1      28.545  41.419  53.344  1.00  0.00     0.051 C 
HETATM    2  C   UNL     1      27.559  41.984  52.353  1.00  0.00    -0.018 A 
HETATM    3  C   UNL     1      27.407  41.424  51.069  1.00  0.00     0.065 A 
HETATM    4 CL   UNL     1      28.370  40.074  50.566  1.00  0.00    -0.082 Cl
HETATM    5  C   UNL     1      26.469  41.977  50.185  1.00  0.00     0.056 A 
HETATM    6  C   UNL     1      26.243  41.420  48.807  1.00  0.00     0.072 C 
HETATM    7  N   UNL     1      25.710  43.054  50.505  1.00  0.00    -0.227 NA
HETATM    8  C   UNL     1      25.904  43.624  51.717  1.00  0.00     0.186 A 
HETATM    9  C   UNL     1      26.788  43.126  52.671  1.00  0.00     0.092 A 
ENDROOT
BRANCH   8  10
HETATM   10  O   UNL     1      25.132  44.734  52.039  1.00  0.00    -0.291 OA
BRANCH  10  11
HETATM   11  C   UNL     1      25.237  45.817  51.201  1.00  0.00     0.078 A 
HETATM   12  C   UNL     1      24.157  46.095  50.361  1.00  0.00     0.040 A 
HETATM   13  C   UNL     1      24.201  47.216  49.530  1.00  0.00     0.045 A 
HETATM   14  C   UNL     1      25.313  48.051  49.564  1.00  0.00     0.116 A 
HETATM   15  F   UNL     1      25.352  49.128  48.769  1.00  0.00    -0.206 F 
HETATM   16  C   UNL     1      26.382  47.792  50.417  1.00  0.00     0.045 A 
HETATM   17  C   UNL     1      26.342  46.672  51.248  1.00  0.00     0.040 A 
ENDBRANCH  10  11
ENDBRANCH   8  10
BRANCH   9  18
HETATM   18  C   UNL     1      26.970  43.836  53.961  1.00  0.00     0.256 C 
HETATM   19  N   UNL     1      27.895  44.858  53.976  1.00  0.00    -0.353 N 
HETATM   20  H   UNL     1      28.561  44.918  53.217  1.00  0.00     0.163 HD
HETATM   21  O   UNL     1      26.306  43.505  54.936  1.00  0.00    -0.267 OA
BRANCH  19  22
HETATM   22  C   UNL     1      28.248  45.494  55.220  1.00  0.00     0.149 C 
BRANCH  22  23
HETATM   23  C   UNL     1      29.624  45.098  55.667  1.00  0.00    -0.018 C 
HETATM   24  C   UNL     1      30.280  43.954  55.423  1.00  0.00     0.008 C 
ENDBRANCH  22  23
ENDBRANCH  19  22
ENDBRANCH   9  18
TORSDOF 5
ENDMDL
MODEL 7
REMARK VINA RESULT:      -6.9      5.518      8.685
REMARK  5 active torsions:
REMARK  status: ('A' for Active; 'I' for Inactive)
REMARK    1  A    between atoms: C_8  and  O_9 
REMARK    2  A    between atoms: O_9  and  C_10 
REMARK    3  A    between atoms: C_17  and  C_18 
REMARK       I    between atoms: C_18  and  N_19 
REMARK    4  A    between atoms: N_19  and  C_20 
REMARK    5  A    between atoms: C_20  and  C_21 
ROOT
HETATM    1  C   UNL     1      18.308  47.783  46.923  1.00  0.00     0.051 C 
HETATM    2  C   UNL     1      19.735  47.330  47.103  1.00  0.00    -0.018 A 
HETATM    3  C   UNL     1      20.327  46.401  46.225  1.00  0.00     0.065 A 
HETATM    4 CL   UNL     1      19.426  45.718  44.911  1.00  0.00    -0.082 Cl
HETATM    5  C   UNL     1      21.661  46.017  46.427  1.00  0.00     0.056 A 
HETATM    6  C   UNL     1      22.360  45.044  45.520  1.00  0.00     0.072 C 
HETATM    7  N   UNL     1      22.409  46.488  47.456  1.00  0.00    -0.227 NA
HETATM    8  C   UNL     1      21.816  47.334  48.331  1.00  0.00     0.186 A 
HETATM    9  C   UNL     1      20.508  47.794  48.192  1.00  0.00     0.092 A 
ENDROOT
BRANCH   8  10
HETATM   10  O   UNL     1      22.581  47.807  49.390  1.00  0.00    -0.291 OA
BRANCH  10  11
HETATM   11  C   UNL     1      23.785  48.382  49.066  1.00  0.00     0.078 A 
HETATM   12  C   UNL     1      23.767  49.515  48.250  1.00  0.00     0.040 A 
HETATM   13  C   UNL     1      24.965  50.160  47.940  1.00  0.00     0.045 A 
HETATM   14  C   UNL     1      26.160  49.677  48.464  1.00  0.00     0.116 A 
HETATM   15  F   UNL     1      27.308  50.299  48.168  1.00  0.00    -0.206 F 
HETATM   16  C   UNL     1      26.182  48.562  49.298  1.00  0.00     0.045 A 
HETATM   17  C   UNL     1      24.986  47.914  49.610  1.00  0.00     0.040 A 
ENDBRANCH  10  11
ENDBRANCH   8  10
BRANCH   9  18
HETATM   18  C   UNL     1      19.922  48.689  49.221  1.00  0.00     0.256 C 
HETATM   19  N   UNL     1      20.249  50.025  49.133  1.00  0.00    -0.353 N 
HETATM   20  H   UNL     1      21.034  50.294  48.554  1.00  0.00     0.163 HD
HETATM   21  O   UNL     1      19.184  48.224  50.081  1.00  0.00    -0.267 OA
BRANCH  19  22
HETATM   22  C   UNL     1      19.854  50.935  50.178  1.00  0.00     0.149 C 
BRANCH  22  23
HETATM   23  C   UNL     1      18.882  51.960  49.674  1.00  0.00    -0.018 C 
HETATM   24  C   UNL     1      18.829  52.530  48.461  1.00  0.00     0.008 C 
ENDBRANCH  22  23
ENDBRANCH  19  22
ENDBRANCH   9  18
TORSDOF 5
ENDMDL
MODEL 8
REMARK VINA RESULT:      -6.7      3.021      6.161
REMARK  5 active torsions:
REMARK  status: ('A' for Active; 'I' for Inactive)
REMARK    1  A    between atoms: C_8  and  O_9 
REMARK    2  A    between atoms: O_9  and  C_10 
REMARK    3  A    between atoms: C_17  and  C_18 
REMARK       I    between atoms: C_18  and  N_19 
REMARK    4  A    between atoms: N_19  and  C_20 
REMARK    5  A    between atoms: C_20  and  C_21 
ROOT
HETATM    1  C   UNL     1      26.330  46.112  54.355  1.00  0.00     0.051 C 
HETATM    2  C   UNL     1      27.104  45.129  53.514  1.00  0.00    -0.018 A 
HETATM    3  C   UNL     1      28.316  44.570  53.967  1.00  0.00     0.065 A 
HETATM    4 CL   UNL     1      28.980  45.013  55.506  1.00  0.00    -0.082 Cl
HETATM    5  C   UNL     1      28.996  43.653  53.154  1.00  0.00     0.056 A 
HETATM    6  C   UNL     1      30.283  43.006  53.581  1.00  0.00     0.072 C 
HETATM    7  N   UNL     1      28.548  43.292  51.926  1.00  0.00    -0.227 NA
HETATM    8  C   UNL     1      27.415  43.878  51.471  1.00  0.00     0.186 A 
HETATM    9  C   UNL     1      26.657  44.775  52.221  1.00  0.00     0.092 A 
ENDROOT
BRANCH   8  10
HETATM   10  O   UNL     1      26.963  43.515  50.209  1.00  0.00    -0.291 OA
BRANCH  10  11
HETATM   11  C   UNL     1      26.912  42.169  49.940  1.00  0.00     0.078 A 
HETATM   12  C   UNL     1      26.182  41.359  50.812  1.00  0.00     0.040 A 
HETATM   13  C   UNL     1      26.062  39.994  50.546  1.00  0.00     0.045 A 
HETATM   14  C   UNL     1      26.656  39.462  49.407  1.00  0.00     0.116 A 
HETATM   15  F   UNL     1      26.537  38.152  49.152  1.00  0.00    -0.206 F 
HETATM   16  C   UNL     1      27.365  40.269  48.521  1.00  0.00     0.045 A 
HETATM   17  C   UNL     1      27.488  41.634  48.783  1.00  0.00     0.040 A 
ENDBRANCH  10  11
ENDBRANCH   8  10
BRANCH   9  18
HETATM   18  C   UNL     1      25.449  45.403  51.630  1.00  0.00     0.256 C 
HETATM   19  N   UNL     1      25.659  46.491  50.810  1.00  0.00    -0.353 N 
HETATM   20  H   UNL     1      26.560  46.952  50.839  1.00  0.00     0.163 HD
HETATM   21  O   UNL     1      24.341  44.943  51.878  1.00  0.00    -0.267 OA
BRANCH  19  22
HETATM   22  C   UNL     1      24.539  47.256  50.324  1.00  0.00     0.149 C 
BRANCH  22  23
HETATM   23  C   UNL     1      24.978  48.322  49.365  1.00  0.00    -0.018 C 
HETATM   24  C   UNL     1      26.216  48.794  49.157  1.00  0.00     0.008 C 
ENDBRANCH  22  23
ENDBRANCH  19  22
ENDBRANCH   9  18
TORSDOF 5
ENDMDL
MODEL 9
REMARK VINA RESULT:      -6.7      3.868      7.126
REMARK  5 active torsions:
REMARK  status: ('A' for Active; 'I' for Inactive)
REMARK    1  A    between atoms: C_8  and  O_9 
REMARK    2  A    between atoms: O_9  and  C_10 
REMARK    3  A    between atoms: C_17  and  C_18 
REMARK       I    between atoms: C_18  and  N_19 
REMARK    4  A    between atoms: N_19  and  C_20 
REMARK    5  A    between atoms: C_20  and  C_21 
ROOT
HETATM    1  C   UNL     1      23.582  43.923  48.931  1.00  0.00     0.051 C 
HETATM    2  C   UNL     1      24.895  43.336  49.384  1.00  0.00    -0.018 A 
HETATM    3  C   UNL     1      25.192  41.971  49.199  1.00  0.00     0.065 A 
HETATM    4 CL   UNL     1      24.043  40.902  48.463  1.00  0.00    -0.082 Cl
HETATM    5  C   UNL     1      26.431  41.472  49.628  1.00  0.00     0.056 A 
HETATM    6  C   UNL     1      26.819  40.032  49.447  1.00  0.00     0.072 C 
HETATM    7  N   UNL     1      27.358  42.249  50.242  1.00  0.00    -0.227 NA
HETATM    8  C   UNL     1      27.043  43.545  50.471  1.00  0.00     0.186 A 
HETATM    9  C   UNL     1      25.851  44.134  50.052  1.00  0.00     0.092 A 
ENDROOT
BRANCH   8  10
HETATM   10  O   UNL     1      27.990  44.336  51.108  1.00  0.00    -0.291 OA
BRANCH  10  11
HETATM   11  C   UNL     1      28.473  43.868  52.306  1.00  0.00     0.078 A 
HETATM   12  C   UNL     1      29.696  43.196  52.295  1.00  0.00     0.040 A 
HETATM   13  C   UNL     1      30.248  42.750  53.497  1.00  0.00     0.045 A 
HETATM   14  C   UNL     1      29.579  42.996  54.692  1.00  0.00     0.116 A 
HETATM   15  F   UNL     1      30.112  42.570  55.844  1.00  0.00    -0.206 F 
HETATM   16  C   UNL     1      28.371  43.688  54.711  1.00  0.00     0.045 A 
HETATM   17  C   UNL     1      27.816  44.135  53.512  1.00  0.00     0.040 A 
ENDBRANCH  10  11
ENDBRANCH   8  10
BRANCH   9  18
HETATM   18  C   UNL     1      25.568  45.553  50.381  1.00  0.00     0.256 C 
HETATM   19  N   UNL     1      26.200  46.503  49.607  1.00  0.00    -0.353 N 
HETATM   20  H   UNL     1      26.986  46.217  49.037  1.00  0.00     0.163 HD
HETATM   21  O   UNL     1      24.799  45.823  51.296  1.00  0.00    -0.267 OA
BRANCH  19  22
HETATM   22  C   UNL     1      26.106  47.898  49.957  1.00  0.00     0.149 C 
BRANCH  22  23
HETATM   23  C   UNL     1      27.254  48.682  49.393  1.00  0.00    -0.018 C 
HETATM   24  C   UNL     1      27.214  49.813  48.674  1.00  0.00     0.008 C 
ENDBRANCH  22  23
ENDBRANCH  19  22
ENDBRANCH   9  18
TORSDOF 5
ENDMDL
MODEL 10
REMARK VINA RESULT:      -6.7     12.056     14.186
REMARK  5 active torsions:
REMARK  status: ('A' for Active; 'I' for Inactive)
REMARK    1  A    between atoms: C_8  and  O_9 
REMARK    2  A    between atoms: O_9  and  C_10 
REMARK    3  A    between atoms: C_17  and  C_18 
REMARK       I    between atoms: C_18  and  N_19 
REMARK    4  A    between atoms: N_19  and  C_20 
REMARK    5  A    between atoms: C_20  and  C_21 
ROOT
HETATM    1  C   UNL     1      26.619  49.714  38.104  1.00  0.00     0.051 C 
HETATM    2  C   UNL     1      27.816  48.872  38.469  1.00  0.00    -0.018 A 
HETATM    3  C   UNL     1      27.695  47.489  38.709  1.00  0.00     0.065 A 
HETATM    4 CL   UNL     1      26.153  46.701  38.619  1.00  0.00    -0.082 Cl
HETATM    5  C   UNL     1      28.838  46.746  39.037  1.00  0.00     0.056 A 
HETATM    6  C   UNL     1      28.784  45.265  39.289  1.00  0.00     0.072 C 
HETATM    7  N   UNL     1      30.065  47.309  39.158  1.00  0.00    -0.227 NA
HETATM    8  C   UNL     1      30.165  48.648  38.985  1.00  0.00     0.186 A 
HETATM    9  C   UNL     1      29.091  49.461  38.627  1.00  0.00     0.092 A 
ENDROOT
BRANCH   8  10
HETATM   10  O   UNL     1      31.422  49.224  39.119  1.00  0.00    -0.291 OA
BRANCH  10  11
HETATM   11  C   UNL     1      31.790  49.602  40.387  1.00  0.00     0.078 A 
HETATM   12  C   UNL     1      32.846  50.506  40.516  1.00  0.00     0.040 A 
HETATM   13  C   UNL     1      33.218  50.955  41.784  1.00  0.00     0.045 A 
HETATM   14  C   UNL     1      32.520  50.509  42.901  1.00  0.00     0.116 A 
HETATM   15  F   UNL     1      32.877  50.944  44.117  1.00  0.00    -0.206 F 
HETATM   16  C   UNL     1      31.451  49.626  42.777  1.00  0.00     0.045 A 
HETATM   17  C   UNL     1      31.076  49.174  41.512  1.00  0.00     0.040 A 
ENDBRANCH  10  11
ENDBRANCH   8  10
BRANCH   9  18
HETATM   18  C   UNL     1      29.279  50.927  38.498  1.00  0.00     0.256 C 
HETATM   19  N   UNL     1      29.093  51.674  39.641  1.00  0.00    -0.353 N 
HETATM   20  H   UNL     1      28.616  51.249  40.425  1.00  0.00     0.163 HD
HETATM   21  O   UNL     1      29.591  51.407  37.415  1.00  0.00    -0.267 OA
BRANCH  19  22
HETATM   22  C   UNL     1      29.100  53.114  39.571  1.00  0.00     0.149 C 
BRANCH  22  23
HETATM   23  C   UNL     1      30.233  53.696  40.363  1.00  0.00    -0.018 C 
HETATM   24  C   UNL     1      30.643  53.361  41.595  1.00  0.00     0.008 C 
ENDBRANCH  22  23
ENDBRANCH  19  22
ENDBRANCH   9  18
TORSDOF 5
ENDMDL
