MODEL 1
REMARK VINA RESULT:      -9.8      0.000      0.000
REMARK  5 active torsions:
REMARK  status: ('A' for Active; 'I' for Inactive)
REMARK    1  A    between atoms: C_5  and  O_6 
REMARK    2  A    between atoms: O_6  and  C_7 
REMARK    3  A    between atoms: C_7  and  C_8 
REMARK       I    between atoms: C_8  and  N_9 
REMARK    4  A    between atoms: N_9  and  N_10 
REMARK    5  A    between atoms: C_11  and  C_12 
ROOT
HETATM    1  C   UNL     1      26.324  46.562  53.914  1.00  0.00     0.261 C 
HETATM    2  N   UNL     1      26.447  46.541  52.529  1.00  0.00    -0.246 N 
HETATM    3  O   UNL     1      25.764  47.433  54.579  1.00  0.00    -0.269 OA
HETATM    4  H   UNL     1      27.143  45.901  52.149  1.00  0.00     0.192 HD
ENDROOT
BRANCH   2   5
HETATM    5  N   UNL     1      26.078  47.551  51.669  1.00  0.00    -0.184 NA
HETATM    6  C   UNL     1      26.384  47.437  50.416  1.00  0.00     0.152 C 
BRANCH   6   7
HETATM    7  C   UNL     1      25.961  48.452  49.472  1.00  0.00     0.011 A 
HETATM    8  C   UNL     1      24.612  48.783  49.120  1.00  0.00     0.004 A 
HETATM    9  C   UNL     1      24.663  49.809  48.176  1.00  0.00     0.043 A 
HETATM   10  C   UNL     1      23.345  48.309  49.529  1.00  0.00     0.014 A 
HETATM   11  C   UNL     1      23.515  50.380  47.614  1.00  0.00     0.030 A 
HETATM   12  N   UNL     1      25.993  50.094  47.962  1.00  0.00    -0.364 N 
HETATM   13  C   UNL     1      22.274  49.890  48.034  1.00  0.00     0.002 A 
HETATM   14  C   UNL     1      22.188  48.872  48.979  1.00  0.00     0.001 A 
HETATM   15  H   UNL     1      26.331  50.803  47.326  1.00  0.00     0.165 HD
HETATM   16  C   UNL     1      26.781  49.291  48.740  1.00  0.00     0.102 A 
ENDBRANCH   6   7
ENDBRANCH   2   5
BRANCH   1  17
HETATM   17  C   UNL     1      26.910  45.325  54.588  1.00  0.00     0.280 C 
BRANCH  17  18
HETATM   18  O   UNL     1      28.272  45.101  54.211  1.00  0.00    -0.342 OA
BRANCH  18  19
HETATM   19  C   UNL     1      29.052  45.107  55.343  1.00  0.00     0.075 A 
HETATM   20  C   UNL     1      30.103  44.189  55.499  1.00  0.00    -0.023 A 
HETATM   21  C   UNL     1      30.807  44.177  56.722  1.00  0.00    -0.053 A 
HETATM   22  C   UNL     1      30.430  43.207  54.405  1.00  0.00     0.052 C 
HETATM   23  C   UNL     1      31.907  43.185  56.995  1.00  0.00     0.049 C 
HETATM   24  C   UNL     1      30.502  45.133  57.707  1.00  0.00     0.007 A 
HETATM   25  C   UNL     1      29.497  46.078  57.502  1.00  0.00     0.003 A 
HETATM   26  C   UNL     1      28.771  46.067  56.318  1.00  0.00     0.037 A 
ENDBRANCH  18  19
ENDBRANCH  17  18
ENDBRANCH   1  17
TORSDOF 5
ENDMDL
MODEL 2
REMARK VINA RESULT:      -9.2      1.518      2.445
REMARK  5 active torsions:
REMARK  status: ('A' for Active; 'I' for Inactive)
REMARK    1  A    between atoms: C_5  and  O_6 
REMARK    2  A    between atoms: O_6  and  C_7 
REMARK    3  A    between atoms: C_7  and  C_8 
REMARK       I    between atoms: C_8  and  N_9 
REMARK    4  A    between atoms: N_9  and  N_10 
REMARK    5  A    between atoms: C_11  and  C_12 
ROOT
HETATM    1  C   UNL     1      26.460  47.607  53.875  1.00  0.00     0.261 C 
HETATM    2  N   UNL     1      26.296  47.138  52.577  1.00  0.00    -0.246 N 
HETATM    3  O   UNL     1      25.597  48.145  54.567  1.00  0.00    -0.269 OA
HETATM    4  H   UNL     1      27.150  46.953  52.053  1.00  0.00     0.192 HD
ENDROOT
BRANCH   2   5
HETATM    5  N   UNL     1      25.177  47.308  51.791  1.00  0.00    -0.184 NA
HETATM    6  C   UNL     1      25.296  47.167  50.510  1.00  0.00     0.152 C 
BRANCH   6   7
HETATM    7  C   UNL     1      24.129  47.282  49.657  1.00  0.00     0.011 A 
HETATM    8  C   UNL     1      23.603  48.488  49.088  1.00  0.00     0.004 A 
HETATM    9  C   UNL     1      22.475  48.143  48.344  1.00  0.00     0.043 A 
HETATM   10  C   UNL     1      23.991  49.846  49.130  1.00  0.00     0.014 A 
HETATM   11  C   UNL     1      21.710  49.086  47.646  1.00  0.00     0.030 A 
HETATM   12  N   UNL     1      22.321  46.780  48.452  1.00  0.00    -0.364 N 
HETATM   13  C   UNL     1      22.115  50.423  47.705  1.00  0.00     0.002 A 
HETATM   14  C   UNL     1      23.240  50.800  48.435  1.00  0.00     0.001 A 
HETATM   15  H   UNL     1      21.583  46.250  48.009  1.00  0.00     0.165 HD
HETATM   16  C   UNL     1      23.312  46.251  49.233  1.00  0.00     0.102 A 
ENDBRANCH   6   7
ENDBRANCH   2   5
BRANCH   1  17
HETATM   17  C   UNL     1      27.851  47.332  54.441  1.00  0.00     0.280 C 
BRANCH  17  18
HETATM   18  O   UNL     1      27.806  46.485  55.593  1.00  0.00    -0.342 OA
BRANCH  18  19
HETATM   19  C   UNL     1      28.656  45.423  55.397  1.00  0.00     0.075 A 
HETATM   20  C   UNL     1      29.664  45.125  56.329  1.00  0.00    -0.023 A 
HETATM   21  C   UNL     1      30.569  44.085  56.028  1.00  0.00    -0.053 A 
HETATM   22  C   UNL     1      29.804  45.935  57.590  1.00  0.00     0.052 C 
HETATM   23  C   UNL     1      31.715  43.740  56.942  1.00  0.00     0.049 C 
HETATM   24  C   UNL     1      30.386  43.323  54.860  1.00  0.00     0.007 A 
HETATM   25  C   UNL     1      29.337  43.596  53.983  1.00  0.00     0.003 A 
HETATM   26  C   UNL     1      28.469  44.647  54.251  1.00  0.00     0.037 A 
ENDBRANCH  18  19
ENDBRANCH  17  18
ENDBRANCH   1  17
TORSDOF 5
ENDMDL
MODEL 3
REMARK VINA RESULT:      -9.1      1.965      2.873
REMARK  5 active torsions:
REMARK  status: ('A' for Active; 'I' for Inactive)
REMARK    1  A    between atoms: C_5  and  O_6 
REMARK    2  A    between atoms: O_6  and  C_7 
REMARK    3  A    between atoms: C_7  and  C_8 
REMARK       I    between atoms: C_8  and  N_9 
REMARK    4  A    between atoms: N_9  and  N_10 
REMARK    5  A    between atoms: C_11  and  C_12 
ROOT
HETATM    1  C   UNL     1      26.569  43.796  50.780  1.00  0.00     0.261 C 
HETATM    2  N   UNL     1      27.417  44.758  50.243  1.00  0.00    -0.246 N 
HETATM    3  O   UNL     1      25.356  43.713  50.593  1.00  0.00    -0.269 OA
HETATM    4  H   UNL     1      28.331  44.848  50.683  1.00  0.00     0.192 HD
ENDROOT
BRANCH   2   5
HETATM    5  N   UNL     1      27.030  45.859  49.512  1.00  0.00    -0.184 NA
HETATM    6  C   UNL     1      26.614  46.907  50.148  1.00  0.00     0.152 C 
BRANCH   6   7
HETATM    7  C   UNL     1      26.253  48.104  49.414  1.00  0.00     0.011 A 
HETATM    8  C   UNL     1      24.925  48.561  49.124  1.00  0.00     0.004 A 
HETATM    9  C   UNL     1      25.039  49.744  48.396  1.00  0.00     0.043 A 
HETATM   10  C   UNL     1      23.632  48.078  49.425  1.00  0.00     0.014 A 
HETATM   11  C   UNL     1      23.927  50.467  47.946  1.00  0.00     0.030 A 
HETATM   12  N   UNL     1      26.383  50.002  48.250  1.00  0.00    -0.364 N 
HETATM   13  C   UNL     1      22.658  49.966  48.256  1.00  0.00     0.002 A 
HETATM   14  C   UNL     1      22.511  48.790  48.986  1.00  0.00     0.001 A 
HETATM   15  H   UNL     1      26.763  50.803  47.765  1.00  0.00     0.165 HD
HETATM   16  C   UNL     1      27.122  49.027  48.864  1.00  0.00     0.102 A 
ENDBRANCH   6   7
ENDBRANCH   2   5
BRANCH   1  17
HETATM   17  C   UNL     1      27.301  42.750  51.616  1.00  0.00     0.280 C 
BRANCH  17  18
HETATM   18  O   UNL     1      26.867  42.752  52.980  1.00  0.00    -0.342 OA
BRANCH  18  19
HETATM   19  C   UNL     1      27.879  43.245  53.767  1.00  0.00     0.075 A 
HETATM   20  C   UNL     1      27.750  44.485  54.415  1.00  0.00    -0.023 A 
HETATM   21  C   UNL     1      28.859  44.986  55.130  1.00  0.00    -0.053 A 
HETATM   22  C   UNL     1      26.477  45.279  54.300  1.00  0.00     0.052 C 
HETATM   23  C   UNL     1      28.826  46.334  55.802  1.00  0.00     0.049 C 
HETATM   24  C   UNL     1      30.019  44.201  55.250  1.00  0.00     0.007 A 
HETATM   25  C   UNL     1      30.099  42.944  54.653  1.00  0.00     0.003 A 
HETATM   26  C   UNL     1      29.027  42.464  53.911  1.00  0.00     0.037 A 
ENDBRANCH  18  19
ENDBRANCH  17  18
ENDBRANCH   1  17
TORSDOF 5
ENDMDL
MODEL 4
REMARK VINA RESULT:      -9.0      2.238      3.592
REMARK  5 active torsions:
REMARK  status: ('A' for Active; 'I' for Inactive)
REMARK    1  A    between atoms: C_5  and  O_6 
REMARK    2  A    between atoms: O_6  and  C_7 
REMARK    3  A    between atoms: C_7  and  C_8 
REMARK       I    between atoms: C_8  and  N_9 
REMARK    4  A    between atoms: N_9  and  N_10 
REMARK    5  A    between atoms: C_11  and  C_12 
ROOT
HETATM    1  C   UNL     1      27.313  42.705  51.361  1.00  0.00     0.261 C 
HETATM    2  N   UNL     1      27.642  44.041  51.164  1.00  0.00    -0.246 N 
HETATM    3  O   UNL     1      26.406  42.090  50.802  1.00  0.00    -0.269 OA
HETATM    4  H   UNL     1      28.239  44.467  51.870  1.00  0.00     0.192 HD
ENDROOT
BRANCH   2   5
HETATM    5  N   UNL     1      26.932  44.944  50.405  1.00  0.00    -0.184 NA
HETATM    6  C   UNL     1      26.174  45.800  51.013  1.00  0.00     0.152 C 
BRANCH   6   7
HETATM    7  C   UNL     1      25.456  46.803  50.250  1.00  0.00     0.011 A 
HETATM    8  C   UNL     1      26.017  47.967  49.631  1.00  0.00     0.004 A 
HETATM    9  C   UNL     1      24.974  48.655  49.009  1.00  0.00     0.043 A 
HETATM   10  C   UNL     1      27.323  48.496  49.532  1.00  0.00     0.014 A 
HETATM   11  C   UNL     1      25.168  49.847  48.302  1.00  0.00     0.030 A 
HETATM   12  N   UNL     1      23.823  47.936  49.239  1.00  0.00    -0.364 N 
HETATM   13  C   UNL     1      26.471  50.350  48.221  1.00  0.00     0.002 A 
HETATM   14  C   UNL     1      27.535  49.685  48.826  1.00  0.00     0.001 A 
HETATM   15  H   UNL     1      22.908  48.198  48.900  1.00  0.00     0.165 HD
HETATM   16  C   UNL     1      24.102  46.818  49.977  1.00  0.00     0.102 A 
ENDBRANCH   6   7
ENDBRANCH   2   5
BRANCH   1  17
HETATM   17  C   UNL     1      28.253  41.992  52.330  1.00  0.00     0.280 C 
BRANCH  17  18
HETATM   18  O   UNL     1      27.781  42.053  53.680  1.00  0.00    -0.342 OA
BRANCH  18  19
HETATM   19  C   UNL     1      28.510  42.996  54.363  1.00  0.00     0.075 A 
HETATM   20  C   UNL     1      27.917  44.199  54.784  1.00  0.00    -0.023 A 
HETATM   21  C   UNL     1      28.737  45.172  55.395  1.00  0.00    -0.053 A 
HETATM   22  C   UNL     1      26.455  44.458  54.539  1.00  0.00     0.052 C 
HETATM   23  C   UNL     1      28.196  46.511  55.821  1.00  0.00     0.049 C 
HETATM   24  C   UNL     1      30.090  44.881  55.644  1.00  0.00     0.007 A 
HETATM   25  C   UNL     1      30.640  43.654  55.276  1.00  0.00     0.003 A 
HETATM   26  C   UNL     1      29.849  42.709  54.635  1.00  0.00     0.037 A 
ENDBRANCH  18  19
ENDBRANCH  17  18
ENDBRANCH   1  17
TORSDOF 5
ENDMDL
MODEL 5
REMARK VINA RESULT:      -8.9      2.114      2.974
REMARK  5 active torsions:
REMARK  status: ('A' for Active; 'I' for Inactive)
REMARK    1  A    between atoms: C_5  and  O_6 
REMARK    2  A    between atoms: O_6  and  C_7 
REMARK    3  A    between atoms: C_7  and  C_8 
REMARK       I    between atoms: C_8  and  N_9 
REMARK    4  A    between atoms: N_9  and  N_10 
REMARK    5  A    between atoms: C_11  and  C_12 
ROOT
HETATM    1  C   UNL     1      26.682  47.606  54.300  1.00  0.00     0.261 C 
HETATM    2  N   UNL     1      26.563  47.175  52.984  1.00  0.00    -0.246 N 
HETATM    3  O   UNL     1      25.784  48.088  54.989  1.00  0.00    -0.269 OA
HETATM    4  H   UNL     1      27.435  47.040  52.474  1.00  0.00     0.192 HD
ENDROOT
BRANCH   2   5
HETATM    5  N   UNL     1      25.455  47.327  52.180  1.00  0.00    -0.184 NA
HETATM    6  C   UNL     1      25.582  47.116  50.908  1.00  0.00     0.152 C 
BRANCH   6   7
HETATM    7  C   UNL     1      24.425  47.211  50.040  1.00  0.00     0.011 A 
HETATM    8  C   UNL     1      23.628  46.122  49.558  1.00  0.00     0.004 A 
HETATM    9  C   UNL     1      22.626  46.661  48.751  1.00  0.00     0.043 A 
HETATM   10  C   UNL     1      23.661  44.722  49.742  1.00  0.00     0.014 A 
HETATM   11  C   UNL     1      21.660  45.873  48.114  1.00  0.00     0.030 A 
HETATM   12  N   UNL     1      22.803  48.026  48.744  1.00  0.00    -0.364 N 
HETATM   13  C   UNL     1      21.717  44.489  48.312  1.00  0.00     0.002 A 
HETATM   14  C   UNL     1      22.701  43.920  49.116  1.00  0.00     0.001 A 
HETATM   15  H   UNL     1      22.215  48.677  48.242  1.00  0.00     0.165 HD
HETATM   16  C   UNL     1      23.876  48.368  49.520  1.00  0.00     0.102 A 
ENDBRANCH   6   7
ENDBRANCH   2   5
BRANCH   1  17
HETATM   17  C   UNL     1      28.070  47.368  54.887  1.00  0.00     0.280 C 
BRANCH  17  18
HETATM   18  O   UNL     1      28.037  46.468  55.999  1.00  0.00    -0.342 OA
BRANCH  18  19
HETATM   19  C   UNL     1      28.872  45.409  55.738  1.00  0.00     0.075 A 
HETATM   20  C   UNL     1      29.904  45.068  56.629  1.00  0.00    -0.023 A 
HETATM   21  C   UNL     1      30.791  44.033  56.262  1.00  0.00    -0.053 A 
HETATM   22  C   UNL     1      30.086  45.828  57.915  1.00  0.00     0.052 C 
HETATM   23  C   UNL     1      31.960  43.646  57.129  1.00  0.00     0.049 C 
HETATM   24  C   UNL     1      30.569  43.318  55.072  1.00  0.00     0.007 A 
HETATM   25  C   UNL     1      29.498  43.632  54.236  1.00  0.00     0.003 A 
HETATM   26  C   UNL     1      28.647  44.678  54.570  1.00  0.00     0.037 A 
ENDBRANCH  18  19
ENDBRANCH  17  18
ENDBRANCH   1  17
TORSDOF 5
ENDMDL
MODEL 6
REMARK VINA RESULT:      -8.8      2.334     10.034
REMARK  5 active torsions:
REMARK  status: ('A' for Active; 'I' for Inactive)
REMARK    1  A    between atoms: C_5  and  O_6 
REMARK    2  A    between atoms: O_6  and  C_7 
REMARK    3  A    between atoms: C_7  and  C_8 
REMARK       I    between atoms: C_8  and  N_9 
REMARK    4  A    between atoms: N_9  and  N_10 
REMARK    5  A    between atoms: C_11  and  C_12 
ROOT
HETATM    1  C   UNL     1      25.004  47.698  50.307  1.00  0.00     0.261 C 
HETATM    2  N   UNL     1      25.084  46.897  51.440  1.00  0.00    -0.246 N 
HETATM    3  O   UNL     1      25.859  48.495  49.921  1.00  0.00    -0.269 OA
HETATM    4  H   UNL     1      24.210  46.486  51.764  1.00  0.00     0.192 HD
ENDROOT
BRANCH   2   5
HETATM    5  N   UNL     1      26.074  46.945  52.397  1.00  0.00    -0.184 NA
HETATM    6  C   UNL     1      26.198  45.943  53.207  1.00  0.00     0.152 C 
BRANCH   6   7
HETATM    7  C   UNL     1      27.264  45.933  54.189  1.00  0.00     0.011 A 
HETATM    8  C   UNL     1      28.290  44.941  54.326  1.00  0.00     0.004 A 
HETATM    9  C   UNL     1      29.099  45.319  55.398  1.00  0.00     0.043 A 
HETATM   10  C   UNL     1      28.611  43.756  53.628  1.00  0.00     0.014 A 
HETATM   11  C   UNL     1      30.207  44.571  55.812  1.00  0.00     0.030 A 
HETATM   12  N   UNL     1      28.589  46.498  55.892  1.00  0.00    -0.364 N 
HETATM   13  C   UNL     1      30.502  43.401  55.104  1.00  0.00     0.002 A 
HETATM   14  C   UNL     1      29.718  42.998  54.027  1.00  0.00     0.001 A 
HETATM   15  H   UNL     1      28.979  47.008  56.673  1.00  0.00     0.165 HD
HETATM   16  C   UNL     1      27.491  46.880  55.170  1.00  0.00     0.102 A 
ENDBRANCH   6   7
ENDBRANCH   2   5
BRANCH   1  17
HETATM   17  C   UNL     1      23.736  47.461  49.492  1.00  0.00     0.280 C 
BRANCH  17  18
HETATM   18  O   UNL     1      23.674  48.303  48.337  1.00  0.00    -0.342 OA
BRANCH  18  19
HETATM   19  C   UNL     1      22.373  48.702  48.148  1.00  0.00     0.075 A 
HETATM   20  C   UNL     1      21.996  50.043  48.337  1.00  0.00    -0.023 A 
HETATM   21  C   UNL     1      20.629  50.376  48.225  1.00  0.00    -0.053 A 
HETATM   22  C   UNL     1      23.021  51.082  48.703  1.00  0.00     0.052 C 
HETATM   23  C   UNL     1      20.131  51.777  48.471  1.00  0.00     0.049 C 
HETATM   24  C   UNL     1      19.703  49.390  47.844  1.00  0.00     0.007 A 
HETATM   25  C   UNL     1      20.112  48.080  47.597  1.00  0.00     0.003 A 
HETATM   26  C   UNL     1      21.449  47.735  47.748  1.00  0.00     0.037 A 
ENDBRANCH  18  19
ENDBRANCH  17  18
ENDBRANCH   1  17
TORSDOF 5
ENDMDL
MODEL 7
REMARK VINA RESULT:      -8.7      1.974      3.208
REMARK  5 active torsions:
REMARK  status: ('A' for Active; 'I' for Inactive)
REMARK    1  A    between atoms: C_5  and  O_6 
REMARK    2  A    between atoms: O_6  and  C_7 
REMARK    3  A    between atoms: C_7  and  C_8 
REMARK       I    between atoms: C_8  and  N_9 
REMARK    4  A    between atoms: N_9  and  N_10 
REMARK    5  A    between atoms: C_11  and  C_12 
ROOT
HETATM    1  C   UNL     1      25.993  46.646  51.663  1.00  0.00     0.261 C 
HETATM    2  N   UNL     1      25.360  46.842  50.441  1.00  0.00    -0.246 N 
HETATM    3  O   UNL     1      26.099  47.475  52.566  1.00  0.00    -0.269 OA
HETATM    4  H   UNL     1      25.571  46.163  49.711  1.00  0.00     0.192 HD
ENDROOT
BRANCH   2   5
HETATM    5  N   UNL     1      24.854  48.035  49.974  1.00  0.00    -0.184 NA
HETATM    6  C   UNL     1      23.615  48.075  49.599  1.00  0.00     0.152 C 
BRANCH   6   7
HETATM    7  C   UNL     1      23.032  49.326  49.157  1.00  0.00     0.011 A 
HETATM    8  C   UNL     1      21.636  49.645  49.100  1.00  0.00     0.004 A 
HETATM    9  C   UNL     1      21.523  50.947  48.612  1.00  0.00     0.043 A 
HETATM   10  C   UNL     1      20.454  48.946  49.431  1.00  0.00     0.014 A 
HETATM   11  C   UNL     1      20.289  51.583  48.430  1.00  0.00     0.030 A 
HETATM   12  N   UNL     1      22.800  51.405  48.383  1.00  0.00    -0.364 N 
HETATM   13  C   UNL     1      19.134  50.868  48.763  1.00  0.00     0.002 A 
HETATM   14  C   UNL     1      19.213  49.569  49.258  1.00  0.00     0.001 A 
HETATM   15  H   UNL     1      23.023  52.325  48.029  1.00  0.00     0.165 HD
HETATM   16  C   UNL     1      23.715  50.443  48.713  1.00  0.00     0.102 A 
ENDBRANCH   6   7
ENDBRANCH   2   5
BRANCH   1  17
HETATM   17  C   UNL     1      26.521  45.226  51.844  1.00  0.00     0.280 C 
BRANCH  17  18
HETATM   18  O   UNL     1      26.645  44.870  53.225  1.00  0.00    -0.342 OA
BRANCH  18  19
HETATM   19  C   UNL     1      27.822  44.182  53.402  1.00  0.00     0.075 A 
HETATM   20  C   UNL     1      28.635  44.422  54.522  1.00  0.00    -0.023 A 
HETATM   21  C   UNL     1      29.878  43.758  54.602  1.00  0.00    -0.053 A 
HETATM   22  C   UNL     1      28.210  45.405  55.580  1.00  0.00     0.052 C 
HETATM   23  C   UNL     1      30.837  44.003  55.737  1.00  0.00     0.049 C 
HETATM   24  C   UNL     1      30.227  42.818  53.617  1.00  0.00     0.007 A 
HETATM   25  C   UNL     1      29.372  42.548  52.548  1.00  0.00     0.003 A 
HETATM   26  C   UNL     1      28.167  43.230  52.441  1.00  0.00     0.037 A 
ENDBRANCH  18  19
ENDBRANCH  17  18
ENDBRANCH   1  17
TORSDOF 5
ENDMDL
MODEL 8
REMARK VINA RESULT:      -8.6      5.039      7.061
REMARK  5 active torsions:
REMARK  status: ('A' for Active; 'I' for Inactive)
REMARK    1  A    between atoms: C_5  and  O_6 
REMARK    2  A    between atoms: O_6  and  C_7 
REMARK    3  A    between atoms: C_7  and  C_8 
REMARK       I    between atoms: C_8  and  N_9 
REMARK    4  A    between atoms: N_9  and  N_10 
REMARK    5  A    between atoms: C_11  and  C_12 
ROOT
HETATM    1  C   UNL     1      26.247  44.129  53.698  1.00  0.00     0.261 C 
HETATM    2  N   UNL     1      27.042  43.286  52.930  1.00  0.00    -0.246 N 
HETATM    3  O   UNL     1      25.020  44.205  53.658  1.00  0.00    -0.269 OA
HETATM    4  H   UNL     1      28.034  43.513  52.892  1.00  0.00     0.192 HD
ENDROOT
BRANCH   2   5
HETATM    5  N   UNL     1      26.606  42.479  51.902  1.00  0.00    -0.184 NA
HETATM    6  C   UNL     1      27.448  41.655  51.366  1.00  0.00     0.152 C 
BRANCH   6   7
HETATM    7  C   UNL     1      27.011  40.750  50.320  1.00  0.00     0.011 A 
HETATM    8  C   UNL     1      27.782  39.702  49.720  1.00  0.00     0.004 A 
HETATM    9  C   UNL     1      26.979  39.088  48.759  1.00  0.00     0.043 A 
HETATM   10  C   UNL     1      29.092  39.211  49.913  1.00  0.00     0.014 A 
HETATM   11  C   UNL     1      27.420  38.014  47.977  1.00  0.00     0.030 A 
HETATM   12  N   UNL     1      25.764  39.734  48.775  1.00  0.00    -0.364 N 
HETATM   13  C   UNL     1      28.722  37.548  48.188  1.00  0.00     0.002 A 
HETATM   14  C   UNL     1      29.547  38.136  49.143  1.00  0.00     0.001 A 
HETATM   15  H   UNL     1      24.981  39.496  48.182  1.00  0.00     0.165 HD
HETATM   16  C   UNL     1      25.769  40.730  49.714  1.00  0.00     0.102 A 
ENDBRANCH   6   7
ENDBRANCH   2   5
BRANCH   1  17
HETATM   17  C   UNL     1      27.046  44.959  54.700  1.00  0.00     0.280 C 
BRANCH  17  18
HETATM   18  O   UNL     1      28.418  45.091  54.315  1.00  0.00    -0.342 OA
BRANCH  18  19
HETATM   19  C   UNL     1      29.200  45.069  55.445  1.00  0.00     0.075 A 
HETATM   20  C   UNL     1      30.231  44.126  55.590  1.00  0.00    -0.023 A 
HETATM   21  C   UNL     1      30.937  44.088  56.813  1.00  0.00    -0.053 A 
HETATM   22  C   UNL     1      30.534  43.148  54.487  1.00  0.00     0.052 C 
HETATM   23  C   UNL     1      32.015  43.069  57.074  1.00  0.00     0.049 C 
HETATM   24  C   UNL     1      30.654  45.041  57.807  1.00  0.00     0.007 A 
HETATM   25  C   UNL     1      29.671  46.010  57.613  1.00  0.00     0.003 A 
HETATM   26  C   UNL     1      28.942  46.025  56.430  1.00  0.00     0.037 A 
ENDBRANCH  18  19
ENDBRANCH  17  18
ENDBRANCH   1  17
TORSDOF 5
ENDMDL
MODEL 9
REMARK VINA RESULT:      -8.5      2.254      2.951
REMARK  5 active torsions:
REMARK  status: ('A' for Active; 'I' for Inactive)
REMARK    1  A    between atoms: C_5  and  O_6 
REMARK    2  A    between atoms: O_6  and  C_7 
REMARK    3  A    between atoms: C_7  and  C_8 
REMARK       I    between atoms: C_8  and  N_9 
REMARK    4  A    between atoms: N_9  and  N_10 
REMARK    5  A    between atoms: C_11  and  C_12 
ROOT
HETATM    1  C   UNL     1      25.405  44.863  51.491  1.00  0.00     0.261 C 
HETATM    2  N   UNL     1      25.377  45.537  50.275  1.00  0.00    -0.246 N 
HETATM    3  O   UNL     1      24.438  44.366  52.067  1.00  0.00    -0.269 OA
HETATM    4  H   UNL     1      26.196  46.101  50.054  1.00  0.00     0.192 HD
ENDROOT
BRANCH   2   5
HETATM    5  N   UNL     1      24.247  45.878  49.565  1.00  0.00    -0.184 NA
HETATM    6  C   UNL     1      23.913  47.127  49.501  1.00  0.00     0.152 C 
BRANCH   6   7
HETATM    7  C   UNL     1      22.762  47.529  48.715  1.00  0.00     0.011 A 
HETATM    8  C   UNL     1      22.167  48.833  48.678  1.00  0.00     0.004 A 
HETATM    9  C   UNL     1      21.085  48.775  47.800  1.00  0.00     0.043 A 
HETATM   10  C   UNL     1      22.457  50.064  49.307  1.00  0.00     0.014 A 
HETATM   11  C   UNL     1      20.274  49.882  47.523  1.00  0.00     0.030 A 
HETATM   12  N   UNL     1      21.025  47.487  47.318  1.00  0.00    -0.364 N 
HETATM   13  C   UNL     1      20.582  51.088  48.160  1.00  0.00     0.002 A 
HETATM   14  C   UNL     1      21.658  51.181  49.038  1.00  0.00     0.001 A 
HETATM   15  H   UNL     1      20.338  47.156  46.655  1.00  0.00     0.165 HD
HETATM   16  C   UNL     1      22.031  46.732  47.855  1.00  0.00     0.102 A 
ENDBRANCH   6   7
ENDBRANCH   2   5
BRANCH   1  17
HETATM   17  C   UNL     1      26.811  44.717  52.064  1.00  0.00     0.280 C 
BRANCH  17  18
HETATM   18  O   UNL     1      26.816  44.001  53.303  1.00  0.00    -0.342 OA
BRANCH  18  19
HETATM   19  C   UNL     1      27.787  44.530  54.118  1.00  0.00     0.075 A 
HETATM   20  C   UNL     1      28.903  43.767  54.500  1.00  0.00    -0.023 A 
HETATM   21  C   UNL     1      29.817  44.329  55.417  1.00  0.00    -0.053 A 
HETATM   22  C   UNL     1      29.083  42.365  53.984  1.00  0.00     0.052 C 
HETATM   23  C   UNL     1      31.006  43.557  55.926  1.00  0.00     0.049 C 
HETATM   24  C   UNL     1      29.639  45.655  55.850  1.00  0.00     0.007 A 
HETATM   25  C   UNL     1      28.559  46.416  55.404  1.00  0.00     0.003 A 
HETATM   26  C   UNL     1      27.631  45.854  54.536  1.00  0.00     0.037 A 
ENDBRANCH  18  19
ENDBRANCH  17  18
ENDBRANCH   1  17
TORSDOF 5
ENDMDL
MODEL 10
REMARK VINA RESULT:      -8.5      2.206      3.404
REMARK  5 active torsions:
REMARK  status: ('A' for Active; 'I' for Inactive)
REMARK    1  A    between atoms: C_5  and  O_6 
REMARK    2  A    between atoms: O_6  and  C_7 
REMARK    3  A    between atoms: C_7  and  C_8 
REMARK       I    between atoms: C_8  and  N_9 
REMARK    4  A    between atoms: N_9  and  N_10 
REMARK    5  A    between atoms: C_11  and  C_12 
ROOT
HETATM    1  C   UNL     1      25.313  45.296  51.633  1.00  0.00     0.261 C 
HETATM    2  N   UNL     1      25.295  46.347  50.723  1.00  0.00    -0.246 N 
HETATM    3  O   UNL     1      24.329  44.731  52.108  1.00  0.00    -0.269 OA
HETATM    4  H   UNL     1      26.165  46.868  50.619  1.00  0.00     0.192 HD
ENDROOT
BRANCH   2   5
HETATM    5  N   UNL     1      24.176  47.024  50.292  1.00  0.00    -0.184 NA
HETATM    6  C   UNL     1      23.634  46.670  49.171  1.00  0.00     0.152 C 
BRANCH   6   7
HETATM    7  C   UNL     1      22.422  47.321  48.714  1.00  0.00     0.011 A 
HETATM    8  C   UNL     1      22.176  48.733  48.671  1.00  0.00     0.004 A 
HETATM    9  C   UNL     1      20.887  48.919  48.171  1.00  0.00     0.043 A 
HETATM   10  C   UNL     1      22.938  49.874  49.004  1.00  0.00     0.014 A 
HETATM   11  C   UNL     1      20.318  50.186  47.994  1.00  0.00     0.030 A 
HETATM   12  N   UNL     1      20.369  47.669  47.916  1.00  0.00    -0.364 N 
HETATM   13  C   UNL     1      21.094  51.299  48.333  1.00  0.00     0.002 A 
HETATM   14  C   UNL     1      22.386  51.148  48.829  1.00  0.00     0.001 A 
HETATM   15  H   UNL     1      19.446  47.498  47.541  1.00  0.00     0.165 HD
HETATM   16  C   UNL     1      21.285  46.703  48.231  1.00  0.00     0.102 A 
ENDBRANCH   6   7
ENDBRANCH   2   5
BRANCH   1  17
HETATM   17  C   UNL     1      26.723  44.820  51.972  1.00  0.00     0.280 C 
BRANCH  17  18
HETATM   18  O   UNL     1      27.071  45.096  53.332  1.00  0.00    -0.342 OA
BRANCH  18  19
HETATM   19  C   UNL     1      28.189  44.368  53.661  1.00  0.00     0.075 A 
HETATM   20  C   UNL     1      28.897  44.629  54.846  1.00  0.00    -0.023 A 
HETATM   21  C   UNL     1      30.092  43.917  55.084  1.00  0.00    -0.053 A 
HETATM   22  C   UNL     1      28.416  45.682  55.808  1.00  0.00     0.052 C 
HETATM   23  C   UNL     1      30.943  44.178  56.298  1.00  0.00     0.049 C 
HETATM   24  C   UNL     1      30.492  42.913  54.184  1.00  0.00     0.007 A 
HETATM   25  C   UNL     1      29.737  42.626  53.048  1.00  0.00     0.003 A 
HETATM   26  C   UNL     1      28.582  43.354  52.785  1.00  0.00     0.037 A 
ENDBRANCH  18  19
ENDBRANCH  17  18
ENDBRANCH   1  17
TORSDOF 5
ENDMDL
