MODEL 1
REMARK VINA RESULT:      -9.1      0.000      0.000
REMARK  10 active torsions:
REMARK  status: ('A' for Active; 'I' for Inactive)
REMARK    1  A    between atoms: C_4  and  N_5 
REMARK    2  A    between atoms: N_5  and  C_6 
REMARK    3  A    between atoms: C_6  and  N_7 
REMARK    4  A    between atoms: N_7  and  N_8 
REMARK       I    between atoms: N_8  and  C_9 
REMARK    5  A    between atoms: C_9  and  C_10 
REMARK    6  A    between atoms: C_10  and  O_11 
REMARK    7  A    between atoms: O_11  and  C_12 
REMARK    8  A    between atoms: C_22  and  C_23 
REMARK    9  A    between atoms: C_23  and  O_24 
REMARK   10  A    between atoms: C_27  and  C_28 
ROOT
HETATM    1  N   UNL     1      22.923  45.465  48.157  1.00  0.00    -0.228 NA
HETATM    2  H   UNL     1      23.666  45.842  47.575  1.00  0.00     0.136 HD
ENDROOT
BRANCH   1   3
HETATM    3  C   UNL     1      21.933  46.405  48.408  1.00  0.00     0.073 C 
HETATM    4  S   UNL     1      20.412  45.663  48.585  1.00  0.00    -0.081 SA
HETATM    5  C   UNL     1      19.606  47.168  48.615  1.00  0.00    -0.007 C 
HETATM    6  C   UNL     1      18.110  47.190  48.625  1.00  0.00     0.057 C 
HETATM    7  C   UNL     1      20.508  48.223  48.638  1.00  0.00     0.005 C 
HETATM    8  C   UNL     1      21.894  47.771  48.622  1.00  0.00     0.080 C 
BRANCH   7   9
HETATM    9  C   UNL     1      20.036  49.605  48.617  1.00  0.00    -0.024 A 
HETATM   10  C   UNL     1      19.993  50.335  49.813  1.00  0.00     0.012 A 
HETATM   11  C   UNL     1      19.553  51.659  49.811  1.00  0.00     0.001 A 
HETATM   12  C   UNL     1      19.160  52.261  48.617  1.00  0.00     0.000 A 
HETATM   13  C   UNL     1      19.200  51.539  47.424  1.00  0.00     0.001 A 
HETATM   14  C   UNL     1      19.633  50.212  47.422  1.00  0.00     0.012 A 
ENDBRANCH   7   9
BRANCH   8  15
HETATM   15  C   UNL     1      23.076  48.609  48.825  1.00  0.00     0.296 C 
HETATM   16  O   UNL     1      23.687  48.676  49.886  1.00  0.00    -0.259 OA
BRANCH  15  17
HETATM   17  O   UNL     1      23.403  49.348  47.726  1.00  0.00    -0.322 OA
HETATM   18  C   UNL     1      23.531  50.749  47.969  1.00  0.00     0.213 C 
ENDBRANCH  15  17
ENDBRANCH   8  15
ENDBRANCH   1   3
BRANCH   1  19
HETATM   19  C   UNL     1      23.494  44.735  49.178  1.00  0.00     0.170 C 
HETATM   20  S   UNL     1      23.849  43.122  48.860  1.00  0.00    -0.045 SA
BRANCH  19  21
HETATM   21  N   UNL     1      23.799  45.392  50.343  1.00  0.00    -0.278 N 
HETATM   22  H   UNL     1      23.087  45.315  51.080  1.00  0.00     0.189 HD
BRANCH  21  23
HETATM   23  N   UNL     1      25.118  45.396  50.832  1.00  0.00    -0.266 N 
HETATM   24  C   UNL     1      25.454  44.570  51.887  1.00  0.00     0.260 C 
HETATM   25  O   UNL     1      24.634  43.956  52.568  1.00  0.00    -0.269 OA
HETATM   26  H   UNL     1      25.849  45.708  50.193  1.00  0.00     0.190 HD
BRANCH  24  27
HETATM   27  C   UNL     1      26.958  44.467  52.139  1.00  0.00     0.280 C 
BRANCH  27  28
HETATM   28  O   UNL     1      27.343  45.264  53.255  1.00  0.00    -0.340 OA
BRANCH  28  29
HETATM   29  C   UNL     1      28.335  44.783  54.066  1.00  0.00     0.091 A 
HETATM   30  C   UNL     1      28.775  45.630  55.100  1.00  0.00     0.068 A 
HETATM   31 CL   UNL     1      28.069  47.193  55.334  1.00  0.00    -0.081 Cl
HETATM   32  C   UNL     1      29.788  45.231  55.974  1.00  0.00     0.046 A 
HETATM   33  C   UNL     1      30.374  43.980  55.813  1.00  0.00     0.012 A 
HETATM   34 BR   UNL     1      31.746  43.426  56.989  1.00  0.00    -0.051 Br
HETATM   35  C   UNL     1      29.959  43.132  54.788  1.00  0.00     0.022 A 
HETATM   36  C   UNL     1      28.942  43.533  53.914  1.00  0.00     0.040 A 
ENDBRANCH  28  29
ENDBRANCH  27  28
ENDBRANCH  24  27
ENDBRANCH  21  23
ENDBRANCH  19  21
ENDBRANCH   1  19
TORSDOF 10
ENDMDL
MODEL 2
REMARK VINA RESULT:      -8.9      1.214      1.699
REMARK  10 active torsions:
REMARK  status: ('A' for Active; 'I' for Inactive)
REMARK    1  A    between atoms: C_4  and  N_5 
REMARK    2  A    between atoms: N_5  and  C_6 
REMARK    3  A    between atoms: C_6  and  N_7 
REMARK    4  A    between atoms: N_7  and  N_8 
REMARK       I    between atoms: N_8  and  C_9 
REMARK    5  A    between atoms: C_9  and  C_10 
REMARK    6  A    between atoms: C_10  and  O_11 
REMARK    7  A    between atoms: O_11  and  C_12 
REMARK    8  A    between atoms: C_22  and  C_23 
REMARK    9  A    between atoms: C_23  and  O_24 
REMARK   10  A    between atoms: C_27  and  C_28 
ROOT
HETATM    1  N   UNL     1      22.700  45.488  47.968  1.00  0.00    -0.228 NA
HETATM    2  H   UNL     1      23.372  45.841  47.291  1.00  0.00     0.136 HD
ENDROOT
BRANCH   1   3
HETATM    3  C   UNL     1      21.741  46.439  48.290  1.00  0.00     0.073 C 
HETATM    4  S   UNL     1      20.212  45.722  48.501  1.00  0.00    -0.081 SA
HETATM    5  C   UNL     1      19.441  47.241  48.615  1.00  0.00    -0.007 C 
HETATM    6  C   UNL     1      17.947  47.293  48.684  1.00  0.00     0.057 C 
HETATM    7  C   UNL     1      20.365  48.276  48.639  1.00  0.00     0.005 C 
HETATM    8  C   UNL     1      21.740  47.797  48.552  1.00  0.00     0.080 C 
BRANCH   7   9
HETATM    9  C   UNL     1      19.923  49.667  48.683  1.00  0.00    -0.024 A 
HETATM   10  C   UNL     1      19.627  50.332  47.485  1.00  0.00     0.012 A 
HETATM   11  C   UNL     1      19.195  51.659  47.508  1.00  0.00     0.001 A 
HETATM   12  C   UNL     1      19.052  52.325  48.724  1.00  0.00     0.000 A 
HETATM   13  C   UNL     1      19.346  51.668  49.919  1.00  0.00     0.001 A 
HETATM   14  C   UNL     1      19.786  50.343  49.900  1.00  0.00     0.012 A 
ENDBRANCH   7   9
BRANCH   8  15
HETATM   15  C   UNL     1      22.947  48.603  48.737  1.00  0.00     0.296 C 
HETATM   16  O   UNL     1      23.616  48.598  49.763  1.00  0.00    -0.259 OA
BRANCH  15  17
HETATM   17  O   UNL     1      23.226  49.402  47.666  1.00  0.00    -0.322 OA
HETATM   18  C   UNL     1      23.428  50.777  47.987  1.00  0.00     0.213 C 
ENDBRANCH  15  17
ENDBRANCH   8  15
ENDBRANCH   1   3
BRANCH   1  19
HETATM   19  C   UNL     1      23.385  44.800  48.947  1.00  0.00     0.170 C 
HETATM   20  S   UNL     1      24.048  43.315  48.518  1.00  0.00    -0.045 SA
BRANCH  19  21
HETATM   21  N   UNL     1      23.540  45.408  50.168  1.00  0.00    -0.278 N 
HETATM   22  H   UNL     1      22.832  45.155  50.868  1.00  0.00     0.189 HD
BRANCH  21  23
HETATM   23  N   UNL     1      24.826  45.596  50.708  1.00  0.00    -0.266 N 
HETATM   24  C   UNL     1      25.234  44.820  51.776  1.00  0.00     0.260 C 
HETATM   25  O   UNL     1      24.484  44.091  52.423  1.00  0.00    -0.269 OA
HETATM   26  H   UNL     1      25.529  46.014  50.099  1.00  0.00     0.190 HD
BRANCH  24  27
HETATM   27  C   UNL     1      26.726  44.931  52.086  1.00  0.00     0.280 C 
BRANCH  27  28
HETATM   28  O   UNL     1      27.216  43.724  52.665  1.00  0.00    -0.340 OA
BRANCH  28  29
HETATM   29  C   UNL     1      28.174  43.831  53.638  1.00  0.00     0.091 A 
HETATM   30  C   UNL     1      29.033  42.729  53.804  1.00  0.00     0.068 A 
HETATM   31 CL   UNL     1      28.886  41.324  52.805  1.00  0.00    -0.081 Cl
HETATM   32  C   UNL     1      30.036  42.741  54.774  1.00  0.00     0.046 A 
HETATM   33  C   UNL     1      30.182  43.857  55.592  1.00  0.00     0.012 A 
HETATM   34 BR   UNL     1      31.537  43.887  56.910  1.00  0.00    -0.051 Br
HETATM   35  C   UNL     1      29.334  44.953  55.449  1.00  0.00     0.022 A 
HETATM   36  C   UNL     1      28.329  44.940  54.475  1.00  0.00     0.040 A 
ENDBRANCH  28  29
ENDBRANCH  27  28
ENDBRANCH  24  27
ENDBRANCH  21  23
ENDBRANCH  19  21
ENDBRANCH   1  19
TORSDOF 10
ENDMDL
MODEL 3
REMARK VINA RESULT:      -8.6      4.170     10.248
REMARK  10 active torsions:
REMARK  status: ('A' for Active; 'I' for Inactive)
REMARK    1  A    between atoms: C_4  and  N_5 
REMARK    2  A    between atoms: N_5  and  C_6 
REMARK    3  A    between atoms: C_6  and  N_7 
REMARK    4  A    between atoms: N_7  and  N_8 
REMARK       I    between atoms: N_8  and  C_9 
REMARK    5  A    between atoms: C_9  and  C_10 
REMARK    6  A    between atoms: C_10  and  O_11 
REMARK    7  A    between atoms: O_11  and  C_12 
REMARK    8  A    between atoms: C_22  and  C_23 
REMARK    9  A    between atoms: C_23  and  O_24 
REMARK   10  A    between atoms: C_27  and  C_28 
ROOT
HETATM    1  N   UNL     1      23.415  44.497  50.993  1.00  0.00    -0.228 NA
HETATM    2  H   UNL     1      23.006  44.960  51.800  1.00  0.00     0.136 HD
ENDROOT
BRANCH   1   3
HETATM    3  C   UNL     1      24.675  43.985  51.272  1.00  0.00     0.073 C 
HETATM    4  S   UNL     1      24.935  42.514  50.457  1.00  0.00    -0.081 SA
HETATM    5  C   UNL     1      26.398  42.232  51.290  1.00  0.00    -0.007 C 
HETATM    6  C   UNL     1      27.105  40.929  51.095  1.00  0.00     0.057 C 
HETATM    7  C   UNL     1      26.751  43.324  52.072  1.00  0.00     0.005 C 
HETATM    8  C   UNL     1      25.784  44.411  51.982  1.00  0.00     0.080 C 
BRANCH   7   9
HETATM    9  C   UNL     1      27.946  43.282  52.911  1.00  0.00    -0.024 A 
HETATM   10  C   UNL     1      29.187  42.993  52.326  1.00  0.00     0.012 A 
HETATM   11  C   UNL     1      30.341  42.956  53.110  1.00  0.00     0.001 A 
HETATM   12  C   UNL     1      30.262  43.212  54.477  1.00  0.00     0.000 A 
HETATM   13  C   UNL     1      29.030  43.499  55.065  1.00  0.00     0.001 A 
HETATM   14  C   UNL     1      27.872  43.530  54.286  1.00  0.00     0.012 A 
ENDBRANCH   7   9
BRANCH   8  15
HETATM   15  C   UNL     1      25.947  45.759  52.526  1.00  0.00     0.296 C 
HETATM   16  O   UNL     1      26.345  46.713  51.868  1.00  0.00    -0.259 OA
BRANCH  15  17
HETATM   17  O   UNL     1      25.660  45.836  53.858  1.00  0.00    -0.322 OA
HETATM   18  C   UNL     1      26.144  47.014  54.502  1.00  0.00     0.213 C 
ENDBRANCH  15  17
ENDBRANCH   8  15
ENDBRANCH   1   3
BRANCH   1  19
HETATM   19  C   UNL     1      23.189  45.278  49.880  1.00  0.00     0.170 C 
HETATM   20  S   UNL     1      22.164  44.656  48.701  1.00  0.00    -0.045 SA
BRANCH  19  21
HETATM   21  N   UNL     1      23.753  46.530  49.850  1.00  0.00    -0.278 N 
HETATM   22  H   UNL     1      24.678  46.575  49.405  1.00  0.00     0.189 HD
BRANCH  21  23
HETATM   23  N   UNL     1      22.954  47.662  49.608  1.00  0.00    -0.266 N 
HETATM   24  C   UNL     1      23.557  48.862  49.283  1.00  0.00     0.260 C 
HETATM   25  O   UNL     1      24.766  49.070  49.371  1.00  0.00    -0.269 OA
HETATM   26  H   UNL     1      21.989  47.497  49.322  1.00  0.00     0.190 HD
BRANCH  24  27
HETATM   27  C   UNL     1      22.584  49.928  48.782  1.00  0.00     0.280 C 
BRANCH  27  28
HETATM   28  O   UNL     1      21.260  49.407  48.693  1.00  0.00    -0.340 OA
BRANCH  28  29
HETATM   29  C   UNL     1      20.222  50.269  48.927  1.00  0.00     0.091 A 
HETATM   30  C   UNL     1      19.127  49.759  49.648  1.00  0.00     0.068 A 
HETATM   31 CL   UNL     1      19.118  48.126  50.222  1.00  0.00    -0.081 Cl
HETATM   32  C   UNL     1      18.018  50.559  49.930  1.00  0.00     0.046 A 
HETATM   33  C   UNL     1      17.996  51.876  49.485  1.00  0.00     0.012 A 
HETATM   34 BR   UNL     1      16.501  52.971  49.860  1.00  0.00    -0.051 Br
HETATM   35  C   UNL     1      19.067  52.395  48.760  1.00  0.00     0.022 A 
HETATM   36  C   UNL     1      20.178  51.592  48.479  1.00  0.00     0.040 A 
ENDBRANCH  28  29
ENDBRANCH  27  28
ENDBRANCH  24  27
ENDBRANCH  21  23
ENDBRANCH  19  21
ENDBRANCH   1  19
TORSDOF 10
ENDMDL
MODEL 4
REMARK VINA RESULT:      -8.5      4.395     10.000
REMARK  10 active torsions:
REMARK  status: ('A' for Active; 'I' for Inactive)
REMARK    1  A    between atoms: C_4  and  N_5 
REMARK    2  A    between atoms: N_5  and  C_6 
REMARK    3  A    between atoms: C_6  and  N_7 
REMARK    4  A    between atoms: N_7  and  N_8 
REMARK       I    between atoms: N_8  and  C_9 
REMARK    5  A    between atoms: C_9  and  C_10 
REMARK    6  A    between atoms: C_10  and  O_11 
REMARK    7  A    between atoms: O_11  and  C_12 
REMARK    8  A    between atoms: C_22  and  C_23 
REMARK    9  A    between atoms: C_23  and  O_24 
REMARK   10  A    between atoms: C_27  and  C_28 
ROOT
HETATM    1  N   UNL     1      24.441  44.505  48.378  1.00  0.00    -0.228 NA
HETATM    2  H   UNL     1      24.100  43.842  47.686  1.00  0.00     0.136 HD
ENDROOT
BRANCH   1   3
HETATM    3  C   UNL     1      25.355  43.924  49.246  1.00  0.00     0.073 C 
HETATM    4  S   UNL     1      25.330  42.226  49.118  1.00  0.00    -0.081 SA
HETATM    5  C   UNL     1      26.362  42.042  50.466  1.00  0.00    -0.007 C 
HETATM    6  C   UNL     1      26.640  40.666  50.984  1.00  0.00     0.057 C 
HETATM    7  C   UNL     1      26.833  43.269  50.911  1.00  0.00     0.005 C 
HETATM    8  C   UNL     1      26.321  44.383  50.123  1.00  0.00     0.080 C 
BRANCH   7   9
HETATM    9  C   UNL     1      27.695  43.351  52.088  1.00  0.00    -0.024 A 
HETATM   10  C   UNL     1      29.046  42.994  51.976  1.00  0.00     0.012 A 
HETATM   11  C   UNL     1      29.887  43.074  53.087  1.00  0.00     0.001 A 
HETATM   12  C   UNL     1      29.386  43.515  54.310  1.00  0.00     0.000 A 
HETATM   13  C   UNL     1      28.042  43.870  54.428  1.00  0.00     0.001 A 
HETATM   14  C   UNL     1      27.196  43.786  53.320  1.00  0.00     0.012 A 
ENDBRANCH   7   9
BRANCH   8  15
HETATM   15  C   UNL     1      26.763  45.775  50.208  1.00  0.00     0.296 C 
HETATM   16  O   UNL     1      26.380  46.557  51.070  1.00  0.00    -0.259 OA
BRANCH  15  17
HETATM   17  O   UNL     1      27.608  46.131  49.197  1.00  0.00    -0.322 OA
HETATM   18  C   UNL     1      27.845  47.534  49.087  1.00  0.00     0.213 C 
ENDBRANCH  15  17
ENDBRANCH   8  15
ENDBRANCH   1   3
BRANCH   1  19
HETATM   19  C   UNL     1      23.370  45.235  48.847  1.00  0.00     0.170 C 
HETATM   20  S   UNL     1      21.833  44.643  48.513  1.00  0.00    -0.045 SA
BRANCH  19  21
HETATM   21  N   UNL     1      23.637  46.344  49.611  1.00  0.00    -0.278 N 
HETATM   22  H   UNL     1      24.632  46.586  49.686  1.00  0.00     0.189 HD
BRANCH  21  23
HETATM   23  N   UNL     1      22.786  47.463  49.559  1.00  0.00    -0.266 N 
HETATM   24  C   UNL     1      23.328  48.721  49.380  1.00  0.00     0.260 C 
HETATM   25  O   UNL     1      24.531  48.968  49.450  1.00  0.00    -0.269 OA
HETATM   26  H   UNL     1      21.816  47.297  49.290  1.00  0.00     0.190 HD
BRANCH  24  27
HETATM   27  C   UNL     1      22.294  49.803  49.069  1.00  0.00     0.280 C 
BRANCH  27  28
HETATM   28  O   UNL     1      20.984  49.371  49.426  1.00  0.00    -0.340 OA
BRANCH  28  29
HETATM   29  C   UNL     1      19.981  50.302  49.402  1.00  0.00     0.091 A 
HETATM   30  C   UNL     1      18.776  49.952  50.038  1.00  0.00     0.068 A 
HETATM   31 CL   UNL     1      18.595  48.422  50.827  1.00  0.00    -0.081 Cl
HETATM   32  C   UNL     1      17.693  50.833  50.060  1.00  0.00     0.046 A 
HETATM   33  C   UNL     1      17.808  52.071  49.437  1.00  0.00     0.012 A 
HETATM   34 BR   UNL     1      16.350  53.273  49.460  1.00  0.00    -0.051 Br
HETATM   35  C   UNL     1      18.989  52.431  48.793  1.00  0.00     0.022 A 
HETATM   36  C   UNL     1      20.074  51.547  48.773  1.00  0.00     0.040 A 
ENDBRANCH  28  29
ENDBRANCH  27  28
ENDBRANCH  24  27
ENDBRANCH  21  23
ENDBRANCH  19  21
ENDBRANCH   1  19
TORSDOF 10
ENDMDL
MODEL 5
REMARK VINA RESULT:      -8.2      4.142     10.171
REMARK  10 active torsions:
REMARK  status: ('A' for Active; 'I' for Inactive)
REMARK    1  A    between atoms: C_4  and  N_5 
REMARK    2  A    between atoms: N_5  and  C_6 
REMARK    3  A    between atoms: C_6  and  N_7 
REMARK    4  A    between atoms: N_7  and  N_8 
REMARK       I    between atoms: N_8  and  C_9 
REMARK    5  A    between atoms: C_9  and  C_10 
REMARK    6  A    between atoms: C_10  and  O_11 
REMARK    7  A    between atoms: O_11  and  C_12 
REMARK    8  A    between atoms: C_22  and  C_23 
REMARK    9  A    between atoms: C_23  and  O_24 
REMARK   10  A    between atoms: C_27  and  C_28 
ROOT
HETATM    1  N   UNL     1      25.070  42.856  51.597  1.00  0.00    -0.228 NA
HETATM    2  H   UNL     1      24.341  42.658  52.277  1.00  0.00     0.136 HD
ENDROOT
BRANCH   1   3
HETATM    3  C   UNL     1      26.251  43.258  52.206  1.00  0.00     0.073 C 
HETATM    4  S   UNL     1      27.600  42.510  51.485  1.00  0.00    -0.081 SA
HETATM    5  C   UNL     1      28.658  43.109  52.683  1.00  0.00    -0.007 C 
HETATM    6  C   UNL     1      30.085  42.661  52.681  1.00  0.00     0.057 C 
HETATM    7  C   UNL     1      28.007  43.990  53.536  1.00  0.00     0.005 C 
HETATM    8  C   UNL     1      26.601  44.163  53.192  1.00  0.00     0.080 C 
BRANCH   7   9
HETATM    9  C   UNL     1      28.712  44.587  54.668  1.00  0.00    -0.024 A 
HETATM   10  C   UNL     1      28.292  45.830  55.161  1.00  0.00     0.012 A 
HETATM   11  C   UNL     1      28.948  46.412  56.246  1.00  0.00     0.001 A 
HETATM   12  C   UNL     1      30.020  45.754  56.847  1.00  0.00     0.000 A 
HETATM   13  C   UNL     1      30.443  44.517  56.360  1.00  0.00     0.001 A 
HETATM   14  C   UNL     1      29.794  43.935  55.270  1.00  0.00     0.012 A 
ENDBRANCH   7   9
BRANCH   8  15
HETATM   15  C   UNL     1      25.687  45.151  53.766  1.00  0.00     0.296 C 
HETATM   16  O   UNL     1      25.076  44.982  54.815  1.00  0.00    -0.259 OA
BRANCH  15  17
HETATM   17  O   UNL     1      25.545  46.263  52.988  1.00  0.00    -0.322 OA
HETATM   18  C   UNL     1      25.772  47.497  53.668  1.00  0.00     0.213 C 
ENDBRANCH  15  17
ENDBRANCH   8  15
ENDBRANCH   1   3
BRANCH   1  19
HETATM   19  C   UNL     1      24.517  43.575  50.560  1.00  0.00     0.170 C 
HETATM   20  S   UNL     1      24.720  42.961  49.008  1.00  0.00    -0.045 SA
BRANCH  19  21
HETATM   21  N   UNL     1      23.781  44.691  50.874  1.00  0.00    -0.278 N 
HETATM   22  H   UNL     1      23.483  44.748  51.855  1.00  0.00     0.189 HD
BRANCH  21  23
HETATM   23  N   UNL     1      24.107  45.938  50.310  1.00  0.00    -0.266 N 
HETATM   24  C   UNL     1      23.338  46.438  49.277  1.00  0.00     0.260 C 
HETATM   25  O   UNL     1      22.486  45.786  48.675  1.00  0.00    -0.269 OA
HETATM   26  H   UNL     1      24.642  46.584  50.889  1.00  0.00     0.190 HD
BRANCH  24  27
HETATM   27  C   UNL     1      23.625  47.901  48.944  1.00  0.00     0.280 C 
BRANCH  27  28
HETATM   28  O   UNL     1      22.877  48.320  47.806  1.00  0.00    -0.340 OA
BRANCH  28  29
HETATM   29  C   UNL     1      21.926  49.288  47.993  1.00  0.00     0.091 A 
HETATM   30  C   UNL     1      20.623  48.989  47.554  1.00  0.00     0.068 A 
HETATM   31 CL   UNL     1      20.253  47.459  46.835  1.00  0.00    -0.081 Cl
HETATM   32  C   UNL     1      19.588  49.914  47.695  1.00  0.00     0.046 A 
HETATM   33  C   UNL     1      19.853  51.152  48.271  1.00  0.00     0.012 A 
HETATM   34 BR   UNL     1      18.461  52.415  48.468  1.00  0.00    -0.051 Br
HETATM   35  C   UNL     1      21.140  51.470  48.702  1.00  0.00     0.022 A 
HETATM   36  C   UNL     1      22.176  50.540  48.561  1.00  0.00     0.040 A 
ENDBRANCH  28  29
ENDBRANCH  27  28
ENDBRANCH  24  27
ENDBRANCH  21  23
ENDBRANCH  19  21
ENDBRANCH   1  19
TORSDOF 10
ENDMDL
MODEL 6
REMARK VINA RESULT:      -8.2      2.135      3.154
REMARK  10 active torsions:
REMARK  status: ('A' for Active; 'I' for Inactive)
REMARK    1  A    between atoms: C_4  and  N_5 
REMARK    2  A    between atoms: N_5  and  C_6 
REMARK    3  A    between atoms: C_6  and  N_7 
REMARK    4  A    between atoms: N_7  and  N_8 
REMARK       I    between atoms: N_8  and  C_9 
REMARK    5  A    between atoms: C_9  and  C_10 
REMARK    6  A    between atoms: C_10  and  O_11 
REMARK    7  A    between atoms: O_11  and  C_12 
REMARK    8  A    between atoms: C_22  and  C_23 
REMARK    9  A    between atoms: C_23  and  O_24 
REMARK   10  A    between atoms: C_27  and  C_28 
ROOT
HETATM    1  N   UNL     1      22.339  45.958  49.197  1.00  0.00    -0.228 NA
HETATM    2  H   UNL     1      21.561  45.424  49.574  1.00  0.00     0.136 HD
ENDROOT
BRANCH   1   3
HETATM    3  C   UNL     1      21.985  47.274  48.933  1.00  0.00     0.073 C 
HETATM    4  S   UNL     1      23.363  48.241  48.676  1.00  0.00    -0.081 SA
HETATM    5  C   UNL     1      22.437  49.674  48.655  1.00  0.00    -0.007 C 
HETATM    6  C   UNL     1      23.140  50.992  48.588  1.00  0.00     0.057 C 
HETATM    7  C   UNL     1      21.077  49.396  48.697  1.00  0.00     0.005 C 
HETATM    8  C   UNL     1      20.801  47.966  48.755  1.00  0.00     0.080 C 
BRANCH   7   9
HETATM    9  C   UNL     1      20.098  50.480  48.737  1.00  0.00    -0.024 A 
HETATM   10  C   UNL     1      19.607  51.008  47.535  1.00  0.00     0.012 A 
HETATM   11  C   UNL     1      18.665  52.038  47.554  1.00  0.00     0.001 A 
HETATM   12  C   UNL     1      18.207  52.540  48.770  1.00  0.00     0.000 A 
HETATM   13  C   UNL     1      18.692  52.020  49.969  1.00  0.00     0.001 A 
HETATM   14  C   UNL     1      19.640  50.994  49.955  1.00  0.00     0.012 A 
ENDBRANCH   7   9
BRANCH   8  15
HETATM   15  C   UNL     1      19.488  47.335  48.621  1.00  0.00     0.296 C 
HETATM   16  O   UNL     1      18.442  47.962  48.503  1.00  0.00    -0.259 OA
BRANCH  15  17
HETATM   17  O   UNL     1      19.541  45.973  48.693  1.00  0.00    -0.322 OA
HETATM   18  C   UNL     1      18.654  45.297  47.801  1.00  0.00     0.213 C 
ENDBRANCH  15  17
ENDBRANCH   8  15
ENDBRANCH   1   3
BRANCH   1  19
HETATM   19  C   UNL     1      22.983  45.185  48.254  1.00  0.00     0.170 C 
HETATM   20  S   UNL     1      22.328  45.162  46.706  1.00  0.00    -0.045 SA
BRANCH  19  21
HETATM   21  N   UNL     1      24.145  44.556  48.625  1.00  0.00    -0.278 N 
HETATM   22  H   UNL     1      24.730  44.235  47.844  1.00  0.00     0.189 HD
BRANCH  21  23
HETATM   23  N   UNL     1      24.883  45.023  49.728  1.00  0.00    -0.266 N 
HETATM   24  C   UNL     1      24.877  44.300  50.906  1.00  0.00     0.260 C 
HETATM   25  O   UNL     1      24.115  43.361  51.131  1.00  0.00    -0.269 OA
HETATM   26  H   UNL     1      25.666  45.647  49.533  1.00  0.00     0.190 HD
BRANCH  24  27
HETATM   27  C   UNL     1      25.921  44.761  51.921  1.00  0.00     0.280 C 
BRANCH  27  28
HETATM   28  O   UNL     1      26.177  43.744  52.885  1.00  0.00    -0.340 OA
BRANCH  28  29
HETATM   29  C   UNL     1      27.310  43.860  53.646  1.00  0.00     0.091 A 
HETATM   30  C   UNL     1      28.162  42.741  53.689  1.00  0.00     0.068 A 
HETATM   31 CL   UNL     1      27.791  41.303  52.801  1.00  0.00    -0.081 Cl
HETATM   32  C   UNL     1      29.336  42.762  54.443  1.00  0.00     0.046 A 
HETATM   33  C   UNL     1      29.663  43.904  55.166  1.00  0.00     0.012 A 
HETATM   34 BR   UNL     1      31.250  43.947  56.191  1.00  0.00    -0.051 Br
HETATM   35  C   UNL     1      28.826  45.019  55.144  1.00  0.00     0.022 A 
HETATM   36  C   UNL     1      27.649  44.996  54.386  1.00  0.00     0.040 A 
ENDBRANCH  28  29
ENDBRANCH  27  28
ENDBRANCH  24  27
ENDBRANCH  21  23
ENDBRANCH  19  21
ENDBRANCH   1  19
TORSDOF 10
ENDMDL
MODEL 7
REMARK VINA RESULT:      -8.0      2.520      3.312
REMARK  10 active torsions:
REMARK  status: ('A' for Active; 'I' for Inactive)
REMARK    1  A    between atoms: C_4  and  N_5 
REMARK    2  A    between atoms: N_5  and  C_6 
REMARK    3  A    between atoms: C_6  and  N_7 
REMARK    4  A    between atoms: N_7  and  N_8 
REMARK       I    between atoms: N_8  and  C_9 
REMARK    5  A    between atoms: C_9  and  C_10 
REMARK    6  A    between atoms: C_10  and  O_11 
REMARK    7  A    between atoms: O_11  and  C_12 
REMARK    8  A    between atoms: C_22  and  C_23 
REMARK    9  A    between atoms: C_23  and  O_24 
REMARK   10  A    between atoms: C_27  and  C_28 
ROOT
HETATM    1  N   UNL     1      22.861  48.870  49.985  1.00  0.00    -0.228 NA
HETATM    2  H   UNL     1      22.588  48.227  50.723  1.00  0.00     0.136 HD
ENDROOT
BRANCH   1   3
HETATM    3  C   UNL     1      21.766  49.330  49.267  1.00  0.00     0.073 C 
HETATM    4  S   UNL     1      21.670  51.029  49.315  1.00  0.00    -0.081 SA
HETATM    5  C   UNL     1      20.139  51.032  48.561  1.00  0.00    -0.007 C 
HETATM    6  C   UNL     1      19.399  52.325  48.424  1.00  0.00     0.057 C 
HETATM    7  C   UNL     1      19.778  49.757  48.147  1.00  0.00     0.005 C 
HETATM    8  C   UNL     1      20.791  48.759  48.470  1.00  0.00     0.080 C 
BRANCH   7   9
HETATM    9  C   UNL     1      18.481  49.518  47.519  1.00  0.00    -0.024 A 
HETATM   10  C   UNL     1      17.374  49.215  48.324  1.00  0.00     0.012 A 
HETATM   11  C   UNL     1      16.125  48.992  47.743  1.00  0.00     0.001 A 
HETATM   12  C   UNL     1      15.975  49.074  46.360  1.00  0.00     0.000 A 
HETATM   13  C   UNL     1      17.073  49.374  45.554  1.00  0.00     0.001 A 
HETATM   14  C   UNL     1      18.326  49.591  46.130  1.00  0.00     0.012 A 
ENDBRANCH   7   9
BRANCH   8  15
HETATM   15  C   UNL     1      20.809  47.369  48.013  1.00  0.00     0.296 C 
HETATM   16  O   UNL     1      20.196  46.464  48.568  1.00  0.00    -0.259 OA
BRANCH  15  17
HETATM   17  O   UNL     1      21.619  47.172  46.933  1.00  0.00    -0.322 OA
HETATM   18  C   UNL     1      22.012  45.816  46.725  1.00  0.00     0.213 C 
ENDBRANCH  15  17
ENDBRANCH   8  15
ENDBRANCH   1   3
BRANCH   1  19
HETATM   19  C   UNL     1      23.973  48.359  49.349  1.00  0.00     0.170 C 
HETATM   20  S   UNL     1      25.025  49.462  48.640  1.00  0.00    -0.045 SA
BRANCH  19  21
HETATM   21  N   UNL     1      24.176  47.003  49.406  1.00  0.00    -0.278 N 
HETATM   22  H   UNL     1      23.996  46.503  48.527  1.00  0.00     0.189 HD
BRANCH  21  23
HETATM   23  N   UNL     1      25.254  46.478  50.143  1.00  0.00    -0.266 N 
HETATM   24  C   UNL     1      25.759  45.234  49.814  1.00  0.00     0.260 C 
HETATM   25  O   UNL     1      25.214  44.454  49.035  1.00  0.00    -0.269 OA
HETATM   26  H   UNL     1      25.852  47.144  50.630  1.00  0.00     0.190 HD
BRANCH  24  27
HETATM   27  C   UNL     1      27.084  44.904  50.501  1.00  0.00     0.280 C 
BRANCH  27  28
HETATM   28  O   UNL     1      26.911  43.875  51.471  1.00  0.00    -0.340 OA
BRANCH  28  29
HETATM   29  C   UNL     1      27.866  43.753  52.444  1.00  0.00     0.091 A 
HETATM   30  C   UNL     1      27.652  44.470  53.636  1.00  0.00     0.068 A 
HETATM   31 CL   UNL     1      26.232  45.435  53.853  1.00  0.00    -0.081 Cl
HETATM   32  C   UNL     1      28.573  44.414  54.683  1.00  0.00     0.046 A 
HETATM   33  C   UNL     1      29.723  43.645  54.540  1.00  0.00     0.012 A 
HETATM   34 BR   UNL     1      30.980  43.561  55.949  1.00  0.00    -0.051 Br
HETATM   35  C   UNL     1      29.958  42.937  53.363  1.00  0.00     0.022 A 
HETATM   36  C   UNL     1      29.032  42.993  52.315  1.00  0.00     0.040 A 
ENDBRANCH  28  29
ENDBRANCH  27  28
ENDBRANCH  24  27
ENDBRANCH  21  23
ENDBRANCH  19  21
ENDBRANCH   1  19
TORSDOF 10
ENDMDL
MODEL 8
REMARK VINA RESULT:      -7.8      4.664     10.587
REMARK  10 active torsions:
REMARK  status: ('A' for Active; 'I' for Inactive)
REMARK    1  A    between atoms: C_4  and  N_5 
REMARK    2  A    between atoms: N_5  and  C_6 
REMARK    3  A    between atoms: C_6  and  N_7 
REMARK    4  A    between atoms: N_7  and  N_8 
REMARK       I    between atoms: N_8  and  C_9 
REMARK    5  A    between atoms: C_9  and  C_10 
REMARK    6  A    between atoms: C_10  and  O_11 
REMARK    7  A    between atoms: O_11  and  C_12 
REMARK    8  A    between atoms: C_22  and  C_23 
REMARK    9  A    between atoms: C_23  and  O_24 
REMARK   10  A    between atoms: C_27  and  C_28 
ROOT
HETATM    1  N   UNL     1      24.370  46.681  50.483  1.00  0.00    -0.228 NA
HETATM    2  H   UNL     1      23.446  46.874  50.862  1.00  0.00     0.136 HD
ENDROOT
BRANCH   1   3
HETATM    3  C   UNL     1      25.177  46.019  51.398  1.00  0.00     0.073 C 
HETATM    4  S   UNL     1      25.333  46.912  52.839  1.00  0.00    -0.081 SA
HETATM    5  C   UNL     1      26.526  45.853  53.446  1.00  0.00    -0.007 C 
HETATM    6  C   UNL     1      27.215  46.194  54.729  1.00  0.00     0.057 C 
HETATM    7  C   UNL     1      26.692  44.751  52.617  1.00  0.00     0.005 C 
HETATM    8  C   UNL     1      25.816  44.793  51.452  1.00  0.00     0.080 C 
BRANCH   7   9
HETATM    9  C   UNL     1      27.699  43.738  52.920  1.00  0.00    -0.024 A 
HETATM   10  C   UNL     1      27.346  42.629  53.701  1.00  0.00     0.012 A 
HETATM   11  C   UNL     1      28.292  41.647  53.994  1.00  0.00     0.001 A 
HETATM   12  C   UNL     1      29.592  41.764  53.505  1.00  0.00     0.000 A 
HETATM   13  C   UNL     1      29.950  42.865  52.728  1.00  0.00     0.001 A 
HETATM   14  C   UNL     1      29.008  43.854  52.438  1.00  0.00     0.012 A 
ENDBRANCH   7   9
BRANCH   8  15
HETATM   15  C   UNL     1      25.607  43.711  50.490  1.00  0.00     0.296 C 
HETATM   16  O   UNL     1      25.759  43.839  49.281  1.00  0.00    -0.259 OA
BRANCH  15  17
HETATM   17  O   UNL     1      25.176  42.554  51.072  1.00  0.00    -0.322 OA
HETATM   18  C   UNL     1      25.821  41.374  50.595  1.00  0.00     0.213 C 
ENDBRANCH  15  17
ENDBRANCH   8  15
ENDBRANCH   1   3
BRANCH   1  19
HETATM   19  C   UNL     1      24.812  47.805  49.817  1.00  0.00     0.170 C 
HETATM   20  S   UNL     1      26.468  47.941  49.561  1.00  0.00    -0.045 SA
BRANCH  19  21
HETATM   21  N   UNL     1      23.869  48.685  49.350  1.00  0.00    -0.278 N 
HETATM   22  H   UNL     1      24.088  49.108  48.439  1.00  0.00     0.189 HD
BRANCH  21  23
HETATM   23  N   UNL     1      22.499  48.423  49.535  1.00  0.00    -0.266 N 
HETATM   24  C   UNL     1      21.733  48.019  48.459  1.00  0.00     0.260 C 
HETATM   25  O   UNL     1      22.118  48.049  47.291  1.00  0.00    -0.269 OA
HETATM   26  H   UNL     1      22.196  48.184  50.479  1.00  0.00     0.190 HD
BRANCH  24  27
HETATM   27  C   UNL     1      20.345  47.509  48.844  1.00  0.00     0.280 C 
BRANCH  27  28
HETATM   28  O   UNL     1      19.741  48.360  49.814  1.00  0.00    -0.340 OA
BRANCH  28  29
HETATM   29  C   UNL     1      18.766  49.219  49.385  1.00  0.00     0.091 A 
HETATM   30  C   UNL     1      18.996  50.592  49.590  1.00  0.00     0.068 A 
HETATM   31 CL   UNL     1      20.458  51.150  50.330  1.00  0.00    -0.081 Cl
HETATM   32  C   UNL     1      18.057  51.545  49.193  1.00  0.00     0.046 A 
HETATM   33  C   UNL     1      16.873  51.128  48.593  1.00  0.00     0.012 A 
HETATM   34 BR   UNL     1      15.593  52.407  48.050  1.00  0.00    -0.051 Br
HETATM   35  C   UNL     1      16.623  49.772  48.392  1.00  0.00     0.022 A 
HETATM   36  C   UNL     1      17.567  48.818  48.790  1.00  0.00     0.040 A 
ENDBRANCH  28  29
ENDBRANCH  27  28
ENDBRANCH  24  27
ENDBRANCH  21  23
ENDBRANCH  19  21
ENDBRANCH   1  19
TORSDOF 10
ENDMDL
MODEL 9
REMARK VINA RESULT:      -7.7      2.249      2.701
REMARK  10 active torsions:
REMARK  status: ('A' for Active; 'I' for Inactive)
REMARK    1  A    between atoms: C_4  and  N_5 
REMARK    2  A    between atoms: N_5  and  C_6 
REMARK    3  A    between atoms: C_6  and  N_7 
REMARK    4  A    between atoms: N_7  and  N_8 
REMARK       I    between atoms: N_8  and  C_9 
REMARK    5  A    between atoms: C_9  and  C_10 
REMARK    6  A    between atoms: C_10  and  O_11 
REMARK    7  A    between atoms: O_11  and  C_12 
REMARK    8  A    between atoms: C_22  and  C_23 
REMARK    9  A    between atoms: C_23  and  O_24 
REMARK   10  A    between atoms: C_27  and  C_28 
ROOT
HETATM    1  N   UNL     1      22.615  46.150  47.662  1.00  0.00    -0.228 NA
HETATM    2  H   UNL     1      23.223  46.580  46.970  1.00  0.00     0.136 HD
ENDROOT
BRANCH   1   3
HETATM    3  C   UNL     1      21.606  47.011  48.072  1.00  0.00     0.073 C 
HETATM    4  S   UNL     1      20.201  46.151  48.501  1.00  0.00    -0.081 SA
HETATM    5  C   UNL     1      19.289  47.585  48.661  1.00  0.00    -0.007 C 
HETATM    6  C   UNL     1      17.819  47.486  48.918  1.00  0.00     0.057 C 
HETATM    7  C   UNL     1      20.092  48.710  48.531  1.00  0.00     0.005 C 
HETATM    8  C   UNL     1      21.489  48.373  48.286  1.00  0.00     0.080 C 
BRANCH   7   9
HETATM    9  C   UNL     1      19.510  50.049  48.584  1.00  0.00    -0.024 A 
HETATM   10  C   UNL     1      19.295  50.655  49.830  1.00  0.00     0.012 A 
HETATM   11  C   UNL     1      18.747  51.937  49.901  1.00  0.00     0.001 A 
HETATM   12  C   UNL     1      18.418  52.620  48.731  1.00  0.00     0.000 A 
HETATM   13  C   UNL     1      18.630  52.021  47.489  1.00  0.00     0.001 A 
HETATM   14  C   UNL     1      19.171  50.736  47.414  1.00  0.00     0.012 A 
ENDBRANCH   7   9
BRANCH   8  15
HETATM   15  C   UNL     1      22.615  49.307  48.287  1.00  0.00     0.296 C 
HETATM   16  O   UNL     1      23.250  49.607  47.283  1.00  0.00    -0.259 OA
BRANCH  15  17
HETATM   17  O   UNL     1      22.921  49.774  49.533  1.00  0.00    -0.322 OA
HETATM   18  C   UNL     1      22.968  51.196  49.638  1.00  0.00     0.213 C 
ENDBRANCH  15  17
ENDBRANCH   8  15
ENDBRANCH   1   3
BRANCH   1  19
HETATM   19  C   UNL     1      23.398  45.478  48.575  1.00  0.00     0.170 C 
HETATM   20  S   UNL     1      24.139  46.396  49.773  1.00  0.00    -0.045 SA
BRANCH  19  21
HETATM   21  N   UNL     1      23.455  44.109  48.486  1.00  0.00    -0.278 N 
HETATM   22  H   UNL     1      23.153  43.723  47.583  1.00  0.00     0.189 HD
BRANCH  21  23
HETATM   23  N   UNL     1      24.522  43.404  49.072  1.00  0.00    -0.266 N 
HETATM   24  C   UNL     1      24.316  42.719  50.255  1.00  0.00     0.260 C 
HETATM   25  O   UNL     1      23.305  42.831  50.947  1.00  0.00    -0.269 OA
HETATM   26  H   UNL     1      25.282  43.114  48.457  1.00  0.00     0.190 HD
BRANCH  24  27
HETATM   27  C   UNL     1      25.462  41.783  50.636  1.00  0.00     0.280 C 
BRANCH  27  28
HETATM   28  O   UNL     1      26.724  42.387  50.366  1.00  0.00    -0.340 OA
BRANCH  28  29
HETATM   29  C   UNL     1      27.529  42.680  51.433  1.00  0.00     0.091 A 
HETATM   30  C   UNL     1      28.455  41.693  51.818  1.00  0.00     0.068 A 
HETATM   31 CL   UNL     1      28.573  40.197  50.957  1.00  0.00    -0.081 Cl
HETATM   32  C   UNL     1      29.314  41.897  52.898  1.00  0.00     0.046 A 
HETATM   33  C   UNL     1      29.246  43.091  53.609  1.00  0.00     0.012 A 
HETATM   34 BR   UNL     1      30.404  43.380  55.075  1.00  0.00    -0.051 Br
HETATM   35  C   UNL     1      28.328  44.075  53.250  1.00  0.00     0.022 A 
HETATM   36  C   UNL     1      27.468  43.870  52.165  1.00  0.00     0.040 A 
ENDBRANCH  28  29
ENDBRANCH  27  28
ENDBRANCH  24  27
ENDBRANCH  21  23
ENDBRANCH  19  21
ENDBRANCH   1  19
TORSDOF 10
ENDMDL
MODEL 10
REMARK VINA RESULT:      -7.6     13.409     14.710
REMARK  10 active torsions:
REMARK  status: ('A' for Active; 'I' for Inactive)
REMARK    1  A    between atoms: C_4  and  N_5 
REMARK    2  A    between atoms: N_5  and  C_6 
REMARK    3  A    between atoms: C_6  and  N_7 
REMARK    4  A    between atoms: N_7  and  N_8 
REMARK       I    between atoms: N_8  and  C_9 
REMARK    5  A    between atoms: C_9  and  C_10 
REMARK    6  A    between atoms: C_10  and  O_11 
REMARK    7  A    between atoms: O_11  and  C_12 
REMARK    8  A    between atoms: C_22  and  C_23 
REMARK    9  A    between atoms: C_23  and  O_24 
REMARK   10  A    between atoms: C_27  and  C_28 
ROOT
HETATM    1  N   UNL     1      34.861  50.162  42.202  1.00  0.00    -0.228 NA
HETATM    2  H   UNL     1      35.384  49.296  42.307  1.00  0.00     0.136 HD
ENDROOT
BRANCH   1   3
HETATM    3  C   UNL     1      33.544  49.930  41.830  1.00  0.00     0.073 C 
HETATM    4  S   UNL     1      33.304  48.299  41.406  1.00  0.00    -0.081 SA
HETATM    5  C   UNL     1      31.724  48.609  40.838  1.00  0.00    -0.007 C 
HETATM    6  C   UNL     1      30.967  47.509  40.163  1.00  0.00     0.057 C 
HETATM    7  C   UNL     1      31.338  49.915  41.109  1.00  0.00     0.005 C 
HETATM    8  C   UNL     1      32.378  50.673  41.793  1.00  0.00     0.080 C 
BRANCH   7   9
HETATM    9  C   UNL     1      30.038  50.412  40.666  1.00  0.00    -0.024 A 
HETATM   10  C   UNL     1      29.906  50.930  39.370  1.00  0.00     0.012 A 
HETATM   11  C   UNL     1      28.670  51.402  38.926  1.00  0.00     0.001 A 
HETATM   12  C   UNL     1      27.562  51.356  39.770  1.00  0.00     0.000 A 
HETATM   13  C   UNL     1      27.688  50.843  41.061  1.00  0.00     0.001 A 
HETATM   14  C   UNL     1      28.924  50.375  41.512  1.00  0.00     0.012 A 
ENDBRANCH   7   9
BRANCH   8  15
HETATM   15  C   UNL     1      32.229  52.004  42.382  1.00  0.00     0.296 C 
HETATM   16  O   UNL     1      31.488  52.868  41.927  1.00  0.00    -0.259 OA
BRANCH  15  17
HETATM   17  O   UNL     1      33.038  52.205  43.462  1.00  0.00    -0.322 OA
HETATM   18  C   UNL     1      32.442  51.885  44.718  1.00  0.00     0.213 C 
ENDBRANCH  15  17
ENDBRANCH   8  15
ENDBRANCH   1   3
BRANCH   1  19
HETATM   19  C   UNL     1      35.649  51.069  41.526  1.00  0.00     0.170 C 
HETATM   20  S   UNL     1      36.395  50.535  40.117  1.00  0.00    -0.045 SA
BRANCH  19  21
HETATM   21  N   UNL     1      35.704  52.354  42.006  1.00  0.00    -0.278 N 
HETATM   22  H   UNL     1      34.989  52.987  41.627  1.00  0.00     0.189 HD
BRANCH  21  23
HETATM   23  N   UNL     1      36.009  52.593  43.359  1.00  0.00    -0.266 N 
HETATM   24  C   UNL     1      37.324  52.793  43.733  1.00  0.00     0.260 C 
HETATM   25  O   UNL     1      38.288  52.591  42.995  1.00  0.00    -0.269 OA
HETATM   26  H   UNL     1      35.264  52.968  43.944  1.00  0.00     0.190 HD
BRANCH  24  27
HETATM   27  C   UNL     1      37.489  53.307  45.162  1.00  0.00     0.280 C 
BRANCH  27  28
HETATM   28  O   UNL     1      38.289  52.416  45.935  1.00  0.00    -0.340 OA
BRANCH  28  29
HETATM   29  C   UNL     1      39.499  52.875  46.383  1.00  0.00     0.091 A 
HETATM   30  C   UNL     1      39.504  53.543  47.621  1.00  0.00     0.068 A 
HETATM   31 CL   UNL     1      38.046  53.744  48.531  1.00  0.00    -0.081 Cl
HETATM   32  C   UNL     1      40.687  54.053  48.157  1.00  0.00     0.046 A 
HETATM   33  C   UNL     1      41.876  53.904  47.451  1.00  0.00     0.012 A 
HETATM   34 BR   UNL     1      43.486  54.590  48.165  1.00  0.00    -0.051 Br
HETATM   35  C   UNL     1      41.889  53.256  46.217  1.00  0.00     0.022 A 
HETATM   36  C   UNL     1      40.701  52.744  45.682  1.00  0.00     0.040 A 
ENDBRANCH  28  29
ENDBRANCH  27  28
ENDBRANCH  24  27
ENDBRANCH  21  23
ENDBRANCH  19  21
ENDBRANCH   1  19
TORSDOF 10
ENDMDL
