MODEL 1
REMARK VINA RESULT:      -9.7      0.000      0.000
REMARK  4 active torsions:
REMARK  status: ('A' for Active; 'I' for Inactive)
REMARK    1  A    between atoms: C_5  and  C_6 
REMARK    2  A    between atoms: C_6  and  N_7 
REMARK    3  A    between atoms: N_13  and  C_15 
REMARK    4  A    between atoms: C_19  and  C_20 
ROOT
HETATM    1  N   UNL     1      24.789  45.788  49.991  1.00  0.00    -0.064 N 
HETATM    2  H   UNL     1      24.199  45.801  49.137  1.00  0.00     0.280 HD
HETATM    3  C   UNL     1      26.133  45.307  49.537  1.00  0.00     0.236 C 
HETATM    4  C   UNL     1      27.059  45.049  50.731  1.00  0.00     0.039 C 
HETATM    5  C   UNL     1      26.455  44.177  51.872  1.00  0.00    -0.013 C 
HETATM    6  C   UNL     1      26.429  42.662  51.517  1.00  0.00     0.245 C 
HETATM    7  N   UNL     1      27.813  42.051  51.496  1.00  0.00    -0.065 N 
HETATM    8  H   UNL     1      28.392  42.485  50.765  1.00  0.00     0.280 HD
HETATM    9  C   UNL     1      28.565  42.231  52.813  1.00  0.00     0.244 C 
HETATM   10  C   UNL     1      28.675  43.725  53.127  1.00  0.00     0.045 C 
HETATM   11  C   UNL     1      27.279  44.367  53.177  1.00  0.00     0.022 C 
HETATM   12  C   UNL     1      25.008  44.673  52.178  1.00  0.00     0.039 C 
HETATM   13  C   UNL     1      24.124  44.861  50.952  1.00  0.00     0.236 C 
ENDROOT
BRANCH   7  14
HETATM   14  C   UNL     1      27.745  40.584  51.160  1.00  0.00     0.188 A 
HETATM   15  C   UNL     1      28.396  40.148  49.878  1.00  0.00     0.035 A 
HETATM   16  C   UNL     1      29.036  39.817  51.196  1.00  0.00     0.035 A 
ENDBRANCH   7  14
BRANCH  10  17
HETATM   17  C   UNL     1      29.444  43.967  54.409  1.00  0.00    -0.052 A 
HETATM   18  C   UNL     1      29.187  45.123  55.164  1.00  0.00     0.007 A 
HETATM   19  C   UNL     1      29.876  45.366  56.353  1.00  0.00     0.001 A 
HETATM   20  C   UNL     1      30.831  44.459  56.805  1.00  0.00     0.000 A 
HETATM   21  C   UNL     1      31.099  43.309  56.068  1.00  0.00     0.001 A 
HETATM   22  C   UNL     1      30.412  43.062  54.877  1.00  0.00     0.007 A 
ENDBRANCH  10  17
BRANCH   1  23
HETATM   23  C   UNL     1      24.747  47.278  50.408  1.00  0.00     0.323 C 
BRANCH  23  24
HETATM   24  C   UNL     1      23.849  48.071  49.536  1.00  0.00     0.198 A 
HETATM   25  O   UNL     1      23.261  47.432  48.494  1.00  0.00    -0.194 OA
HETATM   26  N   UNL     1      22.506  48.395  47.832  1.00  0.00    -0.112 NA
HETATM   27  C   UNL     1      22.723  49.512  48.538  1.00  0.00     0.152 A 
HETATM   28  C   UNL     1      22.146  50.817  48.157  1.00  0.00     0.096 C 
HETATM   29  N   UNL     1      23.545  49.347  49.634  1.00  0.00    -0.208 NA
ENDBRANCH  23  24
ENDBRANCH   1  23
TORSDOF 4
ENDMDL
MODEL 2
REMARK VINA RESULT:      -8.6      1.391      1.675
REMARK  4 active torsions:
REMARK  status: ('A' for Active; 'I' for Inactive)
REMARK    1  A    between atoms: C_5  and  C_6 
REMARK    2  A    between atoms: C_6  and  N_7 
REMARK    3  A    between atoms: N_13  and  C_15 
REMARK    4  A    between atoms: C_19  and  C_20 
ROOT
HETATM    1  N   UNL     1      24.569  45.411  50.097  1.00  0.00    -0.064 N 
HETATM    2  H   UNL     1      23.975  45.413  49.245  1.00  0.00     0.280 HD
HETATM    3  C   UNL     1      25.965  45.174  49.607  1.00  0.00     0.236 C 
HETATM    4  C   UNL     1      26.930  44.949  50.776  1.00  0.00     0.039 C 
HETATM    5  C   UNL     1      26.470  43.901  51.833  1.00  0.00    -0.013 C 
HETATM    6  C   UNL     1      26.663  42.436  51.345  1.00  0.00     0.245 C 
HETATM    7  N   UNL     1      28.120  42.038  51.275  1.00  0.00    -0.065 N 
HETATM    8  H   UNL     1      28.622  42.615  50.587  1.00  0.00     0.280 HD
HETATM    9  C   UNL     1      28.851  42.209  52.606  1.00  0.00     0.244 C 
HETATM   10  C   UNL     1      28.744  43.669  53.051  1.00  0.00     0.045 C 
HETATM   11  C   UNL     1      27.270  44.093  53.153  1.00  0.00     0.022 C 
HETATM   12  C   UNL     1      24.969  44.151  52.177  1.00  0.00     0.039 C 
HETATM   13  C   UNL     1      24.055  44.315  50.970  1.00  0.00     0.236 C 
ENDROOT
BRANCH   7  14
HETATM   14  C   UNL     1      28.264  40.612  50.810  1.00  0.00     0.188 A 
HETATM   15  C   UNL     1      27.117  40.030  50.033  1.00  0.00     0.035 A 
HETATM   16  C   UNL     1      28.395  40.389  49.331  1.00  0.00     0.035 A 
ENDBRANCH   7  14
BRANCH  10  17
HETATM   17  C   UNL     1      29.482  43.907  54.353  1.00  0.00    -0.052 A 
HETATM   18  C   UNL     1      29.189  45.049  55.116  1.00  0.00     0.007 A 
HETATM   19  C   UNL     1      29.849  45.287  56.323  1.00  0.00     0.001 A 
HETATM   20  C   UNL     1      30.809  44.390  56.783  1.00  0.00     0.000 A 
HETATM   21  C   UNL     1      31.112  43.254  56.037  1.00  0.00     0.001 A 
HETATM   22  C   UNL     1      30.454  43.012  54.829  1.00  0.00     0.007 A 
ENDBRANCH  10  17
BRANCH   1  23
HETATM   23  C   UNL     1      24.314  46.836  50.644  1.00  0.00     0.323 C 
BRANCH  23  24
HETATM   24  C   UNL     1      25.053  47.864  49.875  1.00  0.00     0.198 A 
HETATM   25  O   UNL     1      24.418  48.438  48.823  1.00  0.00    -0.194 OA
HETATM   26  N   UNL     1      25.328  49.331  48.267  1.00  0.00    -0.112 NA
HETATM   27  C   UNL     1      26.417  49.196  49.035  1.00  0.00     0.152 A 
HETATM   28  C   UNL     1      27.670  49.933  48.772  1.00  0.00     0.096 C 
HETATM   29  N   UNL     1      26.278  48.299  50.073  1.00  0.00    -0.208 NA
ENDBRANCH  23  24
ENDBRANCH   1  23
TORSDOF 4
ENDMDL
MODEL 3
REMARK VINA RESULT:      -8.2      6.761     13.546
REMARK  4 active torsions:
REMARK  status: ('A' for Active; 'I' for Inactive)
REMARK    1  A    between atoms: C_5  and  C_6 
REMARK    2  A    between atoms: C_6  and  N_7 
REMARK    3  A    between atoms: N_13  and  C_15 
REMARK    4  A    between atoms: C_19  and  C_20 
ROOT
HETATM    1  N   UNL     1      21.241  50.313  49.295  1.00  0.00    -0.064 N 
HETATM    2  H   UNL     1      22.058  50.654  49.838  1.00  0.00     0.280 HD
HETATM    3  C   UNL     1      20.655  51.533  48.653  1.00  0.00     0.236 C 
HETATM    4  C   UNL     1      19.320  51.212  47.972  1.00  0.00     0.039 C 
HETATM    5  C   UNL     1      18.293  50.432  48.846  1.00  0.00    -0.013 C 
HETATM    6  C   UNL     1      17.584  51.342  49.890  1.00  0.00     0.245 C 
HETATM    7  N   UNL     1      16.618  52.312  49.248  1.00  0.00    -0.065 N 
HETATM    8  H   UNL     1      17.115  52.962  48.625  1.00  0.00     0.280 HD
HETATM    9  C   UNL     1      15.552  51.621  48.399  1.00  0.00     0.244 C 
HETATM   10  C   UNL     1      16.239  50.794  47.310  1.00  0.00     0.045 C 
HETATM   11  C   UNL     1      17.210  49.781  47.939  1.00  0.00     0.022 C 
HETATM   12  C   UNL     1      19.028  49.264  49.574  1.00  0.00     0.039 C 
HETATM   13  C   UNL     1      20.322  49.662  50.273  1.00  0.00     0.236 C 
ENDROOT
BRANCH   7  14
HETATM   14  C   UNL     1      15.944  53.166  50.291  1.00  0.00     0.188 A 
HETATM   15  C   UNL     1      15.489  54.532  49.862  1.00  0.00     0.035 A 
HETATM   16  C   UNL     1      14.481  53.445  50.101  1.00  0.00     0.035 A 
ENDBRANCH   7  14
BRANCH  10  17
HETATM   17  C   UNL     1      15.228  50.110  46.413  1.00  0.00    -0.052 A 
HETATM   18  C   UNL     1      14.896  48.765  46.641  1.00  0.00     0.007 A 
HETATM   19  C   UNL     1      13.961  48.115  45.834  1.00  0.00     0.001 A 
HETATM   20  C   UNL     1      13.346  48.798  44.789  1.00  0.00     0.000 A 
HETATM   21  C   UNL     1      13.664  50.131  44.548  1.00  0.00     0.001 A 
HETATM   22  C   UNL     1      14.599  50.786  45.353  1.00  0.00     0.007 A 
ENDBRANCH  10  17
BRANCH   1  23
HETATM   23  C   UNL     1      21.923  49.334  48.309  1.00  0.00     0.323 C 
BRANCH  23  24
HETATM   24  C   UNL     1      23.387  49.553  48.237  1.00  0.00     0.198 A 
HETATM   25  O   UNL     1      23.866  50.255  47.180  1.00  0.00    -0.194 OA
HETATM   26  N   UNL     1      25.248  50.289  47.337  1.00  0.00    -0.112 NA
HETATM   27  C   UNL     1      25.458  49.599  48.466  1.00  0.00     0.152 A 
HETATM   28  C   UNL     1      26.811  49.337  48.996  1.00  0.00     0.096 C 
HETATM   29  N   UNL     1      24.310  49.137  49.077  1.00  0.00    -0.208 NA
ENDBRANCH  23  24
ENDBRANCH   1  23
TORSDOF 4
ENDMDL
MODEL 4
REMARK VINA RESULT:      -8.1      1.409      4.834
REMARK  4 active torsions:
REMARK  status: ('A' for Active; 'I' for Inactive)
REMARK    1  A    between atoms: C_5  and  C_6 
REMARK    2  A    between atoms: C_6  and  N_7 
REMARK    3  A    between atoms: N_13  and  C_15 
REMARK    4  A    between atoms: C_19  and  C_20 
ROOT
HETATM    1  N   UNL     1      24.903  46.074  50.814  1.00  0.00    -0.064 N 
HETATM    2  H   UNL     1      24.594  46.955  51.268  1.00  0.00     0.280 HD
HETATM    3  C   UNL     1      24.639  44.995  51.820  1.00  0.00     0.236 C 
HETATM    4  C   UNL     1      25.230  43.657  51.362  1.00  0.00     0.039 C 
HETATM    5  C   UNL     1      26.716  43.704  50.896  1.00  0.00    -0.013 C 
HETATM    6  C   UNL     1      27.713  43.778  52.087  1.00  0.00     0.245 C 
HETATM    7  N   UNL     1      27.779  42.483  52.867  1.00  0.00    -0.065 N 
HETATM    8  H   UNL     1      26.869  42.271  53.296  1.00  0.00     0.280 HD
HETATM    9  C   UNL     1      28.144  41.281  51.998  1.00  0.00     0.244 C 
HETATM   10  C   UNL     1      27.115  41.145  50.873  1.00  0.00     0.045 C 
HETATM   11  C   UNL     1      27.046  42.441  50.050  1.00  0.00     0.022 C 
HETATM   12  C   UNL     1      26.916  44.936  49.960  1.00  0.00     0.039 C 
HETATM   13  C   UNL     1      26.351  46.245  50.498  1.00  0.00     0.236 C 
ENDROOT
BRANCH   7  14
HETATM   14  C   UNL     1      28.762  42.591  54.003  1.00  0.00     0.188 A 
HETATM   15  C   UNL     1      30.171  42.975  53.650  1.00  0.00     0.035 A 
HETATM   16  C   UNL     1      29.271  43.965  54.334  1.00  0.00     0.035 A 
ENDBRANCH   7  14
BRANCH  10  17
HETATM   17  C   UNL     1      27.408  39.945  49.996  1.00  0.00    -0.052 A 
HETATM   18  C   UNL     1      28.635  39.275  50.126  1.00  0.00     0.007 A 
HETATM   19  C   UNL     1      28.926  38.161  49.337  1.00  0.00     0.001 A 
HETATM   20  C   UNL     1      27.997  37.703  48.406  1.00  0.00     0.000 A 
HETATM   21  C   UNL     1      26.777  38.357  48.264  1.00  0.00     0.001 A 
HETATM   22  C   UNL     1      26.482  39.471  49.052  1.00  0.00     0.007 A 
ENDBRANCH  10  17
BRANCH   1  23
HETATM   23  C   UNL     1      23.978  46.035  49.574  1.00  0.00     0.323 C 
BRANCH  23  24
HETATM   24  C   UNL     1      23.569  47.394  49.147  1.00  0.00     0.198 A 
HETATM   25  O   UNL     1      22.964  47.517  47.939  1.00  0.00    -0.194 OA
HETATM   26  N   UNL     1      22.714  48.875  47.772  1.00  0.00    -0.112 NA
HETATM   27  C   UNL     1      23.200  49.428  48.891  1.00  0.00     0.152 A 
HETATM   28  C   UNL     1      23.192  50.887  49.124  1.00  0.00     0.096 C 
HETATM   29  N   UNL     1      23.727  48.528  49.794  1.00  0.00    -0.208 NA
ENDBRANCH  23  24
ENDBRANCH   1  23
TORSDOF 4
ENDMDL
MODEL 5
REMARK VINA RESULT:      -8.0      4.912     13.350
REMARK  4 active torsions:
REMARK  status: ('A' for Active; 'I' for Inactive)
REMARK    1  A    between atoms: C_5  and  C_6 
REMARK    2  A    between atoms: C_6  and  N_7 
REMARK    3  A    between atoms: N_13  and  C_15 
REMARK    4  A    between atoms: C_19  and  C_20 
ROOT
HETATM    1  N   UNL     1      21.195  49.373  49.616  1.00  0.00    -0.064 N 
HETATM    2  H   UNL     1      21.564  49.150  50.560  1.00  0.00     0.280 HD
HETATM    3  C   UNL     1      20.820  50.823  49.667  1.00  0.00     0.236 C 
HETATM    4  C   UNL     1      20.075  51.246  48.396  1.00  0.00     0.039 C 
HETATM    5  C   UNL     1      18.890  50.326  47.976  1.00  0.00    -0.013 C 
HETATM    6  C   UNL     1      17.618  50.557  48.843  1.00  0.00     0.245 C 
HETATM    7  N   UNL     1      16.960  51.889  48.559  1.00  0.00    -0.065 N 
HETATM    8  H   UNL     1      17.591  52.665  48.802  1.00  0.00     0.280 HD
HETATM    9  C   UNL     1      16.589  52.071  47.089  1.00  0.00     0.244 C 
HETATM   10  C   UNL     1      17.851  51.935  46.233  1.00  0.00     0.045 C 
HETATM   11  C   UNL     1      18.526  50.578  46.485  1.00  0.00     0.022 C 
HETATM   12  C   UNL     1      19.340  48.836  48.083  1.00  0.00     0.039 C 
HETATM   13  C   UNL     1      20.028  48.469  49.392  1.00  0.00     0.236 C 
ENDROOT
BRANCH   7  14
HETATM   14  C   UNL     1      15.729  52.070  49.408  1.00  0.00     0.188 A 
HETATM   15  C   UNL     1      15.708  53.252  50.334  1.00  0.00     0.035 A 
HETATM   16  C   UNL     1      14.856  53.251  49.097  1.00  0.00     0.035 A 
ENDBRANCH   7  14
BRANCH  10  17
HETATM   17  C   UNL     1      17.548  52.140  44.763  1.00  0.00    -0.052 A 
HETATM   18  C   UNL     1      16.857  53.291  44.352  1.00  0.00     0.007 A 
HETATM   19  C   UNL     1      16.573  53.509  43.003  1.00  0.00     0.001 A 
HETATM   20  C   UNL     1      16.975  52.581  42.046  1.00  0.00     0.000 A 
HETATM   21  C   UNL     1      17.660  51.434  42.437  1.00  0.00     0.001 A 
HETATM   22  C   UNL     1      17.946  51.212  43.786  1.00  0.00     0.007 A 
ENDBRANCH  10  17
BRANCH   1  23
HETATM   23  C   UNL     1      22.425  49.059  48.731  1.00  0.00     0.323 C 
BRANCH  23  24
HETATM   24  C   UNL     1      23.350  48.106  49.389  1.00  0.00     0.198 A 
HETATM   25  O   UNL     1      23.215  46.790  49.086  1.00  0.00    -0.194 OA
HETATM   26  N   UNL     1      24.168  46.123  49.848  1.00  0.00    -0.112 NA
HETATM   27  C   UNL     1      24.772  47.102  50.534  1.00  0.00     0.152 A 
HETATM   28  C   UNL     1      25.837  46.839  51.523  1.00  0.00     0.096 C 
HETATM   29  N   UNL     1      24.302  48.369  50.257  1.00  0.00    -0.208 NA
ENDBRANCH  23  24
ENDBRANCH   1  23
TORSDOF 4
ENDMDL
MODEL 6
REMARK VINA RESULT:      -8.0      2.795      8.506
REMARK  4 active torsions:
REMARK  status: ('A' for Active; 'I' for Inactive)
REMARK    1  A    between atoms: C_5  and  C_6 
REMARK    2  A    between atoms: C_6  and  N_7 
REMARK    3  A    between atoms: N_13  and  C_15 
REMARK    4  A    between atoms: C_19  and  C_20 
ROOT
HETATM    1  N   UNL     1      26.664  43.959  52.120  1.00  0.00    -0.064 N 
HETATM    2  H   UNL     1      27.036  43.047  52.447  1.00  0.00     0.280 HD
HETATM    3  C   UNL     1      25.183  43.766  52.006  1.00  0.00     0.236 C 
HETATM    4  C   UNL     1      24.518  44.978  51.343  1.00  0.00     0.039 C 
HETATM    5  C   UNL     1      25.173  45.458  50.013  1.00  0.00    -0.013 C 
HETATM    6  C   UNL     1      24.807  44.550  48.805  1.00  0.00     0.245 C 
HETATM    7  N   UNL     1      23.359  44.696  48.390  1.00  0.00    -0.065 N 
HETATM    8  H   UNL     1      22.732  44.395  49.148  1.00  0.00     0.280 HD
HETATM    9  C   UNL     1      22.977  46.136  48.052  1.00  0.00     0.244 C 
HETATM   10  C   UNL     1      23.249  47.025  49.268  1.00  0.00     0.045 C 
HETATM   11  C   UNL     1      24.721  46.912  49.695  1.00  0.00     0.022 C 
HETATM   12  C   UNL     1      26.722  45.498  50.195  1.00  0.00     0.039 C 
HETATM   13  C   UNL     1      27.325  44.243  50.812  1.00  0.00     0.236 C 
ENDROOT
BRANCH   7  14
HETATM   14  C   UNL     1      23.047  43.810  47.212  1.00  0.00     0.188 A 
HETATM   15  C   UNL     1      22.415  42.480  47.509  1.00  0.00     0.035 A 
HETATM   16  C   UNL     1      21.597  43.581  46.898  1.00  0.00     0.035 A 
ENDBRANCH   7  14
BRANCH  10  17
HETATM   17  C   UNL     1      22.856  48.463  49.002  1.00  0.00    -0.052 A 
HETATM   18  C   UNL     1      23.822  49.372  48.542  1.00  0.00     0.007 A 
HETATM   19  C   UNL     1      23.484  50.701  48.282  1.00  0.00     0.001 A 
HETATM   20  C   UNL     1      22.178  51.140  48.477  1.00  0.00     0.000 A 
HETATM   21  C   UNL     1      21.208  50.252  48.934  1.00  0.00     0.001 A 
HETATM   22  C   UNL     1      21.542  48.922  49.196  1.00  0.00     0.007 A 
ENDBRANCH  10  17
BRANCH   1  23
HETATM   23  C   UNL     1      27.104  44.893  53.273  1.00  0.00     0.323 C 
BRANCH  23  24
HETATM   24  C   UNL     1      28.269  44.350  54.010  1.00  0.00     0.198 A 
HETATM   25  O   UNL     1      28.526  43.024  53.890  1.00  0.00    -0.194 OA
HETATM   26  N   UNL     1      29.635  42.774  54.691  1.00  0.00    -0.112 NA
HETATM   27  C   UNL     1      29.925  43.972  55.216  1.00  0.00     0.152 A 
HETATM   28  C   UNL     1      31.023  44.170  56.185  1.00  0.00     0.096 C 
HETATM   29  N   UNL     1      29.103  44.996  54.795  1.00  0.00    -0.208 NA
ENDBRANCH  23  24
ENDBRANCH   1  23
TORSDOF 4
ENDMDL
MODEL 7
REMARK VINA RESULT:      -7.9      3.045      7.315
REMARK  4 active torsions:
REMARK  status: ('A' for Active; 'I' for Inactive)
REMARK    1  A    between atoms: C_5  and  C_6 
REMARK    2  A    between atoms: C_6  and  N_7 
REMARK    3  A    between atoms: N_13  and  C_15 
REMARK    4  A    between atoms: C_19  and  C_20 
ROOT
HETATM    1  N   UNL     1      25.589  41.178  49.471  1.00  0.00    -0.064 N 
HETATM    2  H   UNL     1      25.225  40.581  48.703  1.00  0.00     0.280 HD
HETATM    3  C   UNL     1      24.404  41.940  49.978  1.00  0.00     0.236 C 
HETATM    4  C   UNL     1      24.828  43.012  50.988  1.00  0.00     0.039 C 
HETATM    5  C   UNL     1      25.996  43.937  50.534  1.00  0.00    -0.013 C 
HETATM    6  C   UNL     1      25.538  45.023  49.518  1.00  0.00     0.245 C 
HETATM    7  N   UNL     1      24.669  46.083  50.158  1.00  0.00    -0.065 N 
HETATM    8  H   UNL     1      23.797  45.671  50.516  1.00  0.00     0.280 HD
HETATM    9  C   UNL     1      25.344  46.774  51.341  1.00  0.00     0.244 C 
HETATM   10  C   UNL     1      25.718  45.723  52.389  1.00  0.00     0.045 C 
HETATM   11  C   UNL     1      26.622  44.646  51.769  1.00  0.00     0.022 C 
HETATM   12  C   UNL     1      27.121  43.061  49.901  1.00  0.00     0.039 C 
HETATM   13  C   UNL     1      26.639  42.051  48.868  1.00  0.00     0.236 C 
ENDROOT
BRANCH   7  14
HETATM   14  C   UNL     1      24.256  47.120  49.146  1.00  0.00     0.188 A 
HETATM   15  C   UNL     1      22.787  47.245  48.860  1.00  0.00     0.035 A 
HETATM   16  C   UNL     1      23.489  48.304  49.661  1.00  0.00     0.035 A 
ENDBRANCH   7  14
BRANCH  10  17
HETATM   17  C   UNL     1      26.362  46.357  53.605  1.00  0.00    -0.052 A 
HETATM   18  C   UNL     1      27.432  45.707  54.240  1.00  0.00     0.007 A 
HETATM   19  C   UNL     1      28.048  46.273  55.356  1.00  0.00     0.001 A 
HETATM   20  C   UNL     1      27.605  47.496  55.854  1.00  0.00     0.000 A 
HETATM   21  C   UNL     1      26.545  48.153  55.236  1.00  0.00     0.001 A 
HETATM   22  C   UNL     1      25.925  47.589  54.119  1.00  0.00     0.007 A 
ENDBRANCH  10  17
BRANCH   1  23
HETATM   23  C   UNL     1      26.133  40.110  50.450  1.00  0.00     0.323 C 
BRANCH  23  24
HETATM   24  C   UNL     1      27.259  39.345  49.865  1.00  0.00     0.198 A 
HETATM   25  O   UNL     1      26.971  38.462  48.876  1.00  0.00    -0.194 OA
HETATM   26  N   UNL     1      28.180  37.867  48.530  1.00  0.00    -0.112 NA
HETATM   27  C   UNL     1      29.067  38.447  49.349  1.00  0.00     0.152 A 
HETATM   28  C   UNL     1      30.496  38.076  49.362  1.00  0.00     0.096 C 
HETATM   29  N   UNL     1      28.532  39.401  50.190  1.00  0.00    -0.208 NA
ENDBRANCH  23  24
ENDBRANCH   1  23
TORSDOF 4
ENDMDL
MODEL 8
REMARK VINA RESULT:      -7.9      3.466      8.192
REMARK  4 active torsions:
REMARK  status: ('A' for Active; 'I' for Inactive)
REMARK    1  A    between atoms: C_5  and  C_6 
REMARK    2  A    between atoms: C_6  and  N_7 
REMARK    3  A    between atoms: N_13  and  C_15 
REMARK    4  A    between atoms: C_19  and  C_20 
ROOT
HETATM    1  N   UNL     1      27.023  41.542  50.482  1.00  0.00    -0.064 N 
HETATM    2  H   UNL     1      27.314  40.651  50.928  1.00  0.00     0.280 HD
HETATM    3  C   UNL     1      27.965  42.579  51.011  1.00  0.00     0.236 C 
HETATM    4  C   UNL     1      27.532  43.987  50.588  1.00  0.00     0.039 C 
HETATM    5  C   UNL     1      26.036  44.335  50.850  1.00  0.00    -0.013 C 
HETATM    6  C   UNL     1      25.750  44.656  52.345  1.00  0.00     0.245 C 
HETATM    7  N   UNL     1      26.351  45.975  52.777  1.00  0.00    -0.065 N 
HETATM    8  H   UNL     1      27.377  45.950  52.703  1.00  0.00     0.280 HD
HETATM    9  C   UNL     1      25.881  47.153  51.926  1.00  0.00     0.244 C 
HETATM   10  C   UNL     1      26.239  46.888  50.462  1.00  0.00     0.045 C 
HETATM   11  C   UNL     1      25.619  45.563  49.990  1.00  0.00     0.022 C 
HETATM   12  C   UNL     1      25.148  43.140  50.386  1.00  0.00     0.039 C 
HETATM   13  C   UNL     1      25.604  41.774  50.883  1.00  0.00     0.236 C 
ENDROOT
BRANCH   7  14
HETATM   14  C   UNL     1      26.044  46.256  54.225  1.00  0.00     0.188 A 
HETATM   15  C   UNL     1      27.215  46.479  55.140  1.00  0.00     0.035 A 
HETATM   16  C   UNL     1      26.350  47.636  54.731  1.00  0.00     0.035 A 
ENDBRANCH   7  14
BRANCH  10  17
HETATM   17  C   UNL     1      25.826  48.042  49.572  1.00  0.00    -0.052 A 
HETATM   18  C   UNL     1      24.463  48.274  49.326  1.00  0.00     0.007 A 
HETATM   19  C   UNL     1      24.055  49.335  48.517  1.00  0.00     0.001 A 
HETATM   20  C   UNL     1      25.002  50.179  47.942  1.00  0.00     0.000 A 
HETATM   21  C   UNL     1      26.357  49.962  48.174  1.00  0.00     0.001 A 
HETATM   22  C   UNL     1      26.769  48.900  48.983  1.00  0.00     0.007 A 
ENDBRANCH  10  17
BRANCH   1  23
HETATM   23  C   UNL     1      27.215  41.204  48.984  1.00  0.00     0.323 C 
BRANCH  23  24
HETATM   24  C   UNL     1      27.412  39.752  48.766  1.00  0.00     0.198 A 
HETATM   25  O   UNL     1      28.684  39.281  48.787  1.00  0.00    -0.194 OA
HETATM   26  N   UNL     1      28.592  37.917  48.531  1.00  0.00    -0.112 NA
HETATM   27  C   UNL     1      27.277  37.710  48.375  1.00  0.00     0.152 A 
HETATM   28  C   UNL     1      26.717  36.386  48.034  1.00  0.00     0.096 C 
HETATM   29  N   UNL     1      26.497  38.835  48.538  1.00  0.00    -0.208 NA
ENDBRANCH  23  24
ENDBRANCH   1  23
TORSDOF 4
ENDMDL
MODEL 9
REMARK VINA RESULT:      -7.5      3.512      7.364
REMARK  4 active torsions:
REMARK  status: ('A' for Active; 'I' for Inactive)
REMARK    1  A    between atoms: C_5  and  C_6 
REMARK    2  A    between atoms: C_6  and  N_7 
REMARK    3  A    between atoms: N_13  and  C_15 
REMARK    4  A    between atoms: C_19  and  C_20 
ROOT
HETATM    1  N   UNL     1      26.322  40.045  49.045  1.00  0.00    -0.064 N 
HETATM    2  H   UNL     1      25.724  39.699  48.271  1.00  0.00     0.280 HD
HETATM    3  C   UNL     1      25.392  40.760  49.977  1.00  0.00     0.236 C 
HETATM    4  C   UNL     1      26.168  41.497  51.074  1.00  0.00     0.039 C 
HETATM    5  C   UNL     1      27.340  42.396  50.578  1.00  0.00    -0.013 C 
HETATM    6  C   UNL     1      26.847  43.741  49.972  1.00  0.00     0.245 C 
HETATM    7  N   UNL     1      26.294  44.679  51.022  1.00  0.00    -0.065 N 
HETATM    8  H   UNL     1      25.464  44.271  51.473  1.00  0.00     0.280 HD
HETATM    9  C   UNL     1      27.292  44.983  52.137  1.00  0.00     0.244 C 
HETATM   10  C   UNL     1      27.717  43.670  52.801  1.00  0.00     0.045 C 
HETATM   11  C   UNL     1      28.305  42.707  51.758  1.00  0.00     0.022 C 
HETATM   12  C   UNL     1      28.169  41.609  49.516  1.00  0.00     0.039 C 
HETATM   13  C   UNL     1      27.341  40.943  48.425  1.00  0.00     0.236 C 
ENDROOT
BRANCH   7  14
HETATM   14  C   UNL     1      25.837  45.972  50.399  1.00  0.00     0.188 A 
HETATM   15  C   UNL     1      24.355  46.199  50.309  1.00  0.00     0.035 A 
HETATM   16  C   UNL     1      25.174  46.968  51.306  1.00  0.00     0.035 A 
ENDBRANCH   7  14
BRANCH  10  17
HETATM   17  C   UNL     1      28.684  43.913  53.941  1.00  0.00    -0.052 A 
HETATM   18  C   UNL     1      29.733  43.006  54.165  1.00  0.00     0.007 A 
HETATM   19  C   UNL     1      30.642  43.212  55.203  1.00  0.00     0.001 A 
HETATM   20  C   UNL     1      30.518  44.323  56.032  1.00  0.00     0.000 A 
HETATM   21  C   UNL     1      29.483  45.231  55.824  1.00  0.00     0.001 A 
HETATM   22  C   UNL     1      28.570  45.029  54.787  1.00  0.00     0.007 A 
ENDBRANCH  10  17
BRANCH   1  23
HETATM   23  C   UNL     1      26.894  38.719  49.600  1.00  0.00     0.323 C 
BRANCH  23  24
HETATM   24  C   UNL     1      27.045  37.695  48.539  1.00  0.00     0.198 A 
HETATM   25  O   UNL     1      26.161  36.666  48.529  1.00  0.00    -0.194 OA
HETATM   26  N   UNL     1      26.538  35.848  47.469  1.00  0.00    -0.112 NA
HETATM   27  C   UNL     1      27.611  36.464  46.957  1.00  0.00     0.152 A 
HETATM   28  C   UNL     1      28.380  35.909  45.824  1.00  0.00     0.096 C 
HETATM   29  N   UNL     1      27.950  37.643  47.587  1.00  0.00    -0.208 NA
ENDBRANCH  23  24
ENDBRANCH   1  23
TORSDOF 4
ENDMDL
MODEL 10
REMARK VINA RESULT:      -7.5     10.259     14.930
REMARK  4 active torsions:
REMARK  status: ('A' for Active; 'I' for Inactive)
REMARK    1  A    between atoms: C_5  and  C_6 
REMARK    2  A    between atoms: C_6  and  N_7 
REMARK    3  A    between atoms: N_13  and  C_15 
REMARK    4  A    between atoms: C_19  and  C_20 
ROOT
HETATM    1  N   UNL     1      13.559  55.197  51.130  1.00  0.00    -0.064 N 
HETATM    2  H   UNL     1      12.728  55.819  51.110  1.00  0.00     0.280 HD
HETATM    3  C   UNL     1      14.482  55.732  50.078  1.00  0.00     0.236 C 
HETATM    4  C   UNL     1      15.672  54.792  49.857  1.00  0.00     0.039 C 
HETATM    5  C   UNL     1      15.311  53.291  49.643  1.00  0.00    -0.013 C 
HETATM    6  C   UNL     1      14.772  53.005  48.212  1.00  0.00     0.245 C 
HETATM    7  N   UNL     1      15.850  53.114  47.157  1.00  0.00    -0.065 N 
HETATM    8  H   UNL     1      16.222  54.072  47.113  1.00  0.00     0.280 HD
HETATM    9  C   UNL     1      17.042  52.195  47.423  1.00  0.00     0.244 C 
HETATM   10  C   UNL     1      17.636  52.530  48.793  1.00  0.00     0.045 C 
HETATM   11  C   UNL     1      16.565  52.404  49.888  1.00  0.00     0.022 C 
HETATM   12  C   UNL     1      14.248  52.868  50.703  1.00  0.00     0.039 C 
HETATM   13  C   UNL     1      13.065  53.819  50.837  1.00  0.00     0.236 C 
ENDROOT
BRANCH   7  14
HETATM   14  C   UNL     1      15.293  52.819  45.788  1.00  0.00     0.188 A 
HETATM   15  C   UNL     1      14.929  53.999  44.933  1.00  0.00     0.035 A 
HETATM   16  C   UNL     1      16.150  53.185  44.611  1.00  0.00     0.035 A 
ENDBRANCH   7  14
BRANCH  10  17
HETATM   17  C   UNL     1      18.846  51.671  49.097  1.00  0.00    -0.052 A 
HETATM   18  C   UNL     1      18.729  50.606  50.005  1.00  0.00     0.007 A 
HETATM   19  C   UNL     1      19.826  49.795  50.296  1.00  0.00     0.001 A 
HETATM   20  C   UNL     1      21.054  50.035  49.687  1.00  0.00     0.000 A 
HETATM   21  C   UNL     1      21.188  51.087  48.786  1.00  0.00     0.001 A 
HETATM   22  C   UNL     1      20.092  51.902  48.491  1.00  0.00     0.007 A 
ENDBRANCH  10  17
BRANCH   1  23
HETATM   23  C   UNL     1      14.053  55.402  52.582  1.00  0.00     0.323 C 
BRANCH  23  24
HETATM   24  C   UNL     1      14.350  56.825  52.869  1.00  0.00     0.198 A 
HETATM   25  O   UNL     1      15.564  57.120  53.397  1.00  0.00    -0.194 OA
HETATM   26  N   UNL     1      15.572  58.497  53.593  1.00  0.00    -0.112 NA
HETATM   27  C   UNL     1      14.362  58.886  53.172  1.00  0.00     0.152 A 
HETATM   28  C   UNL     1      13.910  60.291  53.244  1.00  0.00     0.096 C 
HETATM   29  N   UNL     1      13.569  57.868  52.686  1.00  0.00    -0.208 NA
ENDBRANCH  23  24
ENDBRANCH   1  23
TORSDOF 4
ENDMDL
