MODEL 1
REMARK VINA RESULT:      -9.2      0.000      0.000
REMARK  6 active torsions:
REMARK  status: ('A' for Active; 'I' for Inactive)
REMARK    1  A    between atoms: O_2  and  C_3 
REMARK    2  A    between atoms: C_6  and  C_7 
REMARK    3  A    between atoms: C_11  and  C_12 
REMARK       I    between atoms: C_12  and  N_13 
REMARK    4  A    between atoms: N_13  and  N_14 
REMARK       I    between atoms: N_14  and  C_15 
REMARK    5  A    between atoms: C_15  and  C_16 
REMARK    6  A    between atoms: C_17  and  C_18 
ROOT
HETATM    1  C   UNL     1      25.855  48.166  49.376  1.00  0.00     0.288 C 
HETATM    2  N   UNL     1      25.524  47.331  50.418  1.00  0.00    -0.262 N 
HETATM    3  O   UNL     1      26.993  48.234  48.918  1.00  0.00    -0.264 OA
HETATM    4  H   UNL     1      24.575  47.214  50.767  1.00  0.00     0.190 HD
ENDROOT
BRANCH   1   5
HETATM    5  C   UNL     1      24.766  48.961  48.879  1.00  0.00     0.121 A 
HETATM    6  N   UNL     1      24.937  49.949  47.951  1.00  0.00    -0.272 N 
HETATM    7  N   UNL     1      23.810  50.602  47.626  1.00  0.00    -0.174 NA
HETATM    8  H   UNL     1      25.808  50.223  47.504  1.00  0.00     0.189 HD
HETATM    9  C   UNL     1      22.861  50.047  48.397  1.00  0.00     0.089 A 
HETATM   10  C   UNL     1      23.418  48.993  49.174  1.00  0.00     0.071 A 
BRANCH   9  11
HETATM   11  C   UNL     1      21.473  50.519  48.393  1.00  0.00    -0.005 A 
HETATM   12  C   UNL     1      20.639  50.286  47.290  1.00  0.00     0.016 A 
HETATM   13  C   UNL     1      19.311  50.737  47.281  1.00  0.00     0.037 A 
HETATM   14  C   UNL     1      18.800  51.433  48.374  1.00  0.00     0.068 A 
HETATM   15  C   UNL     1      19.625  51.674  49.472  1.00  0.00     0.037 A 
HETATM   16  C   UNL     1      20.949  51.224  49.484  1.00  0.00     0.016 A 
BRANCH  14  17
HETATM   17  O   UNL     1      17.532  51.928  48.497  1.00  0.00    -0.356 OA
HETATM   18  C   UNL     1      17.093  52.255  49.809  1.00  0.00     0.210 C 
ENDBRANCH  14  17
ENDBRANCH   9  11
ENDBRANCH   1   5
BRANCH   2  19
HETATM   19  N   UNL     1      26.506  46.567  51.059  1.00  0.00    -0.263 N 
HETATM   20  C   UNL     1      26.057  45.628  51.963  1.00  0.00     0.271 C 
HETATM   21  O   UNL     1      24.859  45.410  52.134  1.00  0.00    -0.266 OA
HETATM   22  H   UNL     1      27.473  46.878  50.946  1.00  0.00     0.190 HD
BRANCH  20  23
HETATM   23  C   UNL     1      27.061  44.933  52.813  1.00  0.00     0.048 A 
HETATM   24  C   UNL     1      27.529  45.402  54.054  1.00  0.00     0.063 A 
HETATM   25  C   UNL     1      28.481  44.629  54.749  1.00  0.00     0.017 A 
HETATM   26  C   UNL     1      28.975  43.438  54.216  1.00  0.00     0.001 A 
HETATM   27  C   UNL     1      28.529  42.995  52.976  1.00  0.00     0.001 A 
HETATM   28  C   UNL     1      27.580  43.740  52.278  1.00  0.00     0.018 A 
BRANCH  24  29
HETATM   29  C   UNL     1      27.065  46.704  54.646  1.00  0.00     0.418 C 
HETATM   30  F   UNL     1      25.715  46.789  54.762  1.00  0.00    -0.166 F 
HETATM   31  F   UNL     1      27.575  46.896  55.896  1.00  0.00    -0.166 F 
HETATM   32  F   UNL     1      27.445  47.796  53.925  1.00  0.00    -0.166 F 
ENDBRANCH  24  29
ENDBRANCH  20  23
ENDBRANCH   2  19
TORSDOF 6
ENDMDL
MODEL 2
REMARK VINA RESULT:      -9.2      3.890     10.137
REMARK  6 active torsions:
REMARK  status: ('A' for Active; 'I' for Inactive)
REMARK    1  A    between atoms: O_2  and  C_3 
REMARK    2  A    between atoms: C_6  and  C_7 
REMARK    3  A    between atoms: C_11  and  C_12 
REMARK       I    between atoms: C_12  and  N_13 
REMARK    4  A    between atoms: N_13  and  N_14 
REMARK       I    between atoms: N_14  and  C_15 
REMARK    5  A    between atoms: C_15  and  C_16 
REMARK    6  A    between atoms: C_17  and  C_18 
ROOT
HETATM    1  C   UNL     1      23.978  48.032  49.522  1.00  0.00     0.288 C 
HETATM    2  N   UNL     1      22.616  47.862  49.422  1.00  0.00    -0.262 N 
HETATM    3  O   UNL     1      24.602  48.808  48.803  1.00  0.00    -0.264 OA
HETATM    4  H   UNL     1      22.074  47.272  50.051  1.00  0.00     0.190 HD
ENDROOT
BRANCH   1   5
HETATM    5  C   UNL     1      24.610  47.216  50.524  1.00  0.00     0.121 A 
HETATM    6  N   UNL     1      24.187  45.951  50.818  1.00  0.00    -0.272 N 
HETATM    7  N   UNL     1      24.883  45.353  51.798  1.00  0.00    -0.174 NA
HETATM    8  H   UNL     1      23.424  45.444  50.378  1.00  0.00     0.189 HD
HETATM    9  C   UNL     1      25.778  46.273  52.192  1.00  0.00     0.089 A 
HETATM   10  C   UNL     1      25.656  47.445  51.394  1.00  0.00     0.071 A 
BRANCH   9  11
HETATM   11  C   UNL     1      26.707  46.037  53.301  1.00  0.00    -0.005 A 
HETATM   12  C   UNL     1      27.223  44.756  53.544  1.00  0.00     0.016 A 
HETATM   13  C   UNL     1      28.112  44.526  54.604  1.00  0.00     0.037 A 
HETATM   14  C   UNL     1      28.494  45.573  55.440  1.00  0.00     0.068 A 
HETATM   15  C   UNL     1      27.979  46.849  55.208  1.00  0.00     0.037 A 
HETATM   16  C   UNL     1      27.095  47.081  54.151  1.00  0.00     0.016 A 
BRANCH  14  17
HETATM   17  O   UNL     1      29.346  45.489  56.505  1.00  0.00    -0.356 OA
HETATM   18  C   UNL     1      30.584  44.826  56.286  1.00  0.00     0.210 C 
ENDBRANCH  14  17
ENDBRANCH   9  11
ENDBRANCH   1   5
BRANCH   2  19
HETATM   19  N   UNL     1      21.886  48.524  48.429  1.00  0.00    -0.263 N 
HETATM   20  C   UNL     1      20.573  48.820  48.729  1.00  0.00     0.271 C 
HETATM   21  O   UNL     1      20.093  48.595  49.840  1.00  0.00    -0.266 OA
HETATM   22  H   UNL     1      22.317  48.578  47.505  1.00  0.00     0.190 HD
BRANCH  20  23
HETATM   23  C   UNL     1      19.702  49.339  47.641  1.00  0.00     0.048 A 
HETATM   24  C   UNL     1      19.315  50.683  47.492  1.00  0.00     0.063 A 
HETATM   25  C   UNL     1      18.488  51.027  46.403  1.00  0.00     0.017 A 
HETATM   26  C   UNL     1      18.037  50.061  45.504  1.00  0.00     0.001 A 
HETATM   27  C   UNL     1      18.400  48.731  45.674  1.00  0.00     0.001 A 
HETATM   28  C   UNL     1      19.226  48.372  46.737  1.00  0.00     0.018 A 
BRANCH  24  29
HETATM   29  C   UNL     1      19.734  51.752  48.463  1.00  0.00     0.418 C 
HETATM   30  F   UNL     1      19.297  51.526  49.729  1.00  0.00    -0.166 F 
HETATM   31  F   UNL     1      21.090  51.861  48.535  1.00  0.00    -0.166 F 
HETATM   32  F   UNL     1      19.284  52.995  48.132  1.00  0.00    -0.166 F 
ENDBRANCH  24  29
ENDBRANCH  20  23
ENDBRANCH   2  19
TORSDOF 6
ENDMDL
MODEL 3
REMARK VINA RESULT:      -9.1      2.583      3.370
REMARK  6 active torsions:
REMARK  status: ('A' for Active; 'I' for Inactive)
REMARK    1  A    between atoms: O_2  and  C_3 
REMARK    2  A    between atoms: C_6  and  C_7 
REMARK    3  A    between atoms: C_11  and  C_12 
REMARK       I    between atoms: C_12  and  N_13 
REMARK    4  A    between atoms: N_13  and  N_14 
REMARK       I    between atoms: N_14  and  C_15 
REMARK    5  A    between atoms: C_15  and  C_16 
REMARK    6  A    between atoms: C_17  and  C_18 
ROOT
HETATM    1  C   UNL     1      26.100  45.719  50.326  1.00  0.00     0.288 C 
HETATM    2  N   UNL     1      26.156  45.531  51.688  1.00  0.00    -0.262 N 
HETATM    3  O   UNL     1      27.012  45.384  49.574  1.00  0.00    -0.264 OA
HETATM    4  H   UNL     1      25.385  45.743  52.317  1.00  0.00     0.190 HD
ENDROOT
BRANCH   1   5
HETATM    5  C   UNL     1      24.896  46.351  49.858  1.00  0.00     0.121 A 
HETATM    6  N   UNL     1      23.957  45.691  49.117  1.00  0.00    -0.272 N 
HETATM    7  N   UNL     1      22.913  46.451  48.750  1.00  0.00    -0.174 NA
HETATM    8  H   UNL     1      23.980  44.717  48.830  1.00  0.00     0.189 HD
HETATM    9  C   UNL     1      23.190  47.671  49.238  1.00  0.00     0.089 A 
HETATM   10  C   UNL     1      24.412  47.639  49.966  1.00  0.00     0.071 A 
BRANCH   9  11
HETATM   11  C   UNL     1      22.316  48.825  49.004  1.00  0.00    -0.005 A 
HETATM   12  C   UNL     1      20.930  48.661  48.881  1.00  0.00     0.016 A 
HETATM   13  C   UNL     1      20.090  49.762  48.657  1.00  0.00     0.037 A 
HETATM   14  C   UNL     1      20.627  51.043  48.548  1.00  0.00     0.068 A 
HETATM   15  C   UNL     1      22.007  51.213  48.663  1.00  0.00     0.037 A 
HETATM   16  C   UNL     1      22.845  50.117  48.889  1.00  0.00     0.016 A 
BRANCH  14  17
HETATM   17  O   UNL     1      19.929  52.198  48.329  1.00  0.00    -0.356 OA
HETATM   18  C   UNL     1      18.692  52.340  49.014  1.00  0.00     0.210 C 
ENDBRANCH  14  17
ENDBRANCH   9  11
ENDBRANCH   1   5
BRANCH   2  19
HETATM   19  N   UNL     1      27.307  45.011  52.289  1.00  0.00    -0.263 N 
HETATM   20  C   UNL     1      27.225  44.744  53.639  1.00  0.00     0.271 C 
HETATM   21  O   UNL     1      26.173  44.872  54.265  1.00  0.00    -0.266 OA
HETATM   22  H   UNL     1      28.163  45.034  51.733  1.00  0.00     0.190 HD
BRANCH  20  23
HETATM   23  C   UNL     1      28.473  44.381  54.362  1.00  0.00     0.048 A 
HETATM   24  C   UNL     1      29.135  43.145  54.255  1.00  0.00     0.063 A 
HETATM   25  C   UNL     1      30.316  42.948  55.000  1.00  0.00     0.017 A 
HETATM   26  C   UNL     1      30.811  43.940  55.847  1.00  0.00     0.001 A 
HETATM   27  C   UNL     1      30.135  45.148  55.970  1.00  0.00     0.001 A 
HETATM   28  C   UNL     1      28.973  45.366  55.233  1.00  0.00     0.018 A 
BRANCH  24  29
HETATM   29  C   UNL     1      28.614  42.027  53.395  1.00  0.00     0.418 C 
HETATM   30  F   UNL     1      28.875  42.201  52.074  1.00  0.00    -0.166 F 
HETATM   31  F   UNL     1      29.161  40.829  53.744  1.00  0.00    -0.166 F 
HETATM   32  F   UNL     1      27.266  41.853  53.487  1.00  0.00    -0.166 F 
ENDBRANCH  24  29
ENDBRANCH  20  23
ENDBRANCH   2  19
TORSDOF 6
ENDMDL
MODEL 4
REMARK VINA RESULT:      -9.1      3.901     10.338
REMARK  6 active torsions:
REMARK  status: ('A' for Active; 'I' for Inactive)
REMARK    1  A    between atoms: O_2  and  C_3 
REMARK    2  A    between atoms: C_6  and  C_7 
REMARK    3  A    between atoms: C_11  and  C_12 
REMARK       I    between atoms: C_12  and  N_13 
REMARK    4  A    between atoms: N_13  and  N_14 
REMARK       I    between atoms: N_14  and  C_15 
REMARK    5  A    between atoms: C_15  and  C_16 
REMARK    6  A    between atoms: C_17  and  C_18 
ROOT
HETATM    1  C   UNL     1      23.972  45.847  49.648  1.00  0.00     0.288 C 
HETATM    2  N   UNL     1      23.762  47.186  49.882  1.00  0.00    -0.262 N 
HETATM    3  O   UNL     1      23.149  45.138  49.074  1.00  0.00    -0.264 OA
HETATM    4  H   UNL     1      24.459  47.802  50.297  1.00  0.00     0.190 HD
ENDROOT
BRANCH   1   5
HETATM    5  C   UNL     1      25.224  45.343  50.144  1.00  0.00     0.121 A 
HETATM    6  N   UNL     1      26.199  44.852  49.322  1.00  0.00    -0.272 N 
HETATM    7  N   UNL     1      27.288  44.403  49.967  1.00  0.00    -0.174 NA
HETATM    8  H   UNL     1      26.173  44.798  48.308  1.00  0.00     0.189 HD
HETATM    9  C   UNL     1      27.006  44.571  51.269  1.00  0.00     0.089 A 
HETATM   10  C   UNL     1      25.733  45.186  51.418  1.00  0.00     0.071 A 
BRANCH   9  11
HETATM   11  C   UNL     1      27.926  44.146  52.330  1.00  0.00    -0.005 A 
HETATM   12  C   UNL     1      28.895  43.163  52.087  1.00  0.00     0.016 A 
HETATM   13  C   UNL     1      29.776  42.753  53.098  1.00  0.00     0.037 A 
HETATM   14  C   UNL     1      29.696  43.318  54.370  1.00  0.00     0.068 A 
HETATM   15  C   UNL     1      28.729  44.292  54.620  1.00  0.00     0.037 A 
HETATM   16  C   UNL     1      27.851  44.703  53.613  1.00  0.00     0.016 A 
BRANCH  14  17
HETATM   17  O   UNL     1      30.485  43.012  55.443  1.00  0.00    -0.356 OA
HETATM   18  C   UNL     1      31.032  44.104  56.171  1.00  0.00     0.210 C 
ENDBRANCH  14  17
ENDBRANCH   9  11
ENDBRANCH   1   5
BRANCH   2  19
HETATM   19  N   UNL     1      22.548  47.789  49.534  1.00  0.00    -0.263 N 
HETATM   20  C   UNL     1      22.597  48.724  48.522  1.00  0.00     0.271 C 
HETATM   21  O   UNL     1      23.631  48.953  47.897  1.00  0.00    -0.266 OA
HETATM   22  H   UNL     1      21.761  47.627  50.165  1.00  0.00     0.190 HD
BRANCH  20  23
HETATM   23  C   UNL     1      21.378  49.533  48.253  1.00  0.00     0.048 A 
HETATM   24  C   UNL     1      20.233  49.066  47.582  1.00  0.00     0.063 A 
HETATM   25  C   UNL     1      19.150  49.951  47.405  1.00  0.00     0.017 A 
HETATM   26  C   UNL     1      19.211  51.269  47.859  1.00  0.00     0.001 A 
HETATM   27  C   UNL     1      20.357  51.731  48.495  1.00  0.00     0.001 A 
HETATM   28  C   UNL     1      21.434  50.869  48.689  1.00  0.00     0.018 A 
BRANCH  24  29
HETATM   29  C   UNL     1      20.139  47.670  47.030  1.00  0.00     0.418 C 
HETATM   30  F   UNL     1      21.263  47.275  46.378  1.00  0.00    -0.166 F 
HETATM   31  F   UNL     1      19.921  46.755  48.016  1.00  0.00    -0.166 F 
HETATM   32  F   UNL     1      19.118  47.503  46.144  1.00  0.00    -0.166 F 
ENDBRANCH  24  29
ENDBRANCH  20  23
ENDBRANCH   2  19
TORSDOF 6
ENDMDL
MODEL 5
REMARK VINA RESULT:      -9.0      1.954      2.419
REMARK  6 active torsions:
REMARK  status: ('A' for Active; 'I' for Inactive)
REMARK    1  A    between atoms: O_2  and  C_3 
REMARK    2  A    between atoms: C_6  and  C_7 
REMARK    3  A    between atoms: C_11  and  C_12 
REMARK       I    between atoms: C_12  and  N_13 
REMARK    4  A    between atoms: N_13  and  N_14 
REMARK       I    between atoms: N_14  and  C_15 
REMARK    5  A    between atoms: C_15  and  C_16 
REMARK    6  A    between atoms: C_17  and  C_18 
ROOT
HETATM    1  C   UNL     1      25.767  48.355  49.456  1.00  0.00     0.288 C 
HETATM    2  N   UNL     1      25.427  47.294  50.264  1.00  0.00    -0.262 N 
HETATM    3  O   UNL     1      26.930  48.708  49.281  1.00  0.00    -0.264 OA
HETATM    4  H   UNL     1      24.475  46.948  50.369  1.00  0.00     0.190 HD
ENDROOT
BRANCH   1   5
HETATM    5  C   UNL     1      24.649  49.024  48.847  1.00  0.00     0.121 A 
HETATM    6  N   UNL     1      24.793  49.921  47.826  1.00  0.00    -0.272 N 
HETATM    7  N   UNL     1      23.640  50.463  47.404  1.00  0.00    -0.174 NA
HETATM    8  H   UNL     1      25.661  50.202  47.379  1.00  0.00     0.189 HD
HETATM    9  C   UNL     1      22.699  49.930  48.201  1.00  0.00     0.089 A 
HETATM   10  C   UNL     1      23.292  49.000  49.099  1.00  0.00     0.071 A 
BRANCH   9  11
HETATM   11  C   UNL     1      21.286  50.310  48.106  1.00  0.00    -0.005 A 
HETATM   12  C   UNL     1      20.354  49.459  47.497  1.00  0.00     0.016 A 
HETATM   13  C   UNL     1      19.001  49.818  47.404  1.00  0.00     0.037 A 
HETATM   14  C   UNL     1      18.563  51.038  47.916  1.00  0.00     0.068 A 
HETATM   15  C   UNL     1      19.487  51.893  48.518  1.00  0.00     0.037 A 
HETATM   16  C   UNL     1      20.835  51.535  48.614  1.00  0.00     0.016 A 
BRANCH  14  17
HETATM   17  O   UNL     1      17.282  51.513  47.892  1.00  0.00    -0.356 OA
HETATM   18  C   UNL     1      16.737  51.955  49.128  1.00  0.00     0.210 C 
ENDBRANCH  14  17
ENDBRANCH   9  11
ENDBRANCH   1   5
BRANCH   2  19
HETATM   19  N   UNL     1      26.407  46.610  50.991  1.00  0.00    -0.263 N 
HETATM   20  C   UNL     1      25.954  45.709  51.931  1.00  0.00     0.271 C 
HETATM   21  O   UNL     1      24.758  45.454  52.064  1.00  0.00    -0.266 OA
HETATM   22  H   UNL     1      27.365  46.952  50.900  1.00  0.00     0.190 HD
BRANCH  20  23
HETATM   23  C   UNL     1      26.944  45.107  52.863  1.00  0.00     0.048 A 
HETATM   24  C   UNL     1      27.606  43.884  52.655  1.00  0.00     0.063 A 
HETATM   25  C   UNL     1      28.526  43.443  53.629  1.00  0.00     0.017 A 
HETATM   26  C   UNL     1      28.762  44.183  54.788  1.00  0.00     0.001 A 
HETATM   27  C   UNL     1      28.083  45.376  55.001  1.00  0.00     0.001 A 
HETATM   28  C   UNL     1      27.178  45.834  54.045  1.00  0.00     0.018 A 
BRANCH  24  29
HETATM   29  C   UNL     1      27.348  43.027  51.447  1.00  0.00     0.418 C 
HETATM   30  F   UNL     1      27.551  43.680  50.274  1.00  0.00    -0.166 F 
HETATM   31  F   UNL     1      28.159  41.932  51.426  1.00  0.00    -0.166 F 
HETATM   32  F   UNL     1      26.077  42.541  51.386  1.00  0.00    -0.166 F 
ENDBRANCH  24  29
ENDBRANCH  20  23
ENDBRANCH   2  19
TORSDOF 6
ENDMDL
MODEL 6
REMARK VINA RESULT:      -8.8      3.596     10.140
REMARK  6 active torsions:
REMARK  status: ('A' for Active; 'I' for Inactive)
REMARK    1  A    between atoms: O_2  and  C_3 
REMARK    2  A    between atoms: C_6  and  C_7 
REMARK    3  A    between atoms: C_11  and  C_12 
REMARK       I    between atoms: C_12  and  N_13 
REMARK    4  A    between atoms: N_13  and  N_14 
REMARK       I    between atoms: N_14  and  C_15 
REMARK    5  A    between atoms: C_15  and  C_16 
REMARK    6  A    between atoms: C_17  and  C_18 
ROOT
HETATM    1  C   UNL     1      23.752  45.320  49.451  1.00  0.00     0.288 C 
HETATM    2  N   UNL     1      23.358  46.637  49.519  1.00  0.00    -0.262 N 
HETATM    3  O   UNL     1      23.046  44.443  48.961  1.00  0.00    -0.264 OA
HETATM    4  H   UNL     1      23.955  47.386  49.862  1.00  0.00     0.190 HD
ENDROOT
BRANCH   1   5
HETATM    5  C   UNL     1      25.049  45.055  50.013  1.00  0.00     0.121 A 
HETATM    6  N   UNL     1      26.178  44.960  49.250  1.00  0.00    -0.272 N 
HETATM    7  N   UNL     1      27.291  44.682  49.948  1.00  0.00    -0.174 NA
HETATM    8  H   UNL     1      26.246  45.075  48.243  1.00  0.00     0.189 HD
HETATM    9  C   UNL     1      26.875  44.553  51.218  1.00  0.00     0.089 A 
HETATM   10  C   UNL     1      25.478  44.810  51.302  1.00  0.00     0.071 A 
BRANCH   9  11
HETATM   11  C   UNL     1      27.786  44.187  52.307  1.00  0.00    -0.005 A 
HETATM   12  C   UNL     1      28.829  43.275  52.093  1.00  0.00     0.016 A 
HETATM   13  C   UNL     1      29.703  42.922  53.132  1.00  0.00     0.037 A 
HETATM   14  C   UNL     1      29.541  43.472  54.402  1.00  0.00     0.068 A 
HETATM   15  C   UNL     1      28.501  44.375  54.624  1.00  0.00     0.037 A 
HETATM   16  C   UNL     1      27.631  44.730  53.589  1.00  0.00     0.016 A 
BRANCH  14  17
HETATM   17  O   UNL     1      30.314  43.215  55.500  1.00  0.00    -0.356 OA
HETATM   18  C   UNL     1      30.837  44.340  56.195  1.00  0.00     0.210 C 
ENDBRANCH  14  17
ENDBRANCH   9  11
ENDBRANCH   1   5
BRANCH   2  19
HETATM   19  N   UNL     1      22.083  47.022  49.092  1.00  0.00    -0.263 N 
HETATM   20  C   UNL     1      22.032  47.991  48.112  1.00  0.00     0.271 C 
HETATM   21  O   UNL     1      23.050  48.431  47.579  1.00  0.00    -0.266 OA
HETATM   22  H   UNL     1      21.295  46.693  49.653  1.00  0.00     0.190 HD
BRANCH  20  23
HETATM   23  C   UNL     1      20.708  48.576  47.769  1.00  0.00     0.048 A 
HETATM   24  C   UNL     1      20.291  49.877  48.102  1.00  0.00     0.063 A 
HETATM   25  C   UNL     1      19.005  50.293  47.703  1.00  0.00     0.017 A 
HETATM   26  C   UNL     1      18.147  49.434  47.015  1.00  0.00     0.001 A 
HETATM   27  C   UNL     1      18.556  48.140  46.714  1.00  0.00     0.001 A 
HETATM   28  C   UNL     1      19.827  47.713  47.091  1.00  0.00     0.018 A 
BRANCH  24  29
HETATM   29  C   UNL     1      21.159  50.822  48.886  1.00  0.00     0.418 C 
HETATM   30  F   UNL     1      22.245  51.251  48.193  1.00  0.00    -0.166 F 
HETATM   31  F   UNL     1      20.473  51.938  49.261  1.00  0.00    -0.166 F 
HETATM   32  F   UNL     1      21.644  50.285  50.040  1.00  0.00    -0.166 F 
ENDBRANCH  24  29
ENDBRANCH  20  23
ENDBRANCH   2  19
TORSDOF 6
ENDMDL
MODEL 7
REMARK VINA RESULT:      -8.8      8.259     10.265
REMARK  6 active torsions:
REMARK  status: ('A' for Active; 'I' for Inactive)
REMARK    1  A    between atoms: O_2  and  C_3 
REMARK    2  A    between atoms: C_6  and  C_7 
REMARK    3  A    between atoms: C_11  and  C_12 
REMARK       I    between atoms: C_12  and  N_13 
REMARK    4  A    between atoms: N_13  and  N_14 
REMARK       I    between atoms: N_14  and  C_15 
REMARK    5  A    between atoms: C_15  and  C_16 
REMARK    6  A    between atoms: C_17  and  C_18 
ROOT
HETATM    1  C   UNL     1      27.481  42.011  52.331  1.00  0.00     0.288 C 
HETATM    2  N   UNL     1      28.456  41.628  53.223  1.00  0.00    -0.262 N 
HETATM    3  O   UNL     1      26.821  43.038  52.473  1.00  0.00    -0.264 OA
HETATM    4  H   UNL     1      29.055  40.816  53.088  1.00  0.00     0.190 HD
ENDROOT
BRANCH   1   5
HETATM    5  C   UNL     1      27.287  41.105  51.231  1.00  0.00     0.121 A 
HETATM    6  N   UNL     1      26.295  40.167  51.215  1.00  0.00    -0.272 N 
HETATM    7  N   UNL     1      26.285  39.394  50.117  1.00  0.00    -0.174 NA
HETATM    8  H   UNL     1      25.592  40.008  51.932  1.00  0.00     0.189 HD
HETATM    9  C   UNL     1      27.336  39.816  49.395  1.00  0.00     0.089 A 
HETATM   10  C   UNL     1      27.971  40.909  50.048  1.00  0.00     0.071 A 
BRANCH   9  11
HETATM   11  C   UNL     1      27.720  39.183  48.129  1.00  0.00    -0.005 A 
HETATM   12  C   UNL     1      27.426  39.796  46.903  1.00  0.00     0.016 A 
HETATM   13  C   UNL     1      27.790  39.195  45.689  1.00  0.00     0.037 A 
HETATM   14  C   UNL     1      28.451  37.968  45.686  1.00  0.00     0.068 A 
HETATM   15  C   UNL     1      28.741  37.349  46.902  1.00  0.00     0.037 A 
HETATM   16  C   UNL     1      28.380  37.948  48.112  1.00  0.00     0.016 A 
BRANCH  14  17
HETATM   17  O   UNL     1      28.860  37.273  44.582  1.00  0.00    -0.356 OA
HETATM   18  C   UNL     1      30.130  36.639  44.656  1.00  0.00     0.210 C 
ENDBRANCH  14  17
ENDBRANCH   9  11
ENDBRANCH   1   5
BRANCH   2  19
HETATM   19  N   UNL     1      28.687  42.368  54.388  1.00  0.00    -0.263 N 
HETATM   20  C   UNL     1      29.793  43.192  54.379  1.00  0.00     0.271 C 
HETATM   21  O   UNL     1      30.488  43.337  53.375  1.00  0.00    -0.266 OA
HETATM   22  H   UNL     1      28.133  42.114  55.207  1.00  0.00     0.190 HD
BRANCH  20  23
HETATM   23  C   UNL     1      30.194  43.843  55.655  1.00  0.00     0.048 A 
HETATM   24  C   UNL     1      29.592  44.994  56.195  1.00  0.00     0.063 A 
HETATM   25  C   UNL     1      30.079  45.495  57.420  1.00  0.00     0.017 A 
HETATM   26  C   UNL     1      31.149  44.886  58.077  1.00  0.00     0.001 A 
HETATM   27  C   UNL     1      31.757  43.766  57.522  1.00  0.00     0.001 A 
HETATM   28  C   UNL     1      31.284  43.250  56.318  1.00  0.00     0.018 A 
BRANCH  24  29
HETATM   29  C   UNL     1      28.470  45.715  55.501  1.00  0.00     0.418 C 
HETATM   30  F   UNL     1      28.134  46.886  56.102  1.00  0.00    -0.166 F 
HETATM   31  F   UNL     1      28.791  46.019  54.212  1.00  0.00    -0.166 F 
HETATM   32  F   UNL     1      27.319  44.990  55.430  1.00  0.00    -0.166 F 
ENDBRANCH  24  29
ENDBRANCH  20  23
ENDBRANCH   2  19
TORSDOF 6
ENDMDL
MODEL 8
REMARK VINA RESULT:      -8.6      7.393     10.560
REMARK  6 active torsions:
REMARK  status: ('A' for Active; 'I' for Inactive)
REMARK    1  A    between atoms: O_2  and  C_3 
REMARK    2  A    between atoms: C_6  and  C_7 
REMARK    3  A    between atoms: C_11  and  C_12 
REMARK       I    between atoms: C_12  and  N_13 
REMARK    4  A    between atoms: N_13  and  N_14 
REMARK       I    between atoms: N_14  and  C_15 
REMARK    5  A    between atoms: C_15  and  C_16 
REMARK    6  A    between atoms: C_17  and  C_18 
ROOT
HETATM    1  C   UNL     1      27.866  40.778  51.655  1.00  0.00     0.288 C 
HETATM    2  N   UNL     1      26.933  41.768  51.863  1.00  0.00    -0.262 N 
HETATM    3  O   UNL     1      28.789  40.564  52.437  1.00  0.00    -0.264 OA
HETATM    4  H   UNL     1      26.126  41.917  51.260  1.00  0.00     0.190 HD
ENDROOT
BRANCH   1   5
HETATM    5  C   UNL     1      27.679  40.026  50.443  1.00  0.00     0.121 A 
HETATM    6  N   UNL     1      26.735  39.046  50.322  1.00  0.00    -0.272 N 
HETATM    7  N   UNL     1      26.726  38.437  49.126  1.00  0.00    -0.174 NA
HETATM    8  H   UNL     1      26.067  38.750  51.028  1.00  0.00     0.189 HD
HETATM    9  C   UNL     1      27.728  39.012  48.441  1.00  0.00     0.089 A 
HETATM   10  C   UNL     1      28.329  40.036  49.226  1.00  0.00     0.071 A 
BRANCH   9  11
HETATM   11  C   UNL     1      28.098  38.587  47.088  1.00  0.00    -0.005 A 
HETATM   12  C   UNL     1      28.768  37.374  46.876  1.00  0.00     0.016 A 
HETATM   13  C   UNL     1      29.123  36.963  45.583  1.00  0.00     0.037 A 
HETATM   14  C   UNL     1      28.819  37.763  44.483  1.00  0.00     0.068 A 
HETATM   15  C   UNL     1      28.159  38.975  44.688  1.00  0.00     0.037 A 
HETATM   16  C   UNL     1      27.801  39.385  45.976  1.00  0.00     0.016 A 
BRANCH  14  17
HETATM   17  O   UNL     1      29.108  37.487  43.176  1.00  0.00    -0.356 OA
HETATM   18  C   UNL     1      28.954  38.551  42.246  1.00  0.00     0.210 C 
ENDBRANCH  14  17
ENDBRANCH   9  11
ENDBRANCH   1   5
BRANCH   2  19
HETATM   19  N   UNL     1      27.046  42.636  52.954  1.00  0.00    -0.263 N 
HETATM   20  C   UNL     1      27.721  43.817  52.730  1.00  0.00     0.271 C 
HETATM   21  O   UNL     1      28.125  44.133  51.611  1.00  0.00    -0.266 OA
HETATM   22  H   UNL     1      26.782  42.259  53.866  1.00  0.00     0.190 HD
BRANCH  20  23
HETATM   23  C   UNL     1      28.040  44.678  53.899  1.00  0.00     0.048 A 
HETATM   24  C   UNL     1      29.127  44.482  54.771  1.00  0.00     0.063 A 
HETATM   25  C   UNL     1      29.305  45.387  55.837  1.00  0.00     0.017 A 
HETATM   26  C   UNL     1      28.416  46.441  56.048  1.00  0.00     0.001 A 
HETATM   27  C   UNL     1      27.328  46.611  55.200  1.00  0.00     0.001 A 
HETATM   28  C   UNL     1      27.140  45.734  54.134  1.00  0.00     0.018 A 
BRANCH  24  29
HETATM   29  C   UNL     1      30.083  43.333  54.615  1.00  0.00     0.418 C 
HETATM   30  F   UNL     1      30.615  43.244  53.369  1.00  0.00    -0.166 F 
HETATM   31  F   UNL     1      31.133  43.433  55.478  1.00  0.00    -0.166 F 
HETATM   32  F   UNL     1      29.520  42.118  54.865  1.00  0.00    -0.166 F 
ENDBRANCH  24  29
ENDBRANCH  20  23
ENDBRANCH   2  19
TORSDOF 6
ENDMDL
MODEL 9
REMARK VINA RESULT:      -8.4      2.648      3.462
REMARK  6 active torsions:
REMARK  status: ('A' for Active; 'I' for Inactive)
REMARK    1  A    between atoms: O_2  and  C_3 
REMARK    2  A    between atoms: C_6  and  C_7 
REMARK    3  A    between atoms: C_11  and  C_12 
REMARK       I    between atoms: C_12  and  N_13 
REMARK    4  A    between atoms: N_13  and  N_14 
REMARK       I    between atoms: N_14  and  C_15 
REMARK    5  A    between atoms: C_15  and  C_16 
REMARK    6  A    between atoms: C_17  and  C_18 
ROOT
HETATM    1  C   UNL     1      26.306  44.723  50.161  1.00  0.00     0.288 C 
HETATM    2  N   UNL     1      26.330  45.074  51.492  1.00  0.00    -0.262 N 
HETATM    3  O   UNL     1      27.269  44.213  49.594  1.00  0.00    -0.264 OA
HETATM    4  H   UNL     1      25.522  45.437  51.993  1.00  0.00     0.190 HD
ENDROOT
BRANCH   1   5
HETATM    5  C   UNL     1      25.069  45.015  49.488  1.00  0.00     0.121 A 
HETATM    6  N   UNL     1      24.566  44.225  48.494  1.00  0.00    -0.272 N 
HETATM    7  N   UNL     1      23.415  44.671  47.966  1.00  0.00    -0.174 NA
HETATM    8  H   UNL     1      24.971  43.366  48.133  1.00  0.00     0.189 HD
HETATM    9  C   UNL     1      23.166  45.821  48.614  1.00  0.00     0.089 A 
HETATM   10  C   UNL     1      24.166  46.054  49.597  1.00  0.00     0.071 A 
BRANCH   9  11
HETATM   11  C   UNL     1      22.013  46.667  48.290  1.00  0.00    -0.005 A 
HETATM   12  C   UNL     1      22.101  48.063  48.376  1.00  0.00     0.016 A 
HETATM   13  C   UNL     1      21.001  48.876  48.068  1.00  0.00     0.037 A 
HETATM   14  C   UNL     1      19.793  48.303  47.674  1.00  0.00     0.068 A 
HETATM   15  C   UNL     1      19.696  46.914  47.594  1.00  0.00     0.037 A 
HETATM   16  C   UNL     1      20.793  46.101  47.898  1.00  0.00     0.016 A 
BRANCH  14  17
HETATM   17  O   UNL     1      18.647  48.973  47.349  1.00  0.00    -0.356 OA
HETATM   18  C   UNL     1      18.748  49.963  46.334  1.00  0.00     0.210 C 
ENDBRANCH  14  17
ENDBRANCH   9  11
ENDBRANCH   1   5
BRANCH   2  19
HETATM   19  N   UNL     1      27.500  44.930  52.246  1.00  0.00    -0.263 N 
HETATM   20  C   UNL     1      27.369  44.294  53.462  1.00  0.00     0.271 C 
HETATM   21  O   UNL     1      26.303  43.801  53.827  1.00  0.00    -0.266 OA
HETATM   22  H   UNL     1      28.316  45.455  51.927  1.00  0.00     0.190 HD
BRANCH  20  23
HETATM   23  C   UNL     1      28.536  44.294  54.384  1.00  0.00     0.048 A 
HETATM   24  C   UNL     1      28.832  45.312  55.309  1.00  0.00     0.063 A 
HETATM   25  C   UNL     1      29.974  45.169  56.123  1.00  0.00     0.017 A 
HETATM   26  C   UNL     1      30.813  44.060  56.005  1.00  0.00     0.001 A 
HETATM   27  C   UNL     1      30.529  43.072  55.070  1.00  0.00     0.001 A 
HETATM   28  C   UNL     1      29.399  43.190  54.263  1.00  0.00     0.018 A 
BRANCH  24  29
HETATM   29  C   UNL     1      27.988  46.549  55.438  1.00  0.00     0.418 C 
HETATM   30  F   UNL     1      27.965  47.053  56.699  1.00  0.00    -0.166 F 
HETATM   31  F   UNL     1      28.437  47.550  54.629  1.00  0.00    -0.166 F 
HETATM   32  F   UNL     1      26.684  46.358  55.092  1.00  0.00    -0.166 F 
ENDBRANCH  24  29
ENDBRANCH  20  23
ENDBRANCH   2  19
TORSDOF 6
ENDMDL
MODEL 10
REMARK VINA RESULT:      -8.3      7.712     11.086
REMARK  6 active torsions:
REMARK  status: ('A' for Active; 'I' for Inactive)
REMARK    1  A    between atoms: O_2  and  C_3 
REMARK    2  A    between atoms: C_6  and  C_7 
REMARK    3  A    between atoms: C_11  and  C_12 
REMARK       I    between atoms: C_12  and  N_13 
REMARK    4  A    between atoms: N_13  and  N_14 
REMARK       I    between atoms: N_14  and  C_15 
REMARK    5  A    between atoms: C_15  and  C_16 
REMARK    6  A    between atoms: C_17  and  C_18 
ROOT
HETATM    1  C   UNL     1      28.137  41.427  50.826  1.00  0.00     0.288 C 
HETATM    2  N   UNL     1      29.182  41.244  51.702  1.00  0.00    -0.262 N 
HETATM    3  O   UNL     1      27.578  42.511  50.681  1.00  0.00    -0.264 OA
HETATM    4  H   UNL     1      29.698  40.371  51.789  1.00  0.00     0.190 HD
ENDROOT
BRANCH   1   5
HETATM    5  C   UNL     1      27.743  40.244  50.110  1.00  0.00     0.121 A 
HETATM    6  N   UNL     1      26.705  39.451  50.511  1.00  0.00    -0.272 N 
HETATM    7  N   UNL     1      26.502  38.376  49.732  1.00  0.00    -0.174 NA
HETATM    8  H   UNL     1      26.100  39.597  51.313  1.00  0.00     0.189 HD
HETATM    9  C   UNL     1      27.467  38.443  48.800  1.00  0.00     0.089 A 
HETATM   10  C   UNL     1      28.246  39.618  48.988  1.00  0.00     0.071 A 
BRANCH   9  11
HETATM   11  C   UNL     1      27.637  37.409  47.775  1.00  0.00    -0.005 A 
HETATM   12  C   UNL     1      26.732  36.343  47.673  1.00  0.00     0.016 A 
HETATM   13  C   UNL     1      26.891  35.352  46.694  1.00  0.00     0.037 A 
HETATM   14  C   UNL     1      27.963  35.410  45.805  1.00  0.00     0.068 A 
HETATM   15  C   UNL     1      28.872  36.463  45.905  1.00  0.00     0.037 A 
HETATM   16  C   UNL     1      28.713  37.454  46.879  1.00  0.00     0.016 A 
BRANCH  14  17
HETATM   17  O   UNL     1      28.238  34.514  44.810  1.00  0.00    -0.356 OA
HETATM   18  C   UNL     1      29.596  34.397  44.408  1.00  0.00     0.210 C 
ENDBRANCH  14  17
ENDBRANCH   9  11
ENDBRANCH   1   5
BRANCH   2  19
HETATM   19  N   UNL     1      29.609  42.288  52.531  1.00  0.00    -0.263 N 
HETATM   20  C   UNL     1      29.134  42.274  53.825  1.00  0.00     0.271 C 
HETATM   21  O   UNL     1      28.445  41.350  54.255  1.00  0.00    -0.266 OA
HETATM   22  H   UNL     1      30.087  43.066  52.075  1.00  0.00     0.190 HD
BRANCH  20  23
HETATM   23  C   UNL     1      29.394  43.461  54.683  1.00  0.00     0.048 A 
HETATM   24  C   UNL     1      28.555  44.586  54.777  1.00  0.00     0.063 A 
HETATM   25  C   UNL     1      28.933  45.635  55.640  1.00  0.00     0.017 A 
HETATM   26  C   UNL     1      30.122  45.581  56.368  1.00  0.00     0.001 A 
HETATM   27  C   UNL     1      30.960  44.479  56.248  1.00  0.00     0.001 A 
HETATM   28  C   UNL     1      30.599  43.427  55.409  1.00  0.00     0.018 A 
BRANCH  24  29
HETATM   29  C   UNL     1      27.290  44.713  53.976  1.00  0.00     0.418 C 
HETATM   30  F   UNL     1      26.427  43.683  54.170  1.00  0.00    -0.166 F 
HETATM   31  F   UNL     1      26.610  45.852  54.288  1.00  0.00    -0.166 F 
HETATM   32  F   UNL     1      27.501  44.771  52.631  1.00  0.00    -0.166 F 
ENDBRANCH  24  29
ENDBRANCH  20  23
ENDBRANCH   2  19
TORSDOF 6
ENDMDL
