MODEL 1
REMARK VINA RESULT:      -9.4      0.000      0.000
REMARK  2 active torsions:
REMARK  status: ('A' for Active; 'I' for Inactive)
REMARK       I    between atoms: N_8  and  C_9 
REMARK    1  A    between atoms: C_9  and  C_10 
REMARK    2  A    between atoms: N_12  and  C_13 
ROOT
HETATM    1  C   UNL     1      27.706  48.071  49.446  1.00  0.00     0.021 C 
HETATM    2  C   UNL     1      26.344  47.604  49.955  1.00  0.00     0.087 C 
HETATM    3  C   UNL     1      25.237  48.526  49.454  1.00  0.00     0.207 C 
HETATM    4  O   UNL     1      25.392  49.376  48.586  1.00  0.00    -0.279 OA
HETATM    5  N   UNL     1      24.007  48.246  50.039  1.00  0.00    -0.227 NA
HETATM    6  C   UNL     1      23.258  47.249  49.354  1.00  0.00     0.042 A 
HETATM    7  C   UNL     1      23.603  45.890  49.508  1.00  0.00     0.059 A 
HETATM    8  N   UNL     1      24.866  45.543  50.101  1.00  0.00    -0.309 N 
HETATM    9  C   UNL     1      24.963  44.455  50.999  1.00  0.00     0.298 C 
HETATM   10  O   UNL     1      23.988  43.764  51.303  1.00  0.00    -0.264 OA
HETATM   11  C   UNL     1      26.039  46.187  49.453  1.00  0.00     0.145 C 
HETATM   12  C   UNL     1      22.109  47.634  48.665  1.00  0.00     0.026 A 
HETATM   13  C   UNL     1      21.273  46.654  48.133  1.00  0.00     0.002 A 
HETATM   14  C   UNL     1      21.580  45.304  48.307  1.00  0.00     0.002 A 
HETATM   15  C   UNL     1      22.738  44.920  48.993  1.00  0.00     0.031 A 
HETATM   16  H   UNL     1      24.190  47.877  50.970  1.00  0.00     0.136 HD
ENDROOT
BRANCH   9  17
HETATM   17  C   UNL     1      26.281  44.202  51.643  1.00  0.00     0.239 A 
HETATM   18  N   UNL     1      26.625  44.751  52.821  1.00  0.00    -0.140 NA
HETATM   19  N   UNL     1      27.890  44.318  53.015  1.00  0.00    -0.225 N 
HETATM   20  C   UNL     1      28.266  43.535  51.953  1.00  0.00     0.237 A 
HETATM   21  N   UNL     1      27.291  43.446  51.077  1.00  0.00    -0.216 NA
BRANCH  19  22
HETATM   22  C   UNL     1      28.632  44.668  54.173  1.00  0.00     0.059 A 
HETATM   23  C   UNL     1      29.675  43.830  54.601  1.00  0.00     0.031 A 
HETATM   24  C   UNL     1      30.418  44.155  55.737  1.00  0.00     0.002 A 
HETATM   25  C   UNL     1      30.130  45.317  56.449  1.00  0.00     0.000 A 
HETATM   26  C   UNL     1      29.097  46.155  56.029  1.00  0.00     0.002 A 
HETATM   27  C   UNL     1      28.346  45.835  54.894  1.00  0.00     0.031 A 
ENDBRANCH  19  22
ENDBRANCH   9  17
TORSDOF 2
ENDMDL
MODEL 2
REMARK VINA RESULT:      -9.4      2.311      7.385
REMARK  2 active torsions:
REMARK  status: ('A' for Active; 'I' for Inactive)
REMARK       I    between atoms: N_8  and  C_9 
REMARK    1  A    between atoms: C_9  and  C_10 
REMARK    2  A    between atoms: N_12  and  C_13 
ROOT
HETATM    1  C   UNL     1      26.131  47.511  54.472  1.00  0.00     0.021 C 
HETATM    2  C   UNL     1      26.973  46.554  53.632  1.00  0.00     0.087 C 
HETATM    3  C   UNL     1      27.752  45.595  54.526  1.00  0.00     0.207 C 
HETATM    4  O   UNL     1      27.553  45.462  55.728  1.00  0.00    -0.279 OA
HETATM    5  N   UNL     1      28.667  44.829  53.813  1.00  0.00    -0.227 NA
HETATM    6  C   UNL     1      28.122  43.626  53.283  1.00  0.00     0.042 A 
HETATM    7  C   UNL     1      27.315  43.678  52.126  1.00  0.00     0.059 A 
HETATM    8  N   UNL     1      26.810  44.946  51.672  1.00  0.00    -0.309 N 
HETATM    9  C   UNL     1      26.763  45.246  50.291  1.00  0.00     0.298 C 
HETATM   10  O   UNL     1      27.140  44.448  49.431  1.00  0.00    -0.264 OA
HETATM   11  C   UNL     1      26.077  45.715  52.711  1.00  0.00     0.145 C 
HETATM   12  C   UNL     1      28.522  42.412  53.836  1.00  0.00     0.026 A 
HETATM   13  C   UNL     1      28.132  41.222  53.224  1.00  0.00     0.002 A 
HETATM   14  C   UNL     1      27.364  41.255  52.058  1.00  0.00     0.002 A 
HETATM   15  C   UNL     1      26.959  42.477  51.508  1.00  0.00     0.031 A 
HETATM   16  H   UNL     1      28.971  45.382  53.014  1.00  0.00     0.136 HD
ENDROOT
BRANCH   9  17
HETATM   17  C   UNL     1      26.309  46.607  49.892  1.00  0.00     0.239 A 
HETATM   18  N   UNL     1      25.011  46.913  49.723  1.00  0.00    -0.140 NA
HETATM   19  N   UNL     1      25.040  48.202  49.318  1.00  0.00    -0.225 N 
HETATM   20  C   UNL     1      26.344  48.623  49.250  1.00  0.00     0.237 A 
HETATM   21  N   UNL     1      27.161  47.654  49.594  1.00  0.00    -0.216 NA
BRANCH  19  22
HETATM   22  C   UNL     1      23.852  48.926  49.037  1.00  0.00     0.059 A 
HETATM   23  C   UNL     1      23.940  50.281  48.683  1.00  0.00     0.031 A 
HETATM   24  C   UNL     1      22.784  51.012  48.402  1.00  0.00     0.002 A 
HETATM   25  C   UNL     1      21.537  50.395  48.467  1.00  0.00     0.000 A 
HETATM   26  C   UNL     1      21.442  49.049  48.816  1.00  0.00     0.002 A 
HETATM   27  C   UNL     1      22.594  48.310  49.103  1.00  0.00     0.031 A 
ENDBRANCH  19  22
ENDBRANCH   9  17
TORSDOF 2
ENDMDL
MODEL 3
REMARK VINA RESULT:      -9.3      2.093      7.710
REMARK  2 active torsions:
REMARK  status: ('A' for Active; 'I' for Inactive)
REMARK       I    between atoms: N_8  and  C_9 
REMARK    1  A    between atoms: C_9  and  C_10 
REMARK    2  A    between atoms: N_12  and  C_13 
ROOT
HETATM    1  C   UNL     1      26.997  42.343  49.031  1.00  0.00     0.021 C 
HETATM    2  C   UNL     1      26.816  42.642  50.517  1.00  0.00     0.087 C 
HETATM    3  C   UNL     1      27.562  41.620  51.367  1.00  0.00     0.207 C 
HETATM    4  O   UNL     1      28.374  40.817  50.922  1.00  0.00    -0.279 OA
HETATM    5  N   UNL     1      27.277  41.746  52.722  1.00  0.00    -0.227 NA
HETATM    6  C   UNL     1      28.114  42.674  53.402  1.00  0.00     0.042 A 
HETATM    7  C   UNL     1      27.881  44.058  53.259  1.00  0.00     0.059 A 
HETATM    8  N   UNL     1      27.010  44.524  52.213  1.00  0.00    -0.309 N 
HETATM    9  C   UNL     1      26.111  45.590  52.449  1.00  0.00     0.298 C 
HETATM   10  O   UNL     1      26.039  46.160  53.540  1.00  0.00    -0.264 OA
HETATM   11  C   UNL     1      27.370  44.032  50.857  1.00  0.00     0.145 C 
HETATM   12  C   UNL     1      29.051  42.186  54.311  1.00  0.00     0.026 A 
HETATM   13  C   UNL     1      29.760  43.083  55.108  1.00  0.00     0.002 A 
HETATM   14  C   UNL     1      29.515  44.453  55.004  1.00  0.00     0.002 A 
HETATM   15  C   UNL     1      28.578  44.941  54.087  1.00  0.00     0.031 A 
HETATM   16  H   UNL     1      26.328  42.105  52.801  1.00  0.00     0.136 HD
ENDROOT
BRANCH   9  17
HETATM   17  C   UNL     1      25.178  45.967  51.352  1.00  0.00     0.239 A 
HETATM   18  N   UNL     1      25.077  47.227  50.893  1.00  0.00    -0.140 NA
HETATM   19  N   UNL     1      24.102  47.147  49.961  1.00  0.00    -0.225 N 
HETATM   20  C   UNL     1      23.648  45.855  49.895  1.00  0.00     0.237 A 
HETATM   21  N   UNL     1      24.290  45.094  50.751  1.00  0.00    -0.216 NA
BRANCH  19  22
HETATM   22  C   UNL     1      23.688  48.279  49.212  1.00  0.00     0.059 A 
HETATM   23  C   UNL     1      24.646  49.219  48.801  1.00  0.00     0.031 A 
HETATM   24  C   UNL     1      24.260  50.340  48.062  1.00  0.00     0.002 A 
HETATM   25  C   UNL     1      22.921  50.526  47.726  1.00  0.00     0.000 A 
HETATM   26  C   UNL     1      21.964  49.595  48.130  1.00  0.00     0.002 A 
HETATM   27  C   UNL     1      22.342  48.472  48.872  1.00  0.00     0.031 A 
ENDBRANCH  19  22
ENDBRANCH   9  17
TORSDOF 2
ENDMDL
MODEL 4
REMARK VINA RESULT:      -9.2      3.374      8.265
REMARK  2 active torsions:
REMARK  status: ('A' for Active; 'I' for Inactive)
REMARK       I    between atoms: N_8  and  C_9 
REMARK    1  A    between atoms: C_9  and  C_10 
REMARK    2  A    between atoms: N_12  and  C_13 
ROOT
HETATM    1  C   UNL     1      21.060  45.120  47.668  1.00  0.00     0.021 C 
HETATM    2  C   UNL     1      22.035  45.362  48.818  1.00  0.00     0.087 C 
HETATM    3  C   UNL     1      22.374  44.052  49.521  1.00  0.00     0.207 C 
HETATM    4  O   UNL     1      22.087  42.944  49.084  1.00  0.00    -0.279 OA
HETATM    5  N   UNL     1      23.113  44.248  50.682  1.00  0.00    -0.227 NA
HETATM    6  C   UNL     1      24.518  44.302  50.467  1.00  0.00     0.042 A 
HETATM    7  C   UNL     1      25.098  45.475  49.940  1.00  0.00     0.059 A 
HETATM    8  N   UNL     1      24.253  46.480  49.352  1.00  0.00    -0.309 N 
HETATM    9  C   UNL     1      24.515  47.853  49.566  1.00  0.00     0.298 C 
HETATM   10  O   UNL     1      25.466  48.243  50.248  1.00  0.00    -0.264 OA
HETATM   11  C   UNL     1      23.345  45.967  48.294  1.00  0.00     0.145 C 
HETATM   12  C   UNL     1      25.303  43.245  50.923  1.00  0.00     0.026 A 
HETATM   13  C   UNL     1      26.692  43.357  50.874  1.00  0.00     0.002 A 
HETATM   14  C   UNL     1      27.282  44.525  50.389  1.00  0.00     0.002 A 
HETATM   15  C   UNL     1      26.491  45.582  49.926  1.00  0.00     0.031 A 
HETATM   16  H   UNL     1      22.847  45.154  51.063  1.00  0.00     0.136 HD
ENDROOT
BRANCH   9  17
HETATM   17  C   UNL     1      23.554  48.839  49.001  1.00  0.00     0.239 A 
HETATM   18  N   UNL     1      22.395  49.146  49.609  1.00  0.00    -0.140 NA
HETATM   19  N   UNL     1      21.812  50.018  48.757  1.00  0.00    -0.225 N 
HETATM   20  C   UNL     1      22.629  50.201  47.671  1.00  0.00     0.237 A 
HETATM   21  N   UNL     1      23.719  49.478  47.786  1.00  0.00    -0.216 NA
BRANCH  19  22
HETATM   22  C   UNL     1      20.550  50.607  49.036  1.00  0.00     0.059 A 
HETATM   23  C   UNL     1      19.670  49.960  49.917  1.00  0.00     0.031 A 
HETATM   24  C   UNL     1      18.425  50.522  50.206  1.00  0.00     0.002 A 
HETATM   25  C   UNL     1      18.053  51.731  49.622  1.00  0.00     0.000 A 
HETATM   26  C   UNL     1      18.923  52.379  48.746  1.00  0.00     0.002 A 
HETATM   27  C   UNL     1      20.171  51.822  48.450  1.00  0.00     0.031 A 
ENDBRANCH  19  22
ENDBRANCH   9  17
TORSDOF 2
ENDMDL
MODEL 5
REMARK VINA RESULT:      -9.1      2.343      4.348
REMARK  2 active torsions:
REMARK  status: ('A' for Active; 'I' for Inactive)
REMARK       I    between atoms: N_8  and  C_9 
REMARK    1  A    between atoms: C_9  and  C_10 
REMARK    2  A    between atoms: N_12  and  C_13 
ROOT
HETATM    1  C   UNL     1      27.785  41.841  53.473  1.00  0.00     0.021 C 
HETATM    2  C   UNL     1      27.538  42.975  52.481  1.00  0.00     0.087 C 
HETATM    3  C   UNL     1      27.271  42.422  51.086  1.00  0.00     0.207 C 
HETATM    4  O   UNL     1      27.059  41.239  50.846  1.00  0.00    -0.279 OA
HETATM    5  N   UNL     1      27.221  43.419  50.119  1.00  0.00    -0.227 NA
HETATM    6  C   UNL     1      25.931  43.996  49.954  1.00  0.00     0.042 A 
HETATM    7  C   UNL     1      25.462  44.934  50.898  1.00  0.00     0.059 A 
HETATM    8  N   UNL     1      26.145  45.075  52.156  1.00  0.00    -0.309 N 
HETATM    9  C   UNL     1      26.336  46.353  52.729  1.00  0.00     0.298 C 
HETATM   10  O   UNL     1      25.928  47.384  52.190  1.00  0.00    -0.264 OA
HETATM   11  C   UNL     1      26.314  43.800  52.902  1.00  0.00     0.145 C 
HETATM   12  C   UNL     1      25.226  43.729  48.782  1.00  0.00     0.026 A 
HETATM   13  C   UNL     1      24.041  44.416  48.529  1.00  0.00     0.002 A 
HETATM   14  C   UNL     1      23.580  45.374  49.434  1.00  0.00     0.002 A 
HETATM   15  C   UNL     1      24.287  45.635  50.613  1.00  0.00     0.031 A 
HETATM   16  H   UNL     1      27.834  44.171  50.426  1.00  0.00     0.136 HD
ENDROOT
BRANCH   9  17
HETATM   17  C   UNL     1      27.125  46.438  53.989  1.00  0.00     0.239 A 
HETATM   18  N   UNL     1      28.095  45.558  54.292  1.00  0.00    -0.140 NA
HETATM   19  N   UNL     1      28.509  45.954  55.517  1.00  0.00    -0.225 N 
HETATM   20  C   UNL     1      27.777  47.045  55.909  1.00  0.00     0.237 A 
HETATM   21  N   UNL     1      26.902  47.370  54.985  1.00  0.00    -0.216 NA
BRANCH  19  22
HETATM   22  C   UNL     1      29.554  45.284  56.206  1.00  0.00     0.059 A 
HETATM   23  C   UNL     1      29.903  45.703  57.500  1.00  0.00     0.031 A 
HETATM   24  C   UNL     1      30.925  45.057  58.197  1.00  0.00     0.002 A 
HETATM   25  C   UNL     1      31.602  43.990  57.611  1.00  0.00     0.000 A 
HETATM   26  C   UNL     1      31.260  43.567  56.328  1.00  0.00     0.002 A 
HETATM   27  C   UNL     1      30.238  44.210  55.621  1.00  0.00     0.031 A 
ENDBRANCH  19  22
ENDBRANCH   9  17
TORSDOF 2
ENDMDL
MODEL 6
REMARK VINA RESULT:      -9.0      3.115      4.659
REMARK  2 active torsions:
REMARK  status: ('A' for Active; 'I' for Inactive)
REMARK       I    between atoms: N_8  and  C_9 
REMARK    1  A    between atoms: C_9  and  C_10 
REMARK    2  A    between atoms: N_12  and  C_13 
ROOT
HETATM    1  C   UNL     1      28.648  39.594  50.515  1.00  0.00     0.021 C 
HETATM    2  C   UNL     1      28.035  40.941  50.141  1.00  0.00     0.087 C 
HETATM    3  C   UNL     1      27.227  40.827  48.854  1.00  0.00     0.207 C 
HETATM    4  O   UNL     1      26.926  39.764  48.324  1.00  0.00    -0.279 OA
HETATM    5  N   UNL     1      26.804  42.063  48.380  1.00  0.00    -0.227 NA
HETATM    6  C   UNL     1      25.561  42.492  48.924  1.00  0.00     0.042 A 
HETATM    7  C   UNL     1      25.517  43.016  50.233  1.00  0.00     0.059 A 
HETATM    8  N   UNL     1      26.648  42.839  51.105  1.00  0.00    -0.309 N 
HETATM    9  C   UNL     1      27.064  43.885  51.961  1.00  0.00     0.298 C 
HETATM   10  O   UNL     1      26.483  44.972  52.002  1.00  0.00    -0.264 OA
HETATM   11  C   UNL     1      27.090  41.428  51.248  1.00  0.00     0.145 C 
HETATM   12  C   UNL     1      24.443  42.520  48.092  1.00  0.00     0.026 A 
HETATM   13  C   UNL     1      23.262  43.095  48.557  1.00  0.00     0.002 A 
HETATM   14  C   UNL     1      23.211  43.651  49.837  1.00  0.00     0.002 A 
HETATM   15  C   UNL     1      24.333  43.615  50.672  1.00  0.00     0.031 A 
HETATM   16  H   UNL     1      27.495  42.753  48.668  1.00  0.00     0.136 HD
ENDROOT
BRANCH   9  17
HETATM   17  C   UNL     1      28.292  43.668  52.774  1.00  0.00     0.239 A 
HETATM   18  N   UNL     1      28.436  44.176  54.011  1.00  0.00    -0.140 NA
HETATM   19  N   UNL     1      29.685  43.800  54.364  1.00  0.00    -0.225 N 
HETATM   20  C   UNL     1      30.250  43.091  53.334  1.00  0.00     0.237 A 
HETATM   21  N   UNL     1      29.413  42.995  52.326  1.00  0.00    -0.216 NA
BRANCH  19  22
HETATM   22  C   UNL     1      30.237  44.129  55.629  1.00  0.00     0.059 A 
HETATM   23  C   UNL     1      29.845  45.320  56.261  1.00  0.00     0.031 A 
HETATM   24  C   UNL     1      30.374  45.662  57.507  1.00  0.00     0.002 A 
HETATM   25  C   UNL     1      31.292  44.820  58.130  1.00  0.00     0.000 A 
HETATM   26  C   UNL     1      31.685  43.636  57.509  1.00  0.00     0.002 A 
HETATM   27  C   UNL     1      31.162  43.286  56.260  1.00  0.00     0.031 A 
ENDBRANCH  19  22
ENDBRANCH   9  17
TORSDOF 2
ENDMDL
MODEL 7
REMARK VINA RESULT:      -8.9      2.433      3.215
REMARK  2 active torsions:
REMARK  status: ('A' for Active; 'I' for Inactive)
REMARK       I    between atoms: N_8  and  C_9 
REMARK    1  A    between atoms: C_9  and  C_10 
REMARK    2  A    between atoms: N_12  and  C_13 
ROOT
HETATM    1  C   UNL     1      26.835  46.919  51.856  1.00  0.00     0.021 C 
HETATM    2  C   UNL     1      26.143  45.560  51.935  1.00  0.00     0.087 C 
HETATM    3  C   UNL     1      24.713  45.653  51.414  1.00  0.00     0.207 C 
HETATM    4  O   UNL     1      24.263  46.620  50.810  1.00  0.00    -0.279 OA
HETATM    5  N   UNL     1      23.990  44.487  51.636  1.00  0.00    -0.227 NA
HETATM    6  C   UNL     1      24.126  43.520  50.600  1.00  0.00     0.042 A 
HETATM    7  C   UNL     1      25.298  42.740  50.525  1.00  0.00     0.059 A 
HETATM    8  N   UNL     1      26.453  43.121  51.294  1.00  0.00    -0.309 N 
HETATM    9  C   UNL     1      27.247  42.140  51.931  1.00  0.00     0.298 C 
HETATM   10  O   UNL     1      26.994  40.936  51.852  1.00  0.00    -0.264 OA
HETATM   11  C   UNL     1      26.888  44.526  51.080  1.00  0.00     0.145 C 
HETATM   12  C   UNL     1      23.031  43.269  49.775  1.00  0.00     0.026 A 
HETATM   13  C   UNL     1      23.090  42.211  48.869  1.00  0.00     0.002 A 
HETATM   14  C   UNL     1      24.229  41.406  48.807  1.00  0.00     0.002 A 
HETATM   15  C   UNL     1      25.328  41.665  49.633  1.00  0.00     0.031 A 
HETATM   16  H   UNL     1      24.359  44.055  52.480  1.00  0.00     0.136 HD
ENDROOT
BRANCH   9  17
HETATM   17  C   UNL     1      28.377  42.606  52.781  1.00  0.00     0.239 A 
HETATM   18  N   UNL     1      28.187  43.310  53.910  1.00  0.00    -0.140 NA
HETATM   19  N   UNL     1      29.443  43.573  54.335  1.00  0.00    -0.225 N 
HETATM   20  C   UNL     1      30.340  43.029  53.451  1.00  0.00     0.237 A 
HETATM   21  N   UNL     1      29.712  42.425  52.468  1.00  0.00    -0.216 NA
BRANCH  19  22
HETATM   22  C   UNL     1      29.694  44.300  55.527  1.00  0.00     0.059 A 
HETATM   23  C   UNL     1      30.758  43.915  56.357  1.00  0.00     0.031 A 
HETATM   24  C   UNL     1      31.023  44.617  57.534  1.00  0.00     0.002 A 
HETATM   25  C   UNL     1      30.233  45.708  57.887  1.00  0.00     0.000 A 
HETATM   26  C   UNL     1      29.174  46.098  57.068  1.00  0.00     0.002 A 
HETATM   27  C   UNL     1      28.900  45.398  55.888  1.00  0.00     0.031 A 
ENDBRANCH  19  22
ENDBRANCH   9  17
TORSDOF 2
ENDMDL
MODEL 8
REMARK VINA RESULT:      -8.9      1.392      2.059
REMARK  2 active torsions:
REMARK  status: ('A' for Active; 'I' for Inactive)
REMARK       I    between atoms: N_8  and  C_9 
REMARK    1  A    between atoms: C_9  and  C_10 
REMARK    2  A    between atoms: N_12  and  C_13 
ROOT
HETATM    1  C   UNL     1      25.974  48.272  49.949  1.00  0.00     0.021 C 
HETATM    2  C   UNL     1      24.717  47.405  49.974  1.00  0.00     0.087 C 
HETATM    3  C   UNL     1      23.690  47.917  48.969  1.00  0.00     0.207 C 
HETATM    4  O   UNL     1      23.930  48.756  48.109  1.00  0.00    -0.279 OA
HETATM    5  N   UNL     1      22.465  47.271  49.086  1.00  0.00    -0.227 NA
HETATM    6  C   UNL     1      22.370  46.075  48.321  1.00  0.00     0.042 A 
HETATM    7  C   UNL     1      22.996  44.899  48.786  1.00  0.00     0.059 A 
HETATM    8  N   UNL     1      23.959  44.984  49.852  1.00  0.00    -0.309 N 
HETATM    9  C   UNL     1      23.994  44.000  50.867  1.00  0.00     0.298 C 
HETATM   10  O   UNL     1      23.219  43.041  50.881  1.00  0.00    -0.264 OA
HETATM   11  C   UNL     1      25.056  45.955  49.604  1.00  0.00     0.145 C 
HETATM   12  C   UNL     1      21.535  46.061  47.206  1.00  0.00     0.026 A 
HETATM   13  C   UNL     1      21.298  44.856  46.546  1.00  0.00     0.002 A 
HETATM   14  C   UNL     1      21.881  43.677  47.015  1.00  0.00     0.002 A 
HETATM   15  C   UNL     1      22.724  43.695  48.131  1.00  0.00     0.031 A 
HETATM   16  H   UNL     1      22.357  46.997  50.060  1.00  0.00     0.136 HD
ENDROOT
BRANCH   9  17
HETATM   17  C   UNL     1      24.956  44.192  51.986  1.00  0.00     0.239 A 
HETATM   18  N   UNL     1      26.207  43.700  51.954  1.00  0.00    -0.140 NA
HETATM   19  N   UNL     1      26.714  44.043  53.159  1.00  0.00    -0.225 N 
HETATM   20  C   UNL     1      25.758  44.718  53.873  1.00  0.00     0.237 A 
HETATM   21  N   UNL     1      24.649  44.824  53.177  1.00  0.00    -0.216 NA
BRANCH  19  22
HETATM   22  C   UNL     1      28.044  43.717  53.532  1.00  0.00     0.059 A 
HETATM   23  C   UNL     1      28.835  42.953  52.660  1.00  0.00     0.031 A 
HETATM   24  C   UNL     1      30.146  42.622  53.007  1.00  0.00     0.002 A 
HETATM   25  C   UNL     1      30.676  43.053  54.221  1.00  0.00     0.000 A 
HETATM   26  C   UNL     1      29.897  43.813  55.091  1.00  0.00     0.002 A 
HETATM   27  C   UNL     1      28.582  44.147  54.753  1.00  0.00     0.031 A 
ENDBRANCH  19  22
ENDBRANCH   9  17
TORSDOF 2
ENDMDL
MODEL 9
REMARK VINA RESULT:      -8.7      3.444      4.910
REMARK  2 active torsions:
REMARK  status: ('A' for Active; 'I' for Inactive)
REMARK       I    between atoms: N_8  and  C_9 
REMARK    1  A    between atoms: C_9  and  C_10 
REMARK    2  A    between atoms: N_12  and  C_13 
ROOT
HETATM    1  C   UNL     1      28.769  40.312  51.798  1.00  0.00     0.021 C 
HETATM    2  C   UNL     1      28.001  41.202  50.822  1.00  0.00     0.087 C 
HETATM    3  C   UNL     1      28.144  40.684  49.395  1.00  0.00     0.207 C 
HETATM    4  O   UNL     1      28.612  39.589  49.106  1.00  0.00    -0.279 OA
HETATM    5  N   UNL     1      27.615  41.561  48.456  1.00  0.00    -0.227 NA
HETATM    6  C   UNL     1      26.227  41.370  48.208  1.00  0.00     0.042 A 
HETATM    7  C   UNL     1      25.281  41.849  49.139  1.00  0.00     0.059 A 
HETATM    8  N   UNL     1      25.717  42.250  50.449  1.00  0.00    -0.309 N 
HETATM    9  C   UNL     1      25.163  43.393  51.072  1.00  0.00     0.298 C 
HETATM   10  O   UNL     1      24.293  44.079  50.532  1.00  0.00    -0.264 OA
HETATM   11  C   UNL     1      26.507  41.217  51.170  1.00  0.00     0.145 C 
HETATM   12  C   UNL     1      25.835  40.845  46.978  1.00  0.00     0.026 A 
HETATM   13  C   UNL     1      24.480  40.809  46.653  1.00  0.00     0.002 A 
HETATM   14  C   UNL     1      23.533  41.312  47.547  1.00  0.00     0.002 A 
HETATM   15  C   UNL     1      23.929  41.832  48.784  1.00  0.00     0.031 A 
HETATM   16  H   UNL     1      27.712  42.503  48.830  1.00  0.00     0.136 HD
ENDROOT
BRANCH   9  17
HETATM   17  C   UNL     1      25.719  43.803  52.390  1.00  0.00     0.239 A 
HETATM   18  N   UNL     1      27.038  43.798  52.650  1.00  0.00    -0.140 NA
HETATM   19  N   UNL     1      27.108  44.177  53.945  1.00  0.00    -0.225 N 
HETATM   20  C   UNL     1      25.839  44.388  54.420  1.00  0.00     0.237 A 
HETATM   21  N   UNL     1      24.949  44.159  53.482  1.00  0.00    -0.216 NA
BRANCH  19  22
HETATM   22  C   UNL     1      28.349  44.313  54.620  1.00  0.00     0.059 A 
HETATM   23  C   UNL     1      29.305  43.291  54.514  1.00  0.00     0.031 A 
HETATM   24  C   UNL     1      30.533  43.405  55.169  1.00  0.00     0.002 A 
HETATM   25  C   UNL     1      30.816  44.539  55.927  1.00  0.00     0.000 A 
HETATM   26  C   UNL     1      29.872  45.559  56.035  1.00  0.00     0.002 A 
HETATM   27  C   UNL     1      28.638  45.451  55.385  1.00  0.00     0.031 A 
ENDBRANCH  19  22
ENDBRANCH   9  17
TORSDOF 2
ENDMDL
MODEL 10
REMARK VINA RESULT:      -8.5      4.025      9.575
REMARK  2 active torsions:
REMARK  status: ('A' for Active; 'I' for Inactive)
REMARK       I    between atoms: N_8  and  C_9 
REMARK    1  A    between atoms: C_9  and  C_10 
REMARK    2  A    between atoms: N_12  and  C_13 
ROOT
HETATM    1  C   UNL     1      21.836  45.294  48.299  1.00  0.00     0.021 C 
HETATM    2  C   UNL     1      22.634  46.343  49.071  1.00  0.00     0.087 C 
HETATM    3  C   UNL     1      24.036  45.831  49.381  1.00  0.00     0.207 C 
HETATM    4  O   UNL     1      24.525  44.822  48.885  1.00  0.00    -0.279 OA
HETATM    5  N   UNL     1      24.734  46.676  50.236  1.00  0.00    -0.227 NA
HETATM    6  C   UNL     1      25.442  47.713  49.567  1.00  0.00     0.042 A 
HETATM    7  C   UNL     1      24.740  48.837  49.084  1.00  0.00     0.059 A 
HETATM    8  N   UNL     1      23.304  48.792  49.001  1.00  0.00    -0.309 N 
HETATM    9  C   UNL     1      22.530  49.925  49.345  1.00  0.00     0.298 C 
HETATM   10  O   UNL     1      23.041  50.983  49.718  1.00  0.00    -0.264 OA
HETATM   11  C   UNL     1      22.775  47.628  48.244  1.00  0.00     0.145 C 
HETATM   12  C   UNL     1      26.834  47.660  49.540  1.00  0.00     0.026 A 
HETATM   13  C   UNL     1      27.549  48.747  49.041  1.00  0.00     0.002 A 
HETATM   14  C   UNL     1      26.871  49.882  48.592  1.00  0.00     0.002 A 
HETATM   15  C   UNL     1      25.472  49.930  48.615  1.00  0.00     0.031 A 
HETATM   16  H   UNL     1      24.051  47.135  50.834  1.00  0.00     0.136 HD
ENDROOT
BRANCH   9  17
HETATM   17  C   UNL     1      21.048  49.786  49.319  1.00  0.00     0.239 A 
HETATM   18  N   UNL     1      20.227  50.841  49.176  1.00  0.00    -0.140 NA
HETATM   19  N   UNL     1      18.993  50.296  49.259  1.00  0.00    -0.225 N 
HETATM   20  C   UNL     1      19.111  48.944  49.455  1.00  0.00     0.237 A 
HETATM   21  N   UNL     1      20.375  48.592  49.504  1.00  0.00    -0.216 NA
BRANCH  19  22
HETATM   22  C   UNL     1      17.818  51.083  49.142  1.00  0.00     0.059 A 
HETATM   23  C   UNL     1      17.715  52.277  49.874  1.00  0.00     0.031 A 
HETATM   24  C   UNL     1      16.568  53.067  49.772  1.00  0.00     0.002 A 
HETATM   25  C   UNL     1      15.522  52.674  48.940  1.00  0.00     0.000 A 
HETATM   26  C   UNL     1      15.618  51.491  48.210  1.00  0.00     0.002 A 
HETATM   27  C   UNL     1      16.762  50.692  48.308  1.00  0.00     0.031 A 
ENDBRANCH  19  22
ENDBRANCH   9  17
TORSDOF 2
ENDMDL
