MODEL 1
REMARK VINA RESULT:      -9.3      0.000      0.000
REMARK  5 active torsions:
REMARK  status: ('A' for Active; 'I' for Inactive)
REMARK    1  A    between atoms: C_2  and  C_3 
REMARK       I    between atoms: C_3  and  N_4 
REMARK    2  A    between atoms: N_4  and  C_5 
REMARK    3  A    between atoms: C_8  and  C_9 
REMARK       I    between atoms: C_9  and  N_10 
REMARK    4  A    between atoms: N_10  and  N_11 
REMARK    5  A    between atoms: C_12  and  C_13 
ROOT
HETATM    1  C   UNL     1      26.371  46.867  49.830  1.00  0.00     0.271 C 
HETATM    2  N   UNL     1      26.156  46.084  50.957  1.00  0.00    -0.243 N 
HETATM    3  O   UNL     1      27.366  46.838  49.113  1.00  0.00    -0.266 OA
HETATM    4  H   UNL     1      25.204  45.961  51.288  1.00  0.00     0.192 HD
ENDROOT
BRANCH   2   5
HETATM    5  N   UNL     1      27.028  45.159  51.477  1.00  0.00    -0.183 NA
HETATM    6  C   UNL     1      27.035  44.963  52.757  1.00  0.00     0.153 C 
BRANCH   6   7
HETATM    7  C   UNL     1      27.954  44.004  53.351  1.00  0.00     0.018 A 
HETATM    8  C   UNL     1      28.890  44.289  54.401  1.00  0.00     0.004 A 
HETATM    9  C   UNL     1      29.564  43.106  54.697  1.00  0.00     0.043 A 
HETATM   10  C   UNL     1      29.226  45.451  55.130  1.00  0.00     0.014 A 
HETATM   11  C   UNL     1      30.555  43.022  55.684  1.00  0.00     0.030 A 
HETATM   12  N   UNL     1      29.068  42.140  53.857  1.00  0.00    -0.358 N 
HETATM   13  C   UNL     1      30.865  44.185  56.393  1.00  0.00     0.002 A 
HETATM   14  C   UNL     1      30.214  45.385  56.121  1.00  0.00     0.001 A 
HETATM   15  H   UNL     1      29.381  41.180  53.850  1.00  0.00     0.166 HD
HETATM   16  C   UNL     1      28.095  42.657  53.038  1.00  0.00     0.018 A 
HETATM   17  C   UNL     1      27.397  41.803  52.041  1.00  0.00     0.069 C 
ENDBRANCH   6   7
ENDBRANCH   2   5
BRANCH   1  18
HETATM   18  C   UNL     1      25.259  47.794  49.472  1.00  0.00     0.033 A 
HETATM   19  C   UNL     1      25.489  49.082  48.978  1.00  0.00     0.019 A 
HETATM   20  C   UNL     1      24.412  49.899  48.605  1.00  0.00     0.030 A 
HETATM   21  C   UNL     1      23.097  49.441  48.714  1.00  0.00     0.034 A 
HETATM   22  C   UNL     1      22.871  48.151  49.212  1.00  0.00     0.030 A 
HETATM   23  C   UNL     1      23.943  47.330  49.580  1.00  0.00     0.019 A 
BRANCH  21  24
HETATM   24  N   UNL     1      21.964  50.189  48.336  1.00  0.00    -0.327 N 
HETATM   25  C   UNL     1      21.144  50.947  49.151  1.00  0.00     0.221 C 
HETATM   26  O   UNL     1      21.234  51.060  50.370  1.00  0.00    -0.273 OA
HETATM   27  H   UNL     1      21.751  50.191  47.347  1.00  0.00     0.169 HD
BRANCH  25  28
HETATM   28  C   UNL     1      20.025  51.647  48.396  1.00  0.00     0.098 C 
HETATM   29  C   UNL     1      18.883  52.096  49.293  1.00  0.00     0.014 C 
ENDBRANCH  25  28
ENDBRANCH  21  24
ENDBRANCH   1  18
TORSDOF 5
ENDMDL
MODEL 2
REMARK VINA RESULT:      -9.2      1.598      2.248
REMARK  5 active torsions:
REMARK  status: ('A' for Active; 'I' for Inactive)
REMARK    1  A    between atoms: C_2  and  C_3 
REMARK       I    between atoms: C_3  and  N_4 
REMARK    2  A    between atoms: N_4  and  C_5 
REMARK    3  A    between atoms: C_8  and  C_9 
REMARK       I    between atoms: C_9  and  N_10 
REMARK    4  A    between atoms: N_10  and  N_11 
REMARK    5  A    between atoms: C_12  and  C_13 
ROOT
HETATM    1  C   UNL     1      26.630  45.304  50.682  1.00  0.00     0.271 C 
HETATM    2  N   UNL     1      26.701  45.241  52.068  1.00  0.00    -0.243 N 
HETATM    3  O   UNL     1      27.369  44.719  49.896  1.00  0.00    -0.266 OA
HETATM    4  H   UNL     1      25.881  45.498  52.608  1.00  0.00     0.192 HD
ENDROOT
BRANCH   2   5
HETATM    5  N   UNL     1      27.622  44.529  52.798  1.00  0.00    -0.183 NA
HETATM    6  C   UNL     1      28.276  45.139  53.735  1.00  0.00     0.153 C 
BRANCH   6   7
HETATM    7  C   UNL     1      29.272  44.428  54.521  1.00  0.00     0.018 A 
HETATM    8  C   UNL     1      29.731  44.812  55.826  1.00  0.00     0.004 A 
HETATM    9  C   UNL     1      30.665  43.864  56.239  1.00  0.00     0.043 A 
HETATM   10  C   UNL     1      29.437  45.883  56.697  1.00  0.00     0.014 A 
HETATM   11  C   UNL     1      31.317  43.928  57.478  1.00  0.00     0.030 A 
HETATM   12  N   UNL     1      30.779  42.944  55.226  1.00  0.00    -0.358 N 
HETATM   13  C   UNL     1      31.004  44.997  58.321  1.00  0.00     0.002 A 
HETATM   14  C   UNL     1      30.079  45.964  57.938  1.00  0.00     0.001 A 
HETATM   15  H   UNL     1      31.393  42.142  55.255  1.00  0.00     0.166 HD
HETATM   16  C   UNL     1      29.948  43.262  54.181  1.00  0.00     0.018 A 
HETATM   17  C   UNL     1      29.884  42.410  52.964  1.00  0.00     0.069 C 
ENDBRANCH   6   7
ENDBRANCH   2   5
BRANCH   1  18
HETATM   18  C   UNL     1      25.528  46.147  50.134  1.00  0.00     0.033 A 
HETATM   19  C   UNL     1      24.383  45.593  49.552  1.00  0.00     0.019 A 
HETATM   20  C   UNL     1      23.348  46.424  49.098  1.00  0.00     0.030 A 
HETATM   21  C   UNL     1      23.440  47.811  49.226  1.00  0.00     0.034 A 
HETATM   22  C   UNL     1      24.589  48.361  49.808  1.00  0.00     0.030 A 
HETATM   23  C   UNL     1      25.622  47.536  50.266  1.00  0.00     0.019 A 
BRANCH  21  24
HETATM   24  N   UNL     1      22.433  48.711  48.821  1.00  0.00    -0.327 N 
HETATM   25  C   UNL     1      22.524  49.700  47.858  1.00  0.00     0.221 C 
HETATM   26  O   UNL     1      23.527  50.001  47.218  1.00  0.00    -0.273 OA
HETATM   27  H   UNL     1      21.534  48.593  49.269  1.00  0.00     0.169 HD
BRANCH  25  28
HETATM   28  C   UNL     1      21.227  50.469  47.660  1.00  0.00     0.098 C 
HETATM   29  C   UNL     1      20.709  51.113  48.935  1.00  0.00     0.014 C 
ENDBRANCH  25  28
ENDBRANCH  21  24
ENDBRANCH   1  18
TORSDOF 5
ENDMDL
MODEL 3
REMARK VINA RESULT:      -9.2      0.438      1.042
REMARK  5 active torsions:
REMARK  status: ('A' for Active; 'I' for Inactive)
REMARK    1  A    between atoms: C_2  and  C_3 
REMARK       I    between atoms: C_3  and  N_4 
REMARK    2  A    between atoms: N_4  and  C_5 
REMARK    3  A    between atoms: C_8  and  C_9 
REMARK       I    between atoms: C_9  and  N_10 
REMARK    4  A    between atoms: N_10  and  N_11 
REMARK    5  A    between atoms: C_12  and  C_13 
ROOT
HETATM    1  C   UNL     1      26.177  47.246  49.730  1.00  0.00     0.271 C 
HETATM    2  N   UNL     1      25.959  46.280  50.705  1.00  0.00    -0.243 N 
HETATM    3  O   UNL     1      27.246  47.475  49.172  1.00  0.00    -0.266 OA
HETATM    4  H   UNL     1      25.008  45.966  50.871  1.00  0.00     0.192 HD
ENDROOT
BRANCH   2   5
HETATM    5  N   UNL     1      26.904  45.431  51.227  1.00  0.00    -0.183 NA
HETATM    6  C   UNL     1      26.725  44.962  52.421  1.00  0.00     0.153 C 
BRANCH   6   7
HETATM    7  C   UNL     1      27.709  44.073  53.018  1.00  0.00     0.018 A 
HETATM    8  C   UNL     1      28.591  44.414  54.098  1.00  0.00     0.004 A 
HETATM    9  C   UNL     1      29.359  43.287  54.387  1.00  0.00     0.043 A 
HETATM   10  C   UNL     1      28.808  45.583  54.859  1.00  0.00     0.014 A 
HETATM   11  C   UNL     1      30.328  43.266  55.398  1.00  0.00     0.030 A 
HETATM   12  N   UNL     1      28.968  42.301  53.515  1.00  0.00    -0.358 N 
HETATM   13  C   UNL     1      30.520  44.436  56.138  1.00  0.00     0.002 A 
HETATM   14  C   UNL     1      29.774  45.581  55.873  1.00  0.00     0.001 A 
HETATM   15  H   UNL     1      29.363  41.371  53.497  1.00  0.00     0.166 HD
HETATM   16  C   UNL     1      27.974  42.750  52.682  1.00  0.00     0.018 A 
HETATM   17  C   UNL     1      27.376  41.862  51.651  1.00  0.00     0.069 C 
ENDBRANCH   6   7
ENDBRANCH   2   5
BRANCH   1  18
HETATM   18  C   UNL     1      24.977  48.036  49.330  1.00  0.00     0.033 A 
HETATM   19  C   UNL     1      23.676  47.544  49.476  1.00  0.00     0.019 A 
HETATM   20  C   UNL     1      22.576  48.343  49.135  1.00  0.00     0.030 A 
HETATM   21  C   UNL     1      22.759  49.641  48.652  1.00  0.00     0.034 A 
HETATM   22  C   UNL     1      24.064  50.128  48.505  1.00  0.00     0.030 A 
HETATM   23  C   UNL     1      25.164  49.336  48.848  1.00  0.00     0.019 A 
BRANCH  21  24
HETATM   24  N   UNL     1      21.706  50.515  48.314  1.00  0.00    -0.327 N 
HETATM   25  C   UNL     1      20.803  51.118  49.171  1.00  0.00     0.221 C 
HETATM   26  O   UNL     1      20.731  50.953  50.384  1.00  0.00    -0.273 OA
HETATM   27  H   UNL     1      21.629  50.748  47.333  1.00  0.00     0.169 HD
BRANCH  25  28
HETATM   28  C   UNL     1      19.814  52.028  48.459  1.00  0.00     0.098 C 
HETATM   29  C   UNL     1      18.559  52.303  49.271  1.00  0.00     0.014 C 
ENDBRANCH  25  28
ENDBRANCH  21  24
ENDBRANCH   1  18
TORSDOF 5
ENDMDL
MODEL 4
REMARK VINA RESULT:      -8.8      6.025      9.680
REMARK  5 active torsions:
REMARK  status: ('A' for Active; 'I' for Inactive)
REMARK    1  A    between atoms: C_2  and  C_3 
REMARK       I    between atoms: C_3  and  N_4 
REMARK    2  A    between atoms: N_4  and  C_5 
REMARK    3  A    between atoms: C_8  and  C_9 
REMARK       I    between atoms: C_9  and  N_10 
REMARK    4  A    between atoms: N_10  and  N_11 
REMARK    5  A    between atoms: C_12  and  C_13 
ROOT
HETATM    1  C   UNL     1      28.122  40.923  51.491  1.00  0.00     0.271 C 
HETATM    2  N   UNL     1      29.128  41.194  52.410  1.00  0.00    -0.243 N 
HETATM    3  O   UNL     1      26.992  41.399  51.501  1.00  0.00    -0.266 OA
HETATM    4  H   UNL     1      30.090  41.004  52.147  1.00  0.00     0.192 HD
ENDROOT
BRANCH   2   5
HETATM    5  N   UNL     1      29.024  42.024  53.500  1.00  0.00    -0.183 NA
HETATM    6  C   UNL     1      29.302  43.281  53.353  1.00  0.00     0.153 C 
BRANCH   6   7
HETATM    7  C   UNL     1      29.220  44.191  54.484  1.00  0.00     0.018 A 
HETATM    8  C   UNL     1      30.079  44.167  55.635  1.00  0.00     0.004 A 
HETATM    9  C   UNL     1      29.687  45.208  56.474  1.00  0.00     0.043 A 
HETATM   10  C   UNL     1      31.158  43.352  56.040  1.00  0.00     0.014 A 
HETATM   11  C   UNL     1      30.318  45.479  57.695  1.00  0.00     0.030 A 
HETATM   12  N   UNL     1      28.628  45.837  55.867  1.00  0.00    -0.358 N 
HETATM   13  C   UNL     1      31.385  44.659  58.070  1.00  0.00     0.002 A 
HETATM   14  C   UNL     1      31.800  43.608  57.258  1.00  0.00     0.001 A 
HETATM   15  H   UNL     1      28.140  46.631  56.257  1.00  0.00     0.166 HD
HETATM   16  C   UNL     1      28.330  45.242  54.665  1.00  0.00     0.018 A 
HETATM   17  C   UNL     1      27.223  45.749  53.812  1.00  0.00     0.069 C 
ENDBRANCH   6   7
ENDBRANCH   2   5
BRANCH   1  18
HETATM   18  C   UNL     1      28.496  39.988  50.390  1.00  0.00     0.033 A 
HETATM   19  C   UNL     1      29.185  38.793  50.626  1.00  0.00     0.019 A 
HETATM   20  C   UNL     1      29.468  37.920  49.566  1.00  0.00     0.030 A 
HETATM   21  C   UNL     1      29.064  38.223  48.265  1.00  0.00     0.034 A 
HETATM   22  C   UNL     1      28.377  39.421  48.033  1.00  0.00     0.030 A 
HETATM   23  C   UNL     1      28.088  40.294  49.088  1.00  0.00     0.019 A 
BRANCH  21  24
HETATM   24  N   UNL     1      29.286  37.386  47.152  1.00  0.00    -0.327 N 
HETATM   25  C   UNL     1      28.361  36.598  46.493  1.00  0.00     0.221 C 
HETATM   26  O   UNL     1      27.181  36.450  46.798  1.00  0.00    -0.273 OA
HETATM   27  H   UNL     1      30.226  37.393  46.780  1.00  0.00     0.169 HD
BRANCH  25  28
HETATM   28  C   UNL     1      28.947  35.843  45.310  1.00  0.00     0.098 C 
HETATM   29  C   UNL     1      28.574  34.370  45.291  1.00  0.00     0.014 C 
ENDBRANCH  25  28
ENDBRANCH  21  24
ENDBRANCH   1  18
TORSDOF 5
ENDMDL
MODEL 5
REMARK VINA RESULT:      -8.6      3.354      4.324
REMARK  5 active torsions:
REMARK  status: ('A' for Active; 'I' for Inactive)
REMARK    1  A    between atoms: C_2  and  C_3 
REMARK       I    between atoms: C_3  and  N_4 
REMARK    2  A    between atoms: N_4  and  C_5 
REMARK    3  A    between atoms: C_8  and  C_9 
REMARK       I    between atoms: C_9  and  N_10 
REMARK    4  A    between atoms: N_10  and  N_11 
REMARK    5  A    between atoms: C_12  and  C_13 
ROOT
HETATM    1  C   UNL     1      24.759  47.173  50.331  1.00  0.00     0.271 C 
HETATM    2  N   UNL     1      25.118  46.291  51.343  1.00  0.00    -0.243 N 
HETATM    3  O   UNL     1      25.295  48.251  50.093  1.00  0.00    -0.266 OA
HETATM    4  H   UNL     1      24.833  45.320  51.264  1.00  0.00     0.192 HD
ENDROOT
BRANCH   2   5
HETATM    5  N   UNL     1      26.118  46.484  52.265  1.00  0.00    -0.183 NA
HETATM    6  C   UNL     1      26.232  45.641  53.242  1.00  0.00     0.153 C 
BRANCH   6   7
HETATM    7  C   UNL     1      27.267  45.817  54.249  1.00  0.00     0.018 A 
HETATM    8  C   UNL     1      28.361  44.918  54.484  1.00  0.00     0.004 A 
HETATM    9  C   UNL     1      29.132  45.453  55.514  1.00  0.00     0.043 A 
HETATM   10  C   UNL     1      28.767  43.692  53.913  1.00  0.00     0.014 A 
HETATM   11  C   UNL     1      30.289  44.830  56.000  1.00  0.00     0.030 A 
HETATM   12  N   UNL     1      28.531  46.626  55.899  1.00  0.00    -0.358 N 
HETATM   13  C   UNL     1      30.670  43.620  55.414  1.00  0.00     0.002 A 
HETATM   14  C   UNL     1      29.921  43.055  54.386  1.00  0.00     0.001 A 
HETATM   15  H   UNL     1      28.877  47.226  56.634  1.00  0.00     0.166 HD
HETATM   16  C   UNL     1      27.406  46.867  55.149  1.00  0.00     0.018 A 
HETATM   17  C   UNL     1      26.582  48.084  55.372  1.00  0.00     0.069 C 
ENDBRANCH   6   7
ENDBRANCH   2   5
BRANCH   1  18
HETATM   18  C   UNL     1      23.638  46.722  49.456  1.00  0.00     0.033 A 
HETATM   19  C   UNL     1      22.792  47.623  48.802  1.00  0.00     0.019 A 
HETATM   20  C   UNL     1      21.784  47.153  47.948  1.00  0.00     0.030 A 
HETATM   21  C   UNL     1      21.612  45.784  47.732  1.00  0.00     0.034 A 
HETATM   22  C   UNL     1      22.460  44.885  48.392  1.00  0.00     0.030 A 
HETATM   23  C   UNL     1      23.471  45.350  49.241  1.00  0.00     0.019 A 
BRANCH  21  24
HETATM   24  N   UNL     1      20.642  45.234  46.870  1.00  0.00    -0.327 N 
HETATM   25  C   UNL     1      19.396  44.741  47.209  1.00  0.00     0.221 C 
HETATM   26  O   UNL     1      18.933  44.649  48.342  1.00  0.00    -0.273 OA
HETATM   27  H   UNL     1      20.881  45.232  45.887  1.00  0.00     0.169 HD
BRANCH  25  28
HETATM   28  C   UNL     1      18.597  44.248  46.012  1.00  0.00     0.098 C 
HETATM   29  C   UNL     1      19.384  43.316  45.106  1.00  0.00     0.014 C 
ENDBRANCH  25  28
ENDBRANCH  21  24
ENDBRANCH   1  18
TORSDOF 5
ENDMDL
MODEL 6
REMARK VINA RESULT:      -8.6      1.237      1.617
REMARK  5 active torsions:
REMARK  status: ('A' for Active; 'I' for Inactive)
REMARK    1  A    between atoms: C_2  and  C_3 
REMARK       I    between atoms: C_3  and  N_4 
REMARK    2  A    between atoms: N_4  and  C_5 
REMARK    3  A    between atoms: C_8  and  C_9 
REMARK       I    between atoms: C_9  and  N_10 
REMARK    4  A    between atoms: N_10  and  N_11 
REMARK    5  A    between atoms: C_12  and  C_13 
ROOT
HETATM    1  C   UNL     1      25.776  47.986  49.284  1.00  0.00     0.271 C 
HETATM    2  N   UNL     1      25.562  46.827  50.020  1.00  0.00    -0.243 N 
HETATM    3  O   UNL     1      26.855  48.368  48.843  1.00  0.00    -0.266 OA
HETATM    4  H   UNL     1      24.621  46.450  50.067  1.00  0.00     0.192 HD
ENDROOT
BRANCH   2   5
HETATM    5  N   UNL     1      26.523  45.922  50.400  1.00  0.00    -0.183 NA
HETATM    6  C   UNL     1      26.217  45.025  51.282  1.00  0.00     0.153 C 
BRANCH   6   7
HETATM    7  C   UNL     1      27.209  44.058  51.725  1.00  0.00     0.018 A 
HETATM    8  C   UNL     1      27.990  44.157  52.925  1.00  0.00     0.004 A 
HETATM    9  C   UNL     1      28.803  43.027  52.993  1.00  0.00     0.043 A 
HETATM   10  C   UNL     1      28.081  45.109  53.963  1.00  0.00     0.014 A 
HETATM   11  C   UNL     1      29.699  42.797  54.046  1.00  0.00     0.030 A 
HETATM   12  N   UNL     1      28.537  42.273  51.877  1.00  0.00    -0.358 N 
HETATM   13  C   UNL     1      29.765  43.754  55.062  1.00  0.00     0.002 A 
HETATM   14  C   UNL     1      28.971  44.896  55.024  1.00  0.00     0.001 A 
HETATM   15  H   UNL     1      28.988  41.394  51.666  1.00  0.00     0.166 HD
HETATM   16  C   UNL     1      27.578  42.873  51.099  1.00  0.00     0.018 A 
HETATM   17  C   UNL     1      27.110  42.243  49.836  1.00  0.00     0.069 C 
ENDBRANCH   6   7
ENDBRANCH   2   5
BRANCH   1  18
HETATM   18  C   UNL     1      24.558  48.798  48.998  1.00  0.00     0.033 A 
HETATM   19  C   UNL     1      24.629  50.104  48.502  1.00  0.00     0.019 A 
HETATM   20  C   UNL     1      23.456  50.810  48.199  1.00  0.00     0.030 A 
HETATM   21  C   UNL     1      22.203  50.222  48.380  1.00  0.00     0.034 A 
HETATM   22  C   UNL     1      22.136  48.915  48.879  1.00  0.00     0.030 A 
HETATM   23  C   UNL     1      23.304  48.205  49.179  1.00  0.00     0.019 A 
BRANCH  21  24
HETATM   24  N   UNL     1      20.981  50.853  48.074  1.00  0.00    -0.327 N 
HETATM   25  C   UNL     1      20.114  51.481  48.950  1.00  0.00     0.221 C 
HETATM   26  O   UNL     1      20.236  51.552  50.169  1.00  0.00    -0.273 OA
HETATM   27  H   UNL     1      20.731  50.873  47.094  1.00  0.00     0.169 HD
BRANCH  25  28
HETATM   28  C   UNL     1      18.896  52.082  48.265  1.00  0.00     0.098 C 
HETATM   29  C   UNL     1      18.466  51.318  47.023  1.00  0.00     0.014 C 
ENDBRANCH  25  28
ENDBRANCH  21  24
ENDBRANCH   1  18
TORSDOF 5
ENDMDL
MODEL 7
REMARK VINA RESULT:      -8.4      6.115      8.536
REMARK  5 active torsions:
REMARK  status: ('A' for Active; 'I' for Inactive)
REMARK    1  A    between atoms: C_2  and  C_3 
REMARK       I    between atoms: C_3  and  N_4 
REMARK    2  A    between atoms: N_4  and  C_5 
REMARK    3  A    between atoms: C_8  and  C_9 
REMARK       I    between atoms: C_9  and  N_10 
REMARK    4  A    between atoms: N_10  and  N_11 
REMARK    5  A    between atoms: C_12  and  C_13 
ROOT
HETATM    1  C   UNL     1      28.232  41.216  52.019  1.00  0.00     0.271 C 
HETATM    2  N   UNL     1      27.749  42.506  52.201  1.00  0.00    -0.243 N 
HETATM    3  O   UNL     1      28.783  40.527  52.872  1.00  0.00    -0.266 OA
HETATM    4  H   UNL     1      27.054  42.860  51.551  1.00  0.00     0.192 HD
ENDROOT
BRANCH   2   5
HETATM    5  N   UNL     1      27.823  43.240  53.360  1.00  0.00    -0.183 NA
HETATM    6  C   UNL     1      28.832  44.035  53.527  1.00  0.00     0.153 C 
BRANCH   6   7
HETATM    7  C   UNL     1      28.958  44.818  54.746  1.00  0.00     0.018 A 
HETATM    8  C   UNL     1      29.898  44.569  55.802  1.00  0.00     0.004 A 
HETATM    9  C   UNL     1      29.710  45.549  56.774  1.00  0.00     0.043 A 
HETATM   10  C   UNL     1      30.896  43.594  56.021  1.00  0.00     0.014 A 
HETATM   11  C   UNL     1      30.468  45.609  57.951  1.00  0.00     0.030 A 
HETATM   12  N   UNL     1      28.692  46.360  56.335  1.00  0.00    -0.358 N 
HETATM   13  C   UNL     1      31.451  44.634  58.140  1.00  0.00     0.002 A 
HETATM   14  C   UNL     1      31.663  43.638  57.192  1.00  0.00     0.001 A 
HETATM   15  H   UNL     1      28.341  47.157  56.847  1.00  0.00     0.166 HD
HETATM   16  C   UNL     1      28.224  45.940  55.115  1.00  0.00     0.018 A 
HETATM   17  C   UNL     1      27.124  46.662  54.424  1.00  0.00     0.069 C 
ENDBRANCH   6   7
ENDBRANCH   2   5
BRANCH   1  18
HETATM   18  C   UNL     1      28.020  40.638  50.660  1.00  0.00     0.033 A 
HETATM   19  C   UNL     1      27.155  41.220  49.727  1.00  0.00     0.019 A 
HETATM   20  C   UNL     1      27.027  40.671  48.443  1.00  0.00     0.030 A 
HETATM   21  C   UNL     1      27.762  39.543  48.074  1.00  0.00     0.034 A 
HETATM   22  C   UNL     1      28.624  38.962  49.012  1.00  0.00     0.030 A 
HETATM   23  C   UNL     1      28.759  39.509  50.292  1.00  0.00     0.019 A 
BRANCH  21  24
HETATM   24  N   UNL     1      27.710  38.948  46.797  1.00  0.00    -0.327 N 
HETATM   25  C   UNL     1      27.993  39.540  45.579  1.00  0.00     0.221 C 
HETATM   26  O   UNL     1      28.293  40.716  45.394  1.00  0.00    -0.273 OA
HETATM   27  H   UNL     1      27.467  37.967  46.780  1.00  0.00     0.169 HD
BRANCH  25  28
HETATM   28  C   UNL     1      27.860  38.588  44.401  1.00  0.00     0.098 C 
HETATM   29  C   UNL     1      29.187  38.000  43.950  1.00  0.00     0.014 C 
ENDBRANCH  25  28
ENDBRANCH  21  24
ENDBRANCH   1  18
TORSDOF 5
ENDMDL
MODEL 8
REMARK VINA RESULT:      -8.2     17.558     20.303
REMARK  5 active torsions:
REMARK  status: ('A' for Active; 'I' for Inactive)
REMARK    1  A    between atoms: C_2  and  C_3 
REMARK       I    between atoms: C_3  and  N_4 
REMARK    2  A    between atoms: N_4  and  C_5 
REMARK    3  A    between atoms: C_8  and  C_9 
REMARK       I    between atoms: C_9  and  N_10 
REMARK    4  A    between atoms: N_10  and  N_11 
REMARK    5  A    between atoms: C_12  and  C_13 
ROOT
HETATM    1  C   UNL     1      39.325  40.553  62.907  1.00  0.00     0.271 C 
HETATM    2  N   UNL     1      39.826  39.994  64.076  1.00  0.00    -0.243 N 
HETATM    3  O   UNL     1      39.307  40.017  61.804  1.00  0.00    -0.266 OA
HETATM    4  H   UNL     1      39.520  40.375  64.966  1.00  0.00     0.192 HD
ENDROOT
BRANCH   2   5
HETATM    5  N   UNL     1      40.408  38.755  64.194  1.00  0.00    -0.183 NA
HETATM    6  C   UNL     1      40.447  38.196  65.362  1.00  0.00     0.153 C 
BRANCH   6   7
HETATM    7  C   UNL     1      41.068  36.892  65.535  1.00  0.00     0.018 A 
HETATM    8  C   UNL     1      40.418  35.724  66.059  1.00  0.00     0.004 A 
HETATM    9  C   UNL     1      41.345  34.684  66.042  1.00  0.00     0.043 A 
HETATM   10  C   UNL     1      39.121  35.457  66.549  1.00  0.00     0.014 A 
HETATM   11  C   UNL     1      41.043  33.389  66.486  1.00  0.00     0.030 A 
HETATM   12  N   UNL     1      42.514  35.196  65.537  1.00  0.00    -0.358 N 
HETATM   13  C   UNL     1      39.751  33.151  66.961  1.00  0.00     0.002 A 
HETATM   14  C   UNL     1      38.802  34.168  66.996  1.00  0.00     0.001 A 
HETATM   15  H   UNL     1      43.362  34.659  65.414  1.00  0.00     0.166 HD
HETATM   16  C   UNL     1      42.371  36.524  65.222  1.00  0.00     0.018 A 
HETATM   17  C   UNL     1      43.500  37.303  64.648  1.00  0.00     0.069 C 
ENDBRANCH   6   7
ENDBRANCH   2   5
BRANCH   1  18
HETATM   18  C   UNL     1      38.737  41.917  63.050  1.00  0.00     0.033 A 
HETATM   19  C   UNL     1      37.498  42.136  63.660  1.00  0.00     0.019 A 
HETATM   20  C   UNL     1      37.010  43.441  63.818  1.00  0.00     0.030 A 
HETATM   21  C   UNL     1      37.752  44.539  63.379  1.00  0.00     0.034 A 
HETATM   22  C   UNL     1      38.992  44.314  62.767  1.00  0.00     0.030 A 
HETATM   23  C   UNL     1      39.485  43.014  62.610  1.00  0.00     0.019 A 
BRANCH  21  24
HETATM   24  N   UNL     1      37.344  45.880  63.526  1.00  0.00    -0.327 N 
HETATM   25  C   UNL     1      37.478  46.684  64.644  1.00  0.00     0.221 C 
HETATM   26  O   UNL     1      37.935  46.347  65.731  1.00  0.00    -0.273 OA
HETATM   27  H   UNL     1      36.936  46.307  62.705  1.00  0.00     0.169 HD
BRANCH  25  28
HETATM   28  C   UNL     1      36.949  48.095  64.438  1.00  0.00     0.098 C 
HETATM   29  C   UNL     1      37.852  49.167  65.025  1.00  0.00     0.014 C 
ENDBRANCH  25  28
ENDBRANCH  21  24
ENDBRANCH   1  18
TORSDOF 5
ENDMDL
MODEL 9
REMARK VINA RESULT:      -8.2      2.478     10.610
REMARK  5 active torsions:
REMARK  status: ('A' for Active; 'I' for Inactive)
REMARK    1  A    between atoms: C_2  and  C_3 
REMARK       I    between atoms: C_3  and  N_4 
REMARK    2  A    between atoms: N_4  and  C_5 
REMARK    3  A    between atoms: C_8  and  C_9 
REMARK       I    between atoms: C_9  and  N_10 
REMARK    4  A    between atoms: N_10  and  N_11 
REMARK    5  A    between atoms: C_12  and  C_13 
ROOT
HETATM    1  C   UNL     1      24.584  47.760  49.651  1.00  0.00     0.271 C 
HETATM    2  N   UNL     1      23.383  47.232  49.191  1.00  0.00    -0.243 N 
HETATM    3  O   UNL     1      25.021  48.879  49.400  1.00  0.00    -0.266 OA
HETATM    4  H   UNL     1      22.976  46.448  49.690  1.00  0.00     0.192 HD
ENDROOT
BRANCH   2   5
HETATM    5  N   UNL     1      22.490  47.863  48.360  1.00  0.00    -0.183 NA
HETATM    6  C   UNL     1      21.258  47.977  48.745  1.00  0.00     0.153 C 
BRANCH   6   7
HETATM    7  C   UNL     1      20.276  48.623  47.889  1.00  0.00     0.018 A 
HETATM    8  C   UNL     1      19.762  49.952  48.068  1.00  0.00     0.004 A 
HETATM    9  C   UNL     1      18.863  50.199  47.032  1.00  0.00     0.043 A 
HETATM   10  C   UNL     1      19.980  50.971  49.021  1.00  0.00     0.014 A 
HETATM   11  C   UNL     1      18.174  51.411  46.896  1.00  0.00     0.030 A 
HETATM   12  N   UNL     1      18.823  49.066  46.257  1.00  0.00    -0.358 N 
HETATM   13  C   UNL     1      18.411  52.403  47.850  1.00  0.00     0.002 A 
HETATM   14  C   UNL     1      19.299  52.189  48.901  1.00  0.00     0.001 A 
HETATM   15  H   UNL     1      18.247  48.963  45.433  1.00  0.00     0.166 HD
HETATM   16  C   UNL     1      19.667  48.104  46.753  1.00  0.00     0.018 A 
HETATM   17  C   UNL     1      19.807  46.785  46.081  1.00  0.00     0.069 C 
ENDBRANCH   6   7
ENDBRANCH   2   5
BRANCH   1  18
HETATM   18  C   UNL     1      25.372  46.869  50.551  1.00  0.00     0.033 A 
HETATM   19  C   UNL     1      25.237  46.904  51.943  1.00  0.00     0.019 A 
HETATM   20  C   UNL     1      25.961  46.010  52.745  1.00  0.00     0.030 A 
HETATM   21  C   UNL     1      26.820  45.071  52.172  1.00  0.00     0.034 A 
HETATM   22  C   UNL     1      26.954  45.042  50.778  1.00  0.00     0.030 A 
HETATM   23  C   UNL     1      26.231  45.928  49.972  1.00  0.00     0.019 A 
BRANCH  21  24
HETATM   24  N   UNL     1      27.560  44.123  52.906  1.00  0.00    -0.327 N 
HETATM   25  C   UNL     1      28.393  44.356  53.985  1.00  0.00     0.221 C 
HETATM   26  O   UNL     1      28.674  45.451  54.464  1.00  0.00    -0.273 OA
HETATM   27  H   UNL     1      27.439  43.159  52.625  1.00  0.00     0.169 HD
BRANCH  25  28
HETATM   28  C   UNL     1      29.012  43.089  54.554  1.00  0.00     0.098 C 
HETATM   29  C   UNL     1      30.524  43.165  54.688  1.00  0.00     0.014 C 
ENDBRANCH  25  28
ENDBRANCH  21  24
ENDBRANCH   1  18
TORSDOF 5
ENDMDL
MODEL 10
REMARK VINA RESULT:      -8.0      2.159      3.045
REMARK  5 active torsions:
REMARK  status: ('A' for Active; 'I' for Inactive)
REMARK    1  A    between atoms: C_2  and  C_3 
REMARK       I    between atoms: C_3  and  N_4 
REMARK    2  A    between atoms: N_4  and  C_5 
REMARK    3  A    between atoms: C_8  and  C_9 
REMARK       I    between atoms: C_9  and  N_10 
REMARK    4  A    between atoms: N_10  and  N_11 
REMARK    5  A    between atoms: C_12  and  C_13 
ROOT
HETATM    1  C   UNL     1      23.992  48.278  49.570  1.00  0.00     0.271 C 
HETATM    2  N   UNL     1      23.819  46.990  50.064  1.00  0.00    -0.243 N 
HETATM    3  O   UNL     1      25.057  48.880  49.491  1.00  0.00    -0.266 OA
HETATM    4  H   UNL     1      22.980  46.480  49.805  1.00  0.00     0.192 HD
ENDROOT
BRANCH   2   5
HETATM    5  N   UNL     1      24.806  46.179  50.568  1.00  0.00    -0.183 NA
HETATM    6  C   UNL     1      24.971  46.126  51.852  1.00  0.00     0.153 C 
BRANCH   6   7
HETATM    7  C   UNL     1      26.015  45.293  52.427  1.00  0.00     0.018 A 
HETATM    8  C   UNL     1      26.931  45.698  53.456  1.00  0.00     0.004 A 
HETATM    9  C   UNL     1      27.755  44.610  53.738  1.00  0.00     0.043 A 
HETATM   10  C   UNL     1      27.135  46.895  54.175  1.00  0.00     0.014 A 
HETATM   11  C   UNL     1      28.769  44.654  54.704  1.00  0.00     0.030 A 
HETATM   12  N   UNL     1      27.365  43.585  52.911  1.00  0.00    -0.358 N 
HETATM   13  C   UNL     1      28.946  45.850  55.404  1.00  0.00     0.002 A 
HETATM   14  C   UNL     1      28.145  46.958  55.144  1.00  0.00     0.001 A 
HETATM   15  H   UNL     1      27.795  42.671  52.899  1.00  0.00     0.166 HD
HETATM   16  C   UNL     1      26.317  43.973  52.113  1.00  0.00     0.018 A 
HETATM   17  C   UNL     1      25.710  43.034  51.134  1.00  0.00     0.069 C 
ENDBRANCH   6   7
ENDBRANCH   2   5
BRANCH   1  18
HETATM   18  C   UNL     1      22.753  48.945  49.075  1.00  0.00     0.033 A 
HETATM   19  C   UNL     1      21.559  48.246  48.867  1.00  0.00     0.019 A 
HETATM   20  C   UNL     1      20.406  48.926  48.449  1.00  0.00     0.030 A 
HETATM   21  C   UNL     1      20.428  50.307  48.242  1.00  0.00     0.034 A 
HETATM   22  C   UNL     1      21.626  51.002  48.448  1.00  0.00     0.030 A 
HETATM   23  C   UNL     1      22.778  50.329  48.869  1.00  0.00     0.019 A 
BRANCH  21  24
HETATM   24  N   UNL     1      19.307  51.066  47.850  1.00  0.00    -0.327 N 
HETATM   25  C   UNL     1      18.630  51.009  46.645  1.00  0.00     0.221 C 
HETATM   26  O   UNL     1      18.925  50.315  45.677  1.00  0.00    -0.273 OA
HETATM   27  H   UNL     1      18.942  51.701  48.547  1.00  0.00     0.169 HD
BRANCH  25  28
HETATM   28  C   UNL     1      17.442  51.956  46.576  1.00  0.00     0.098 C 
HETATM   29  C   UNL     1      16.399  51.690  47.649  1.00  0.00     0.014 C 
ENDBRANCH  25  28
ENDBRANCH  21  24
ENDBRANCH   1  18
TORSDOF 5
ENDMDL
