MODEL 1
REMARK VINA RESULT:      -7.6      0.000      0.000
REMARK  3 active torsions:
REMARK  status: ('A' for Active; 'I' for Inactive)
REMARK    1  A    between atoms: C_8  and  C_9 
REMARK    2  A    between atoms: C_10  and  O_11 
REMARK    3  A    between atoms: C_24  and  N_25 
ROOT
HETATM    1  C   UNL     1      30.941  47.576  39.630  1.00  0.00     0.073 C 
HETATM    2  C   UNL     1      29.830  48.119  40.449  1.00  0.00     0.062 A 
HETATM    3  N   UNL     1      29.081  47.291  41.197  1.00  0.00    -0.177 NA
HETATM    4  N   UNL     1      28.168  48.097  41.774  1.00  0.00    -0.256 N 
HETATM    5  H   UNL     1      27.480  47.691  42.396  1.00  0.00     0.191 HD
HETATM    6  C   UNL     1      28.307  49.395  41.406  1.00  0.00     0.175 A 
HETATM    7  C   UNL     1      29.391  49.461  40.567  1.00  0.00     0.034 A 
HETATM    8  C   UNL     1      29.774  50.767  39.960  1.00  0.00     0.108 A 
HETATM    9  C   UNL     1      28.892  51.890  40.506  1.00  0.00     0.067 A 
HETATM   10  C   UNL     1      29.220  53.303  40.053  1.00  0.00     0.020 C 
HETATM   11  N   UNL     1      29.494  54.475  39.677  1.00  0.00    -0.096 N 
HETATM   12  C   UNL     1      27.846  51.676  41.351  1.00  0.00     0.139 A 
HETATM   13  O   UNL     1      27.517  50.385  41.808  1.00  0.00    -0.279 OA
ENDROOT
BRANCH   8  14
HETATM   14  C   UNL     1      31.284  50.956  40.148  1.00  0.00     0.000 A 
HETATM   15  C   UNL     1      32.093  50.937  38.978  1.00  0.00     0.076 A 
HETATM   16  C   UNL     1      33.466  51.163  39.064  1.00  0.00     0.038 A 
HETATM   17  C   UNL     1      34.060  51.409  40.296  1.00  0.00     0.015 A 
HETATM   18  C   UNL     1      33.306  51.425  41.471  1.00  0.00    -0.025 A 
HETATM   19  C   UNL     1      31.907  51.188  41.428  1.00  0.00    -0.016 A 
HETATM   20  C   UNL     1      33.961  51.685  42.687  1.00  0.00     0.012 A 
HETATM   21  C   UNL     1      31.240  51.205  42.681  1.00  0.00     0.013 A 
HETATM   22  C   UNL     1      31.900  51.464  43.886  1.00  0.00     0.001 A 
HETATM   23  C   UNL     1      33.263  51.709  43.889  1.00  0.00     0.001 A 
BRANCH  15  24
HETATM   24  O   UNL     1      31.445  50.692  37.792  1.00  0.00    -0.355 OA
HETATM   25  C   UNL     1      30.675  51.743  37.220  1.00  0.00     0.210 C 
ENDBRANCH  15  24
ENDBRANCH   8  14
BRANCH  12  26
HETATM   26  N   UNL     1      27.016  52.647  41.860  1.00  0.00    -0.282 NA
HETATM   27  H   UNL     1      26.027  52.539  41.649  1.00  0.00     0.126 HD
HETATM   28  H   UNL     1      27.197  52.830  42.844  1.00  0.00     0.126 HD
ENDBRANCH  12  26
TORSDOF 3
ENDMDL
MODEL 2
REMARK VINA RESULT:      -7.2      3.251      5.744
REMARK  3 active torsions:
REMARK  status: ('A' for Active; 'I' for Inactive)
REMARK    1  A    between atoms: C_8  and  C_9 
REMARK    2  A    between atoms: C_10  and  O_11 
REMARK    3  A    between atoms: C_24  and  N_25 
ROOT
HETATM    1  C   UNL     1      31.869  52.241  44.523  1.00  0.00     0.073 C 
HETATM    2  C   UNL     1      33.154  51.938  43.847  1.00  0.00     0.062 A 
HETATM    3  N   UNL     1      34.289  51.867  44.563  1.00  0.00    -0.177 NA
HETATM    4  N   UNL     1      35.245  51.609  43.649  1.00  0.00    -0.256 N 
HETATM    5  H   UNL     1      36.204  51.511  43.959  1.00  0.00     0.191 HD
HETATM    6  C   UNL     1      34.756  51.531  42.387  1.00  0.00     0.175 A 
HETATM    7  C   UNL     1      33.398  51.710  42.470  1.00  0.00     0.034 A 
HETATM    8  C   UNL     1      32.578  51.715  41.225  1.00  0.00     0.108 A 
HETATM    9  C   UNL     1      33.448  51.391  40.010  1.00  0.00     0.067 A 
HETATM   10  C   UNL     1      32.738  51.265  38.672  1.00  0.00     0.020 C 
HETATM   11  N   UNL     1      32.149  51.160  37.562  1.00  0.00    -0.096 N 
HETATM   12  C   UNL     1      34.797  51.225  40.080  1.00  0.00     0.139 A 
HETATM   13  O   UNL     1      35.492  51.316  41.302  1.00  0.00    -0.279 OA
ENDROOT
BRANCH   8  14
HETATM   14  C   UNL     1      31.371  50.796  41.445  1.00  0.00     0.000 A 
HETATM   15  C   UNL     1      31.639  49.449  41.820  1.00  0.00     0.076 A 
HETATM   16  C   UNL     1      30.592  48.572  42.097  1.00  0.00     0.038 A 
HETATM   17  C   UNL     1      29.273  49.003  42.009  1.00  0.00     0.015 A 
HETATM   18  C   UNL     1      28.965  50.312  41.634  1.00  0.00    -0.025 A 
HETATM   19  C   UNL     1      30.002  51.233  41.332  1.00  0.00    -0.016 A 
HETATM   20  C   UNL     1      27.614  50.692  41.568  1.00  0.00     0.012 A 
HETATM   21  C   UNL     1      29.579  52.531  40.940  1.00  0.00     0.013 A 
HETATM   22  C   UNL     1      28.231  52.900  40.877  1.00  0.00     0.001 A 
HETATM   23  C   UNL     1      27.247  51.980  41.196  1.00  0.00     0.001 A 
BRANCH  15  24
HETATM   24  O   UNL     1      32.962  49.088  41.891  1.00  0.00    -0.355 OA
HETATM   25  C   UNL     1      33.336  47.813  41.381  1.00  0.00     0.210 C 
ENDBRANCH  15  24
ENDBRANCH   8  14
BRANCH  12  26
HETATM   26  N   UNL     1      35.625  50.944  39.018  1.00  0.00    -0.282 NA
HETATM   27  H   UNL     1      36.389  51.598  38.869  1.00  0.00     0.126 HD
HETATM   28  H   UNL     1      35.923  49.972  39.010  1.00  0.00     0.126 HD
ENDBRANCH  12  26
TORSDOF 3
ENDMDL
MODEL 3
REMARK VINA RESULT:      -7.2      2.215      3.233
REMARK  3 active torsions:
REMARK  status: ('A' for Active; 'I' for Inactive)
REMARK    1  A    between atoms: C_8  and  C_9 
REMARK    2  A    between atoms: C_10  and  O_11 
REMARK    3  A    between atoms: C_24  and  N_25 
ROOT
HETATM    1  C   UNL     1      27.738  47.320  40.898  1.00  0.00     0.073 C 
HETATM    2  C   UNL     1      27.345  48.664  40.410  1.00  0.00     0.062 A 
HETATM    3  N   UNL     1      26.105  49.127  40.647  1.00  0.00    -0.177 NA
HETATM    4  N   UNL     1      26.082  50.337  40.053  1.00  0.00    -0.256 N 
HETATM    5  H   UNL     1      25.234  50.888  40.098  1.00  0.00     0.191 HD
HETATM    6  C   UNL     1      27.254  50.643  39.443  1.00  0.00     0.175 A 
HETATM    7  C   UNL     1      28.112  49.598  39.672  1.00  0.00     0.034 A 
HETATM    8  C   UNL     1      29.483  49.628  39.086  1.00  0.00     0.108 A 
HETATM    9  C   UNL     1      29.732  50.959  38.376  1.00  0.00     0.067 A 
HETATM   10  C   UNL     1      31.123  51.182  37.805  1.00  0.00     0.020 C 
HETATM   11  N   UNL     1      32.277  51.367  37.332  1.00  0.00    -0.096 N 
HETATM   12  C   UNL     1      28.779  51.920  38.233  1.00  0.00     0.139 A 
HETATM   13  O   UNL     1      27.483  51.761  38.762  1.00  0.00    -0.279 OA
ENDROOT
BRANCH   8  14
HETATM   14  C   UNL     1      30.482  49.264  40.190  1.00  0.00     0.000 A 
HETATM   15  C   UNL     1      31.131  48.002  40.090  1.00  0.00     0.076 A 
HETATM   16  C   UNL     1      32.097  47.628  41.023  1.00  0.00     0.038 A 
HETATM   17  C   UNL     1      32.437  48.486  42.063  1.00  0.00     0.015 A 
HETATM   18  C   UNL     1      31.817  49.729  42.205  1.00  0.00    -0.025 A 
HETATM   19  C   UNL     1      30.819  50.142  41.283  1.00  0.00    -0.016 A 
HETATM   20  C   UNL     1      32.205  50.556  43.273  1.00  0.00     0.012 A 
HETATM   21  C   UNL     1      30.237  51.413  41.532  1.00  0.00     0.013 A 
HETATM   22  C   UNL     1      30.630  52.229  42.598  1.00  0.00     0.001 A 
HETATM   23  C   UNL     1      31.619  51.802  43.467  1.00  0.00     0.001 A 
BRANCH  15  24
HETATM   24  O   UNL     1      30.753  47.203  39.039  1.00  0.00    -0.355 OA
HETATM   25  C   UNL     1      30.069  45.989  39.333  1.00  0.00     0.210 C 
ENDBRANCH  15  24
ENDBRANCH   8  14
BRANCH  12  26
HETATM   26  N   UNL     1      28.948  53.127  37.595  1.00  0.00    -0.282 NA
HETATM   27  H   UNL     1      29.906  53.372  37.361  1.00  0.00     0.126 HD
HETATM   28  H   UNL     1      28.304  53.243  36.816  1.00  0.00     0.126 HD
ENDBRANCH  12  26
TORSDOF 3
ENDMDL
MODEL 4
REMARK VINA RESULT:      -7.2     11.093     13.530
REMARK  3 active torsions:
REMARK  status: ('A' for Active; 'I' for Inactive)
REMARK    1  A    between atoms: C_8  and  C_9 
REMARK    2  A    between atoms: C_10  and  O_11 
REMARK    3  A    between atoms: C_24  and  N_25 
ROOT
HETATM    1  C   UNL     1      18.705  48.958  50.999  1.00  0.00     0.073 C 
HETATM    2  C   UNL     1      18.337  49.926  49.937  1.00  0.00     0.062 A 
HETATM    3  N   UNL     1      17.910  51.156  50.269  1.00  0.00    -0.177 NA
HETATM    4  N   UNL     1      17.642  51.747  49.088  1.00  0.00    -0.256 N 
HETATM    5  H   UNL     1      17.299  52.700  49.083  1.00  0.00     0.191 HD
HETATM    6  C   UNL     1      17.871  50.930  48.029  1.00  0.00     0.175 A 
HETATM    7  C   UNL     1      18.350  49.746  48.532  1.00  0.00     0.034 A 
HETATM    8  C   UNL     1      18.660  48.623  47.602  1.00  0.00     0.108 A 
HETATM    9  C   UNL     1      18.476  49.064  46.150  1.00  0.00     0.067 A 
HETATM   10  C   UNL     1      18.845  48.057  45.074  1.00  0.00     0.020 C 
HETATM   11  N   UNL     1      19.152  47.220  44.182  1.00  0.00    -0.096 N 
HETATM   12  C   UNL     1      17.998  50.289  45.795  1.00  0.00     0.139 A 
HETATM   13  O   UNL     1      17.659  51.258  46.759  1.00  0.00    -0.279 OA
ENDROOT
BRANCH   8  14
HETATM   14  C   UNL     1      20.047  48.076  47.961  1.00  0.00     0.000 A 
HETATM   15  C   UNL     1      20.151  46.678  48.207  1.00  0.00     0.076 A 
HETATM   16  C   UNL     1      21.389  46.099  48.479  1.00  0.00     0.038 A 
HETATM   17  C   UNL     1      22.538  46.882  48.512  1.00  0.00     0.015 A 
HETATM   18  C   UNL     1      22.479  48.259  48.287  1.00  0.00    -0.025 A 
HETATM   19  C   UNL     1      21.236  48.889  48.019  1.00  0.00    -0.016 A 
HETATM   20  C   UNL     1      23.674  48.998  48.329  1.00  0.00     0.012 A 
HETATM   21  C   UNL     1      21.286  50.295  47.828  1.00  0.00     0.013 A 
HETATM   22  C   UNL     1      22.480  51.022  47.871  1.00  0.00     0.001 A 
HETATM   23  C   UNL     1      23.677  50.372  48.117  1.00  0.00     0.001 A 
BRANCH  15  24
HETATM   24  O   UNL     1      18.981  45.961  48.157  1.00  0.00    -0.355 OA
HETATM   25  C   UNL     1      18.908  44.860  47.257  1.00  0.00     0.210 C 
ENDBRANCH  15  24
ENDBRANCH   8  14
BRANCH  12  26
HETATM   26  N   UNL     1      17.802  50.730  44.507  1.00  0.00    -0.282 NA
HETATM   27  H   UNL     1      18.421  51.474  44.196  1.00  0.00     0.126 HD
HETATM   28  H   UNL     1      17.737  49.961  43.844  1.00  0.00     0.126 HD
ENDBRANCH  12  26
TORSDOF 3
ENDMDL
MODEL 5
REMARK VINA RESULT:      -7.0     12.063     14.634
REMARK  3 active torsions:
REMARK  status: ('A' for Active; 'I' for Inactive)
REMARK    1  A    between atoms: C_8  and  C_9 
REMARK    2  A    between atoms: C_10  and  O_11 
REMARK    3  A    between atoms: C_24  and  N_25 
ROOT
HETATM    1  C   UNL     1      17.219  52.917  45.081  1.00  0.00     0.073 C 
HETATM    2  C   UNL     1      17.584  51.575  44.566  1.00  0.00     0.062 A 
HETATM    3  N   UNL     1      18.055  51.444  43.314  1.00  0.00    -0.177 NA
HETATM    4  N   UNL     1      18.253  50.119  43.170  1.00  0.00    -0.256 N 
HETATM    5  H   UNL     1      18.612  49.770  42.288  1.00  0.00     0.191 HD
HETATM    6  C   UNL     1      17.911  49.414  44.276  1.00  0.00     0.175 A 
HETATM    7  C   UNL     1      17.498  50.322  45.219  1.00  0.00     0.034 A 
HETATM    8  C   UNL     1      17.017  49.839  46.545  1.00  0.00     0.108 A 
HETATM    9  C   UNL     1      17.185  48.324  46.656  1.00  0.00     0.067 A 
HETATM   10  C   UNL     1      16.826  47.690  47.990  1.00  0.00     0.020 C 
HETATM   11  N   UNL     1      16.528  47.164  49.097  1.00  0.00    -0.096 N 
HETATM   12  C   UNL     1      17.623  47.543  45.631  1.00  0.00     0.139 A 
HETATM   13  O   UNL     1      17.982  48.091  44.384  1.00  0.00    -0.279 OA
ENDROOT
BRANCH   8  14
HETATM   14  C   UNL     1      17.709  50.668  47.633  1.00  0.00     0.000 A 
HETATM   15  C   UNL     1      16.891  51.540  48.406  1.00  0.00     0.076 A 
HETATM   16  C   UNL     1      17.439  52.279  49.453  1.00  0.00     0.038 A 
HETATM   17  C   UNL     1      18.792  52.172  49.755  1.00  0.00     0.015 A 
HETATM   18  C   UNL     1      19.632  51.338  49.015  1.00  0.00    -0.025 A 
HETATM   19  C   UNL     1      19.116  50.578  47.933  1.00  0.00    -0.016 A 
HETATM   20  C   UNL     1      20.991  51.266  49.369  1.00  0.00     0.012 A 
HETATM   21  C   UNL     1      20.060  49.780  47.234  1.00  0.00     0.013 A 
HETATM   22  C   UNL     1      21.410  49.715  47.594  1.00  0.00     0.001 A 
HETATM   23  C   UNL     1      21.875  50.456  48.667  1.00  0.00     0.001 A 
BRANCH  15  24
HETATM   24  O   UNL     1      15.564  51.597  48.060  1.00  0.00    -0.355 OA
HETATM   25  C   UNL     1      14.962  52.880  47.922  1.00  0.00     0.210 C 
ENDBRANCH  15  24
ENDBRANCH   8  14
BRANCH  12  26
HETATM   26  N   UNL     1      17.780  46.177  45.675  1.00  0.00    -0.282 NA
HETATM   27  H   UNL     1      18.234  45.811  46.508  1.00  0.00     0.126 HD
HETATM   28  H   UNL     1      16.923  45.684  45.439  1.00  0.00     0.126 HD
ENDBRANCH  12  26
TORSDOF 3
ENDMDL
MODEL 6
REMARK VINA RESULT:      -7.0     11.472     14.308
REMARK  3 active torsions:
REMARK  status: ('A' for Active; 'I' for Inactive)
REMARK    1  A    between atoms: C_8  and  C_9 
REMARK    2  A    between atoms: C_10  and  O_11 
REMARK    3  A    between atoms: C_24  and  N_25 
ROOT
HETATM    1  C   UNL     1      22.306  50.550  47.606  1.00  0.00     0.073 C 
HETATM    2  C   UNL     1      22.155  49.188  48.173  1.00  0.00     0.062 A 
HETATM    3  N   UNL     1      23.130  48.669  48.939  1.00  0.00    -0.177 NA
HETATM    4  N   UNL     1      22.687  47.436  49.254  1.00  0.00    -0.256 N 
HETATM    5  H   UNL     1      23.265  46.842  49.837  1.00  0.00     0.191 HD
HETATM    6  C   UNL     1      21.480  47.157  48.703  1.00  0.00     0.175 A 
HETATM    7  C   UNL     1      21.083  48.276  48.015  1.00  0.00     0.034 A 
HETATM    8  C   UNL     1      19.797  48.260  47.262  1.00  0.00     0.108 A 
HETATM    9  C   UNL     1      19.054  46.944  47.498  1.00  0.00     0.067 A 
HETATM   10  C   UNL     1      17.676  46.812  46.871  1.00  0.00     0.020 C 
HETATM   11  N   UNL     1      16.533  46.703  46.351  1.00  0.00    -0.096 N 
HETATM   12  C   UNL     1      19.572  45.914  48.222  1.00  0.00     0.139 A 
HETATM   13  O   UNL     1      20.837  46.001  48.833  1.00  0.00    -0.279 OA
ENDROOT
BRANCH   8  14
HETATM   14  C   UNL     1      19.022  49.535  47.614  1.00  0.00     0.000 A 
HETATM   15  C   UNL     1      18.873  49.845  48.995  1.00  0.00     0.076 A 
HETATM   16  C   UNL     1      18.234  51.019  49.390  1.00  0.00     0.038 A 
HETATM   17  C   UNL     1      17.735  51.901  48.439  1.00  0.00     0.015 A 
HETATM   18  C   UNL     1      17.850  51.631  47.074  1.00  0.00    -0.025 A 
HETATM   19  C   UNL     1      18.483  50.440  46.630  1.00  0.00    -0.016 A 
HETATM   20  C   UNL     1      17.331  52.562  46.158  1.00  0.00     0.012 A 
HETATM   21  C   UNL     1      18.526  50.252  45.223  1.00  0.00     0.013 A 
HETATM   22  C   UNL     1      18.006  51.185  44.319  1.00  0.00     0.001 A 
HETATM   23  C   UNL     1      17.412  52.344  44.787  1.00  0.00     0.001 A 
BRANCH  15  24
HETATM   24  O   UNL     1      19.390  48.935  49.884  1.00  0.00    -0.355 OA
HETATM   25  C   UNL     1      18.622  48.614  51.038  1.00  0.00     0.210 C 
ENDBRANCH  15  24
ENDBRANCH   8  14
BRANCH  12  26
HETATM   26  N   UNL     1      18.951  44.708  48.454  1.00  0.00    -0.282 NA
HETATM   27  H   UNL     1      18.915  44.070  47.663  1.00  0.00     0.126 HD
HETATM   28  H   UNL     1      19.280  44.266  49.309  1.00  0.00     0.126 HD
ENDBRANCH  12  26
TORSDOF 3
ENDMDL
MODEL 7
REMARK VINA RESULT:      -7.0      2.338      5.365
REMARK  3 active torsions:
REMARK  status: ('A' for Active; 'I' for Inactive)
REMARK    1  A    between atoms: C_8  and  C_9 
REMARK    2  A    between atoms: C_10  and  O_11 
REMARK    3  A    between atoms: C_24  and  N_25 
ROOT
HETATM    1  C   UNL     1      31.962  49.881  43.110  1.00  0.00     0.073 C 
HETATM    2  C   UNL     1      32.547  50.105  41.765  1.00  0.00     0.062 A 
HETATM    3  N   UNL     1      33.863  49.922  41.567  1.00  0.00    -0.177 NA
HETATM    4  N   UNL     1      34.052  50.233  40.270  1.00  0.00    -0.256 N 
HETATM    5  H   UNL     1      34.986  50.170  39.882  1.00  0.00     0.191 HD
HETATM    6  C   UNL     1      32.908  50.618  39.651  1.00  0.00     0.175 A 
HETATM    7  C   UNL     1      31.899  50.523  40.577  1.00  0.00     0.034 A 
HETATM    8  C   UNL     1      30.513  50.921  40.199  1.00  0.00     0.108 A 
HETATM    9  C   UNL     1      30.447  51.286  38.715  1.00  0.00     0.067 A 
HETATM   10  C   UNL     1      29.077  51.624  38.153  1.00  0.00     0.020 C 
HETATM   11  N   UNL     1      27.939  51.905  37.686  1.00  0.00    -0.096 N 
HETATM   12  C   UNL     1      31.541  51.326  37.906  1.00  0.00     0.139 A 
HETATM   13  O   UNL     1      32.826  51.004  38.382  1.00  0.00    -0.279 OA
ENDROOT
BRANCH   8  14
HETATM   14  C   UNL     1      29.558  49.813  40.656  1.00  0.00     0.000 A 
HETATM   15  C   UNL     1      28.541  50.172  41.584  1.00  0.00     0.076 A 
HETATM   16  C   UNL     1      27.598  49.233  41.998  1.00  0.00     0.038 A 
HETATM   17  C   UNL     1      27.640  47.933  41.508  1.00  0.00     0.015 A 
HETATM   18  C   UNL     1      28.628  47.535  40.604  1.00  0.00    -0.025 A 
HETATM   19  C   UNL     1      29.613  48.458  40.167  1.00  0.00    -0.016 A 
HETATM   20  C   UNL     1      28.618  46.208  40.139  1.00  0.00     0.012 A 
HETATM   21  C   UNL     1      30.583  47.944  39.266  1.00  0.00     0.013 A 
HETATM   22  C   UNL     1      30.565  46.622  38.809  1.00  0.00     0.001 A 
HETATM   23  C   UNL     1      29.578  45.754  39.242  1.00  0.00     0.001 A 
BRANCH  15  24
HETATM   24  O   UNL     1      28.552  51.472  42.028  1.00  0.00    -0.355 OA
HETATM   25  C   UNL     1      27.618  52.383  41.458  1.00  0.00     0.210 C 
ENDBRANCH  15  24
ENDBRANCH   8  14
BRANCH  12  26
HETATM   26  N   UNL     1      31.537  51.659  36.571  1.00  0.00    -0.282 NA
HETATM   27  H   UNL     1      30.758  51.295  36.028  1.00  0.00     0.126 HD
HETATM   28  H   UNL     1      31.698  52.652  36.423  1.00  0.00     0.126 HD
ENDBRANCH  12  26
TORSDOF 3
ENDMDL
MODEL 8
REMARK VINA RESULT:      -6.9     11.621     14.042
REMARK  3 active torsions:
REMARK  status: ('A' for Active; 'I' for Inactive)
REMARK    1  A    between atoms: C_8  and  C_9 
REMARK    2  A    between atoms: C_10  and  O_11 
REMARK    3  A    between atoms: C_24  and  N_25 
ROOT
HETATM    1  C   UNL     1      20.303  46.042  48.852  1.00  0.00     0.073 C 
HETATM    2  C   UNL     1      19.102  45.871  47.999  1.00  0.00     0.062 A 
HETATM    3  N   UNL     1      18.403  44.724  48.047  1.00  0.00    -0.177 NA
HETATM    4  N   UNL     1      17.416  44.896  47.145  1.00  0.00    -0.256 N 
HETATM    5  H   UNL     1      16.748  44.148  47.002  1.00  0.00     0.191 HD
HETATM    6  C   UNL     1      17.479  46.100  46.524  1.00  0.00     0.175 A 
HETATM    7  C   UNL     1      18.541  46.778  47.066  1.00  0.00     0.034 A 
HETATM    8  C   UNL     1      18.890  48.133  46.552  1.00  0.00     0.108 A 
HETATM    9  C   UNL     1      17.864  48.593  45.517  1.00  0.00     0.067 A 
HETATM   10  C   UNL     1      18.028  50.000  44.965  1.00  0.00     0.020 C 
HETATM   11  N   UNL     1      18.166  51.167  44.508  1.00  0.00    -0.096 N 
HETATM   12  C   UNL     1      16.842  47.808  45.077  1.00  0.00     0.139 A 
HETATM   13  O   UNL     1      16.643  46.506  45.573  1.00  0.00    -0.279 OA
ENDROOT
BRANCH   8  14
HETATM   14  C   UNL     1      19.087  49.063  47.754  1.00  0.00     0.000 A 
HETATM   15  C   UNL     1      17.947  49.329  48.565  1.00  0.00     0.076 A 
HETATM   16  C   UNL     1      18.062  50.116  49.709  1.00  0.00     0.038 A 
HETATM   17  C   UNL     1      19.293  50.650  50.073  1.00  0.00     0.015 A 
HETATM   18  C   UNL     1      20.434  50.424  49.300  1.00  0.00    -0.025 A 
HETATM   19  C   UNL     1      20.357  49.639  48.121  1.00  0.00    -0.016 A 
HETATM   20  C   UNL     1      21.652  50.986  49.720  1.00  0.00     0.012 A 
HETATM   21  C   UNL     1      21.570  49.490  47.398  1.00  0.00     0.013 A 
HETATM   22  C   UNL     1      22.778  50.054  47.824  1.00  0.00     0.001 A 
HETATM   23  C   UNL     1      22.820  50.799  48.989  1.00  0.00     0.001 A 
BRANCH  15  24
HETATM   24  O   UNL     1      16.763  48.769  48.153  1.00  0.00    -0.355 OA
HETATM   25  C   UNL     1      15.613  49.606  48.089  1.00  0.00     0.210 C 
ENDBRANCH  15  24
ENDBRANCH   8  14
BRANCH  12  26
HETATM   26  N   UNL     1      15.901  48.169  44.140  1.00  0.00    -0.282 NA
HETATM   27  H   UNL     1      15.501  47.407  43.599  1.00  0.00     0.126 HD
HETATM   28  H   UNL     1      15.200  48.798  44.524  1.00  0.00     0.126 HD
ENDBRANCH  12  26
TORSDOF 3
ENDMDL
MODEL 9
REMARK VINA RESULT:      -6.9     24.971     27.194
REMARK  3 active torsions:
REMARK  status: ('A' for Active; 'I' for Inactive)
REMARK    1  A    between atoms: C_8  and  C_9 
REMARK    2  A    between atoms: C_10  and  O_11 
REMARK    3  A    between atoms: C_24  and  N_25 
ROOT
HETATM    1  C   UNL     1      37.122  43.741  63.277  1.00  0.00     0.073 C 
HETATM    2  C   UNL     1      38.590  43.722  63.496  1.00  0.00     0.062 A 
HETATM    3  N   UNL     1      39.413  43.387  62.488  1.00  0.00    -0.177 NA
HETATM    4  N   UNL     1      40.645  43.446  63.031  1.00  0.00    -0.256 N 
HETATM    5  H   UNL     1      41.447  43.228  62.451  1.00  0.00     0.191 HD
HETATM    6  C   UNL     1      40.624  43.789  64.343  1.00  0.00     0.175 A 
HETATM    7  C   UNL     1      39.312  44.006  64.680  1.00  0.00     0.034 A 
HETATM    8  C   UNL     1      38.962  44.365  66.084  1.00  0.00     0.108 A 
HETATM    9  C   UNL     1      40.229  44.542  66.922  1.00  0.00     0.067 A 
HETATM   10  C   UNL     1      40.042  45.003  68.359  1.00  0.00     0.020 C 
HETATM   11  N   UNL     1      39.887  45.385  69.550  1.00  0.00    -0.096 N 
HETATM   12  C   UNL     1      41.481  44.300  66.446  1.00  0.00     0.139 A 
HETATM   13  O   UNL     1      41.700  43.888  65.117  1.00  0.00    -0.279 OA
ENDROOT
BRANCH   8  14
HETATM   14  C   UNL     1      38.015  45.569  66.047  1.00  0.00     0.000 A 
HETATM   15  C   UNL     1      36.677  45.359  66.482  1.00  0.00     0.076 A 
HETATM   16  C   UNL     1      35.775  46.420  66.533  1.00  0.00     0.038 A 
HETATM   17  C   UNL     1      36.174  47.698  66.160  1.00  0.00     0.015 A 
HETATM   18  C   UNL     1      37.474  47.948  65.716  1.00  0.00    -0.025 A 
HETATM   19  C   UNL     1      38.419  46.892  65.637  1.00  0.00    -0.016 A 
HETATM   20  C   UNL     1      37.822  49.262  65.357  1.00  0.00     0.012 A 
HETATM   21  C   UNL     1      39.705  47.249  65.152  1.00  0.00     0.013 A 
HETATM   22  C   UNL     1      40.041  48.560  64.797  1.00  0.00     0.001 A 
HETATM   23  C   UNL     1      39.100  49.569  64.904  1.00  0.00     0.001 A 
BRANCH  15  24
HETATM   24  O   UNL     1      36.347  44.074  66.839  1.00  0.00    -0.355 OA
HETATM   25  C   UNL     1      35.077  43.572  66.438  1.00  0.00     0.210 C 
ENDBRANCH  15  24
ENDBRANCH   8  14
BRANCH  12  26
HETATM   26  N   UNL     1      42.649  44.432  67.160  1.00  0.00    -0.282 NA
HETATM   27  H   UNL     1      42.545  44.489  68.170  1.00  0.00     0.126 HD
HETATM   28  H   UNL     1      43.355  43.760  66.869  1.00  0.00     0.126 HD
ENDBRANCH  12  26
TORSDOF 3
ENDMDL
MODEL 10
REMARK VINA RESULT:      -6.8     11.598     14.331
REMARK  3 active torsions:
REMARK  status: ('A' for Active; 'I' for Inactive)
REMARK    1  A    between atoms: C_8  and  C_9 
REMARK    2  A    between atoms: C_10  and  O_11 
REMARK    3  A    between atoms: C_24  and  N_25 
ROOT
HETATM    1  C   UNL     1      19.981  46.715  49.112  1.00  0.00     0.073 C 
HETATM    2  C   UNL     1      18.845  46.471  48.189  1.00  0.00     0.062 A 
HETATM    3  N   UNL     1      18.061  45.393  48.361  1.00  0.00    -0.177 NA
HETATM    4  N   UNL     1      17.169  45.465  47.354  1.00  0.00    -0.256 N 
HETATM    5  H   UNL     1      16.461  44.744  47.274  1.00  0.00     0.191 HD
HETATM    6  C   UNL     1      17.372  46.537  46.549  1.00  0.00     0.175 A 
HETATM    7  C   UNL     1      18.434  47.234  47.070  1.00  0.00     0.034 A 
HETATM    8  C   UNL     1      18.924  48.458  46.373  1.00  0.00     0.108 A 
HETATM    9  C   UNL     1      18.025  48.792  45.182  1.00  0.00     0.067 A 
HETATM   10  C   UNL     1      18.340  50.070  44.423  1.00  0.00     0.020 C 
HETATM   11  N   UNL     1      18.601  51.131  43.793  1.00  0.00    -0.096 N 
HETATM   12  C   UNL     1      16.988  48.005  44.784  1.00  0.00     0.139 A 
HETATM   13  O   UNL     1      16.652  46.822  45.470  1.00  0.00    -0.279 OA
ENDROOT
BRANCH   8  14
HETATM   14  C   UNL     1      19.088  49.568  47.417  1.00  0.00     0.000 A 
HETATM   15  C   UNL     1      20.416  49.936  47.773  1.00  0.00     0.076 A 
HETATM   16  C   UNL     1      20.644  50.978  48.669  1.00  0.00     0.038 A 
HETATM   17  C   UNL     1      19.576  51.672  49.226  1.00  0.00     0.015 A 
HETATM   18  C   UNL     1      18.257  51.336  48.913  1.00  0.00    -0.025 A 
HETATM   19  C   UNL     1      17.982  50.273  48.014  1.00  0.00    -0.016 A 
HETATM   20  C   UNL     1      17.217  52.076  49.503  1.00  0.00     0.012 A 
HETATM   21  C   UNL     1      16.607  50.001  47.783  1.00  0.00     0.013 A 
HETATM   22  C   UNL     1      15.579  50.742  48.375  1.00  0.00     0.001 A 
HETATM   23  C   UNL     1      15.885  51.785  49.233  1.00  0.00     0.001 A 
BRANCH  15  24
HETATM   24  O   UNL     1      21.427  49.215  47.186  1.00  0.00    -0.355 OA
HETATM   25  C   UNL     1      22.648  49.067  47.902  1.00  0.00     0.210 C 
ENDBRANCH  15  24
ENDBRANCH   8  14
BRANCH  12  26
HETATM   26  N   UNL     1      16.158  48.254  43.716  1.00  0.00    -0.282 NA
HETATM   27  H   UNL     1      15.575  47.477  43.419  1.00  0.00     0.126 HD
HETATM   28  H   UNL     1      15.641  49.122  43.826  1.00  0.00     0.126 HD
ENDBRANCH  12  26
TORSDOF 3
ENDMDL
