MODEL 1
REMARK VINA RESULT:      -9.1      0.000      0.000
REMARK  5 active torsions:
REMARK  status: ('A' for Active; 'I' for Inactive)
REMARK    1  A    between atoms: C_6  and  N_7 
REMARK       I    between atoms: N_7  and  C_8 
REMARK    2  A    between atoms: C_8  and  C_9 
REMARK    3  A    between atoms: C_9  and  O_10 
REMARK    4  A    between atoms: O_10  and  C_11 
REMARK    5  A    between atoms: C_19  and  C_20 
ROOT
HETATM    1  C   UNL     1      26.580  43.454  49.792  1.00  0.00     0.073 C 
HETATM    2  C   UNL     1      26.304  43.950  51.164  1.00  0.00     0.065 A 
HETATM    3  N   UNL     1      26.373  43.111  52.205  1.00  0.00    -0.177 NA
HETATM    4  N   UNL     1      26.045  43.874  53.259  1.00  0.00    -0.262 N 
HETATM    5  H   UNL     1      26.056  43.447  54.181  1.00  0.00     0.191 HD
HETATM    6  C   UNL     1      25.782  45.181  52.945  1.00  0.00     0.137 A 
HETATM    7  C   UNL     1      25.940  45.261  51.573  1.00  0.00     0.046 A 
ENDROOT
BRANCH   6   8
HETATM    8  N   UNL     1      25.505  46.186  53.850  1.00  0.00    -0.309 N 
HETATM    9  C   UNL     1      26.379  46.987  54.535  1.00  0.00     0.247 C 
HETATM   10  O   UNL     1      25.946  48.010  55.074  1.00  0.00    -0.271 OA
HETATM   11  H   UNL     1      24.530  46.402  54.022  1.00  0.00     0.170 HD
BRANCH   9  12
HETATM   12  C   UNL     1      27.810  46.513  54.788  1.00  0.00     0.278 C 
BRANCH  12  13
HETATM   13  O   UNL     1      28.237  46.634  56.134  1.00  0.00    -0.342 OA
BRANCH  13  14
HETATM   14  C   UNL     1      29.257  45.794  56.512  1.00  0.00     0.069 A 
HETATM   15  C   UNL     1      29.636  44.856  55.545  1.00  0.00     0.040 A 
HETATM   16  C   UNL     1      30.651  43.934  55.812  1.00  0.00     0.045 A 
HETATM   17  C   UNL     1      31.289  43.956  57.044  1.00  0.00     0.116 A 
HETATM   18  F   UNL     1      32.263  43.075  57.303  1.00  0.00    -0.206 F 
HETATM   19  C   UNL     1      30.929  44.883  58.013  1.00  0.00     0.045 A 
HETATM   20  C   UNL     1      29.912  45.805  57.749  1.00  0.00     0.040 A 
ENDBRANCH  13  14
ENDBRANCH  12  13
ENDBRANCH   9  12
ENDBRANCH   6   8
BRANCH   7  21
HETATM   21  C   UNL     1      25.598  46.425  50.779  1.00  0.00    -0.020 A 
HETATM   22  C   UNL     1      24.299  46.620  50.298  1.00  0.00     0.014 A 
HETATM   23  C   UNL     1      24.015  47.719  49.481  1.00  0.00     0.020 A 
HETATM   24  C   UNL     1      25.027  48.621  49.153  1.00  0.00     0.011 A 
HETATM   25 BR   UNL     1      24.647  50.094  48.030  1.00  0.00    -0.051 Br
HETATM   26  C   UNL     1      26.319  48.443  49.640  1.00  0.00     0.020 A 
HETATM   27  C   UNL     1      26.604  47.344  50.454  1.00  0.00     0.014 A 
ENDBRANCH   7  21
TORSDOF 5
ENDMDL
MODEL 2
REMARK VINA RESULT:      -8.7      4.464      8.123
REMARK  5 active torsions:
REMARK  status: ('A' for Active; 'I' for Inactive)
REMARK    1  A    between atoms: C_6  and  N_7 
REMARK       I    between atoms: N_7  and  C_8 
REMARK    2  A    between atoms: C_8  and  C_9 
REMARK    3  A    between atoms: C_9  and  O_10 
REMARK    4  A    between atoms: O_10  and  C_11 
REMARK    5  A    between atoms: C_19  and  C_20 
ROOT
HETATM    1  C   UNL     1      26.805  48.417  55.596  1.00  0.00     0.073 C 
HETATM    2  C   UNL     1      26.485  47.472  54.497  1.00  0.00     0.065 A 
HETATM    3  N   UNL     1      25.401  47.672  53.738  1.00  0.00    -0.177 NA
HETATM    4  N   UNL     1      25.408  46.636  52.883  1.00  0.00    -0.262 N 
HETATM    5  H   UNL     1      24.675  46.592  52.181  1.00  0.00     0.191 HD
HETATM    6  C   UNL     1      26.465  45.781  53.048  1.00  0.00     0.137 A 
HETATM    7  C   UNL     1      27.190  46.302  54.105  1.00  0.00     0.046 A 
ENDROOT
BRANCH   6   8
HETATM    8  N   UNL     1      26.749  44.691  52.249  1.00  0.00    -0.309 N 
HETATM    9  C   UNL     1      26.933  44.647  50.893  1.00  0.00     0.247 C 
HETATM   10  O   UNL     1      27.458  43.645  50.399  1.00  0.00    -0.271 OA
HETATM   11  H   UNL     1      26.877  43.797  52.709  1.00  0.00     0.170 HD
BRANCH   9  12
HETATM   12  C   UNL     1      26.319  45.729  50.005  1.00  0.00     0.278 C 
BRANCH  12  13
HETATM   13  O   UNL     1      26.894  47.015  50.167  1.00  0.00    -0.342 OA
BRANCH  13  14
HETATM   14  C   UNL     1      26.256  48.039  49.508  1.00  0.00     0.069 A 
HETATM   15  C   UNL     1      24.860  48.007  49.582  1.00  0.00     0.040 A 
HETATM   16  C   UNL     1      24.094  48.983  48.940  1.00  0.00     0.045 A 
HETATM   17  C   UNL     1      24.728  49.993  48.229  1.00  0.00     0.116 A 
HETATM   18  F   UNL     1      23.998  50.931  47.614  1.00  0.00    -0.206 F 
HETATM   19  C   UNL     1      26.113  50.042  48.149  1.00  0.00     0.045 A 
HETATM   20  C   UNL     1      26.881  49.065  48.789  1.00  0.00     0.040 A 
ENDBRANCH  13  14
ENDBRANCH  12  13
ENDBRANCH   9  12
ENDBRANCH   6   8
BRANCH   7  21
HETATM   21  C   UNL     1      28.306  45.629  54.737  1.00  0.00    -0.020 A 
HETATM   22  C   UNL     1      28.726  44.363  54.314  1.00  0.00     0.014 A 
HETATM   23  C   UNL     1      29.765  43.712  54.985  1.00  0.00     0.020 A 
HETATM   24  C   UNL     1      30.385  44.329  56.072  1.00  0.00     0.011 A 
HETATM   25 BR   UNL     1      31.776  43.438  56.993  1.00  0.00    -0.051 Br
HETATM   26  C   UNL     1      29.985  45.595  56.490  1.00  0.00     0.020 A 
HETATM   27  C   UNL     1      28.945  46.245  55.821  1.00  0.00     0.014 A 
ENDBRANCH   7  21
TORSDOF 5
ENDMDL
MODEL 3
REMARK VINA RESULT:      -8.5      2.890      4.147
REMARK  5 active torsions:
REMARK  status: ('A' for Active; 'I' for Inactive)
REMARK    1  A    between atoms: C_6  and  N_7 
REMARK       I    between atoms: N_7  and  C_8 
REMARK    2  A    between atoms: C_8  and  C_9 
REMARK    3  A    between atoms: C_9  and  O_10 
REMARK    4  A    between atoms: O_10  and  C_11 
REMARK    5  A    between atoms: C_19  and  C_20 
ROOT
HETATM    1  C   UNL     1      28.485  40.644  47.841  1.00  0.00     0.073 C 
HETATM    2  C   UNL     1      28.314  40.496  49.308  1.00  0.00     0.065 A 
HETATM    3  N   UNL     1      28.903  39.480  49.951  1.00  0.00    -0.177 NA
HETATM    4  N   UNL     1      28.520  39.639  51.228  1.00  0.00    -0.262 N 
HETATM    5  H   UNL     1      28.875  38.983  51.918  1.00  0.00     0.191 HD
HETATM    6  C   UNL     1      27.719  40.729  51.441  1.00  0.00     0.137 A 
HETATM    7  C   UNL     1      27.562  41.311  50.196  1.00  0.00     0.046 A 
ENDROOT
BRANCH   6   8
HETATM    8  N   UNL     1      27.260  41.161  52.669  1.00  0.00    -0.309 N 
HETATM    9  C   UNL     1      27.685  42.228  53.416  1.00  0.00     0.247 C 
HETATM   10  O   UNL     1      26.971  42.625  54.341  1.00  0.00    -0.271 OA
HETATM   11  H   UNL     1      26.481  40.659  53.079  1.00  0.00     0.170 HD
BRANCH   9  12
HETATM   12  C   UNL     1      29.100  42.774  53.227  1.00  0.00     0.278 C 
BRANCH  12  13
HETATM   13  O   UNL     1      29.293  44.085  53.731  1.00  0.00    -0.342 OA
BRANCH  13  14
HETATM   14  C   UNL     1      29.891  44.166  54.966  1.00  0.00     0.069 A 
HETATM   15  C   UNL     1      29.598  45.328  55.687  1.00  0.00     0.040 A 
HETATM   16  C   UNL     1      30.157  45.538  56.950  1.00  0.00     0.045 A 
HETATM   17  C   UNL     1      31.004  44.581  57.491  1.00  0.00     0.116 A 
HETATM   18  F   UNL     1      31.541  44.777  58.702  1.00  0.00    -0.206 F 
HETATM   19  C   UNL     1      31.302  43.419  56.791  1.00  0.00     0.045 A 
HETATM   20  C   UNL     1      30.745  43.209  55.526  1.00  0.00     0.040 A 
ENDBRANCH  13  14
ENDBRANCH  12  13
ENDBRANCH   9  12
ENDBRANCH   6   8
BRANCH   7  21
HETATM   21  C   UNL     1      26.651  42.402  49.916  1.00  0.00    -0.020 A 
HETATM   22  C   UNL     1      27.069  43.736  49.995  1.00  0.00     0.014 A 
HETATM   23  C   UNL     1      26.151  44.769  49.782  1.00  0.00     0.020 A 
HETATM   24  C   UNL     1      24.822  44.467  49.485  1.00  0.00     0.011 A 
HETATM   25 BR   UNL     1      23.577  45.865  49.220  1.00  0.00    -0.051 Br
HETATM   26  C   UNL     1      24.401  43.143  49.389  1.00  0.00     0.020 A 
HETATM   27  C   UNL     1      25.316  42.112  49.605  1.00  0.00     0.014 A 
ENDBRANCH   7  21
TORSDOF 5
ENDMDL
MODEL 4
REMARK VINA RESULT:      -8.1     13.286     14.856
REMARK  5 active torsions:
REMARK  status: ('A' for Active; 'I' for Inactive)
REMARK    1  A    between atoms: C_6  and  N_7 
REMARK       I    between atoms: N_7  and  C_8 
REMARK    2  A    between atoms: C_8  and  C_9 
REMARK    3  A    between atoms: C_9  and  O_10 
REMARK    4  A    between atoms: O_10  and  C_11 
REMARK    5  A    between atoms: C_19  and  C_20 
ROOT
HETATM    1  C   UNL     1      27.230  49.950  38.146  1.00  0.00     0.073 C 
HETATM    2  C   UNL     1      28.682  49.792  38.409  1.00  0.00     0.065 A 
HETATM    3  N   UNL     1      29.544  50.725  37.986  1.00  0.00    -0.177 NA
HETATM    4  N   UNL     1      30.743  50.254  38.365  1.00  0.00    -0.262 N 
HETATM    5  H   UNL     1      31.562  50.821  38.168  1.00  0.00     0.191 HD
HETATM    6  C   UNL     1      30.691  49.059  39.032  1.00  0.00     0.137 A 
HETATM    7  C   UNL     1      29.348  48.727  39.073  1.00  0.00     0.046 A 
ENDROOT
BRANCH   6   8
HETATM    8  N   UNL     1      31.768  48.406  39.597  1.00  0.00    -0.309 N 
HETATM    9  C   UNL     1      31.964  48.048  40.904  1.00  0.00     0.247 C 
HETATM   10  O   UNL     1      32.845  47.225  41.167  1.00  0.00    -0.271 OA
HETATM   11  H   UNL     1      32.512  48.110  38.975  1.00  0.00     0.170 HD
BRANCH   9  12
HETATM   12  C   UNL     1      31.240  48.805  42.018  1.00  0.00     0.278 C 
BRANCH  12  13
HETATM   13  O   UNL     1      31.764  50.096  42.283  1.00  0.00    -0.342 OA
BRANCH  13  14
HETATM   14  C   UNL     1      31.071  51.144  41.728  1.00  0.00     0.069 A 
HETATM   15  C   UNL     1      31.868  52.121  41.122  1.00  0.00     0.040 A 
HETATM   16  C   UNL     1      31.285  53.247  40.535  1.00  0.00     0.045 A 
HETATM   17  C   UNL     1      29.905  53.389  40.550  1.00  0.00     0.116 A 
HETATM   18  F   UNL     1      29.342  54.466  39.986  1.00  0.00    -0.206 F 
HETATM   19  C   UNL     1      29.098  52.427  41.142  1.00  0.00     0.045 A 
HETATM   20  C   UNL     1      29.680  51.301  41.733  1.00  0.00     0.040 A 
ENDBRANCH  13  14
ENDBRANCH  12  13
ENDBRANCH   9  12
ENDBRANCH   6   8
BRANCH   7  21
HETATM   21  C   UNL     1      28.838  47.454  39.541  1.00  0.00    -0.020 A 
HETATM   22  C   UNL     1      29.165  46.257  38.894  1.00  0.00     0.014 A 
HETATM   23  C   UNL     1      28.604  45.053  39.329  1.00  0.00     0.020 A 
HETATM   24  C   UNL     1      27.726  45.046  40.412  1.00  0.00     0.011 A 
HETATM   25 BR   UNL     1      26.952  43.419  40.986  1.00  0.00    -0.051 Br
HETATM   26  C   UNL     1      27.407  46.230  41.072  1.00  0.00     0.020 A 
HETATM   27  C   UNL     1      27.964  47.434  40.636  1.00  0.00     0.014 A 
ENDBRANCH   7  21
TORSDOF 5
ENDMDL
MODEL 5
REMARK VINA RESULT:      -8.0     14.103     16.092
REMARK  5 active torsions:
REMARK  status: ('A' for Active; 'I' for Inactive)
REMARK    1  A    between atoms: C_6  and  N_7 
REMARK       I    between atoms: N_7  and  C_8 
REMARK    2  A    between atoms: C_8  and  C_9 
REMARK    3  A    between atoms: C_9  and  O_10 
REMARK    4  A    between atoms: O_10  and  C_11 
REMARK    5  A    between atoms: C_19  and  C_20 
ROOT
HETATM    1  C   UNL     1      31.071  53.705  41.017  1.00  0.00     0.073 C 
HETATM    2  C   UNL     1      31.127  52.282  41.433  1.00  0.00     0.065 A 
HETATM    3  N   UNL     1      30.041  51.693  41.949  1.00  0.00    -0.177 NA
HETATM    4  N   UNL     1      30.452  50.446  42.231  1.00  0.00    -0.262 N 
HETATM    5  H   UNL     1      29.774  49.795  42.616  1.00  0.00     0.191 HD
HETATM    6  C   UNL     1      31.758  50.198  41.902  1.00  0.00     0.137 A 
HETATM    7  C   UNL     1      32.231  51.388  41.378  1.00  0.00     0.046 A 
ENDROOT
BRANCH   6   8
HETATM    8  N   UNL     1      32.398  48.979  42.011  1.00  0.00    -0.309 N 
HETATM    9  C   UNL     1      32.308  47.888  41.188  1.00  0.00     0.247 C 
HETATM   10  O   UNL     1      33.163  47.003  41.284  1.00  0.00    -0.271 OA
HETATM   11  H   UNL     1      33.053  48.863  42.775  1.00  0.00     0.170 HD
BRANCH   9  12
HETATM   12  C   UNL     1      31.065  47.688  40.320  1.00  0.00     0.278 C 
BRANCH  12  13
HETATM   13  O   UNL     1      31.195  48.171  38.994  1.00  0.00    -0.342 OA
BRANCH  13  14
HETATM   14  C   UNL     1      30.567  49.365  38.732  1.00  0.00     0.069 A 
HETATM   15  C   UNL     1      29.211  49.405  39.076  1.00  0.00     0.040 A 
HETATM   16  C   UNL     1      28.456  50.557  38.846  1.00  0.00     0.045 A 
HETATM   17  C   UNL     1      29.060  51.669  38.276  1.00  0.00     0.116 A 
HETATM   18  F   UNL     1      28.339  52.776  38.055  1.00  0.00    -0.206 F 
HETATM   19  C   UNL     1      30.405  51.648  37.933  1.00  0.00     0.045 A 
HETATM   20  C   UNL     1      31.162  50.495  38.161  1.00  0.00     0.040 A 
ENDBRANCH  13  14
ENDBRANCH  12  13
ENDBRANCH   9  12
ENDBRANCH   6   8
BRANCH   7  21
HETATM   21  C   UNL     1      33.619  51.639  41.049  1.00  0.00    -0.020 A 
HETATM   22  C   UNL     1      34.012  51.947  39.741  1.00  0.00     0.014 A 
HETATM   23  C   UNL     1      35.367  52.120  39.442  1.00  0.00     0.020 A 
HETATM   24  C   UNL     1      36.323  51.992  40.449  1.00  0.00     0.011 A 
HETATM   25 BR   UNL     1      38.156  52.205  40.038  1.00  0.00    -0.051 Br
HETATM   26  C   UNL     1      35.940  51.702  41.756  1.00  0.00     0.020 A 
HETATM   27  C   UNL     1      34.588  51.526  42.055  1.00  0.00     0.014 A 
ENDBRANCH   7  21
TORSDOF 5
ENDMDL
MODEL 6
REMARK VINA RESULT:      -8.0      4.440      7.549
REMARK  5 active torsions:
REMARK  status: ('A' for Active; 'I' for Inactive)
REMARK    1  A    between atoms: C_6  and  N_7 
REMARK       I    between atoms: N_7  and  C_8 
REMARK    2  A    between atoms: C_8  and  C_9 
REMARK    3  A    between atoms: C_9  and  O_10 
REMARK    4  A    between atoms: O_10  and  C_11 
REMARK    5  A    between atoms: C_19  and  C_20 
ROOT
HETATM    1  C   UNL     1      30.263  43.793  54.506  1.00  0.00     0.073 C 
HETATM    2  C   UNL     1      28.802  44.021  54.377  1.00  0.00     0.065 A 
HETATM    3  N   UNL     1      28.182  44.872  55.204  1.00  0.00    -0.177 NA
HETATM    4  N   UNL     1      26.895  44.810  54.828  1.00  0.00    -0.262 N 
HETATM    5  H   UNL     1      26.227  45.405  55.310  1.00  0.00     0.191 HD
HETATM    6  C   UNL     1      26.658  43.965  53.777  1.00  0.00     0.137 A 
HETATM    7  C   UNL     1      27.892  43.427  53.461  1.00  0.00     0.046 A 
ENDROOT
BRANCH   6   8
HETATM    8  N   UNL     1      25.442  43.785  53.148  1.00  0.00    -0.309 N 
HETATM    9  C   UNL     1      24.945  44.426  52.044  1.00  0.00     0.247 C 
HETATM   10  O   UNL     1      23.974  43.936  51.462  1.00  0.00    -0.271 OA
HETATM   11  H   UNL     1      24.830  43.063  53.512  1.00  0.00     0.170 HD
BRANCH   9  12
HETATM   12  C   UNL     1      25.462  45.816  51.673  1.00  0.00     0.278 C 
BRANCH  12  13
HETATM   13  O   UNL     1      24.586  46.565  50.848  1.00  0.00    -0.342 OA
BRANCH  13  14
HETATM   14  C   UNL     1      25.175  47.555  50.099  1.00  0.00     0.069 A 
HETATM   15  C   UNL     1      24.283  48.374  49.399  1.00  0.00     0.040 A 
HETATM   16  C   UNL     1      24.757  49.408  48.588  1.00  0.00     0.045 A 
HETATM   17  C   UNL     1      26.124  49.624  48.485  1.00  0.00     0.116 A 
HETATM   18  F   UNL     1      26.583  50.616  47.710  1.00  0.00    -0.206 F 
HETATM   19  C   UNL     1      27.024  48.825  49.176  1.00  0.00     0.045 A 
HETATM   20  C   UNL     1      26.551  47.788  49.987  1.00  0.00     0.040 A 
ENDBRANCH  13  14
ENDBRANCH  12  13
ENDBRANCH   9  12
ENDBRANCH   6   8
BRANCH   7  21
HETATM   21  C   UNL     1      28.093  42.350  52.512  1.00  0.00    -0.020 A 
HETATM   22  C   UNL     1      27.716  42.483  51.171  1.00  0.00     0.014 A 
HETATM   23  C   UNL     1      27.864  41.405  50.294  1.00  0.00     0.020 A 
HETATM   24  C   UNL     1      28.392  40.200  50.756  1.00  0.00     0.011 A 
HETATM   25 BR   UNL     1      28.570  38.735  49.575  1.00  0.00    -0.051 Br
HETATM   26  C   UNL     1      28.785  40.063  52.086  1.00  0.00     0.020 A 
HETATM   27  C   UNL     1      28.635  41.139  52.962  1.00  0.00     0.014 A 
ENDBRANCH   7  21
TORSDOF 5
ENDMDL
MODEL 7
REMARK VINA RESULT:      -7.9      4.348      7.829
REMARK  5 active torsions:
REMARK  status: ('A' for Active; 'I' for Inactive)
REMARK    1  A    between atoms: C_6  and  N_7 
REMARK       I    between atoms: N_7  and  C_8 
REMARK    2  A    between atoms: C_8  and  C_9 
REMARK    3  A    between atoms: C_9  and  O_10 
REMARK    4  A    between atoms: O_10  and  C_11 
REMARK    5  A    between atoms: C_19  and  C_20 
ROOT
HETATM    1  C   UNL     1      27.118  47.950  54.887  1.00  0.00     0.073 C 
HETATM    2  C   UNL     1      26.703  46.753  54.115  1.00  0.00     0.065 A 
HETATM    3  N   UNL     1      25.557  46.767  53.423  1.00  0.00    -0.177 NA
HETATM    4  N   UNL     1      25.489  45.540  52.882  1.00  0.00    -0.262 N 
HETATM    5  H   UNL     1      24.699  45.325  52.281  1.00  0.00     0.191 HD
HETATM    6  C   UNL     1      26.556  44.735  53.184  1.00  0.00     0.137 A 
HETATM    7  C   UNL     1      27.370  45.503  53.997  1.00  0.00     0.046 A 
ENDROOT
BRANCH   6   8
HETATM    8  N   UNL     1      26.769  43.464  52.689  1.00  0.00    -0.309 N 
HETATM    9  C   UNL     1      27.367  43.090  51.515  1.00  0.00     0.247 C 
HETATM   10  O   UNL     1      27.722  41.916  51.380  1.00  0.00    -0.271 OA
HETATM   11  H   UNL     1      26.483  42.683  53.270  1.00  0.00     0.170 HD
BRANCH   9  12
HETATM   12  C   UNL     1      27.406  44.062  50.337  1.00  0.00     0.278 C 
BRANCH  12  13
HETATM   13  O   UNL     1      26.240  44.050  49.530  1.00  0.00    -0.342 OA
BRANCH  13  14
HETATM   14  C   UNL     1      25.516  45.218  49.514  1.00  0.00     0.069 A 
HETATM   15  C   UNL     1      26.264  46.377  49.749  1.00  0.00     0.040 A 
HETATM   16  C   UNL     1      25.642  47.628  49.775  1.00  0.00     0.045 A 
HETATM   17  C   UNL     1      24.274  47.716  49.559  1.00  0.00     0.116 A 
HETATM   18  F   UNL     1      23.674  48.914  49.581  1.00  0.00    -0.206 F 
HETATM   19  C   UNL     1      23.518  46.577  49.319  1.00  0.00     0.045 A 
HETATM   20  C   UNL     1      24.138  45.324  49.294  1.00  0.00     0.040 A 
ENDBRANCH  13  14
ENDBRANCH  12  13
ENDBRANCH   9  12
ENDBRANCH   6   8
BRANCH   7  21
HETATM   21  C   UNL     1      28.536  44.999  54.693  1.00  0.00    -0.020 A 
HETATM   22  C   UNL     1      29.224  43.869  54.235  1.00  0.00     0.014 A 
HETATM   23  C   UNL     1      30.307  43.368  54.963  1.00  0.00     0.020 A 
HETATM   24  C   UNL     1      30.703  43.999  56.142  1.00  0.00     0.011 A 
HETATM   25 BR   UNL     1      32.154  43.307  57.138  1.00  0.00    -0.051 Br
HETATM   26  C   UNL     1      30.035  45.133  56.597  1.00  0.00     0.020 A 
HETATM   27  C   UNL     1      28.952  45.632  55.871  1.00  0.00     0.014 A 
ENDBRANCH   7  21
TORSDOF 5
ENDMDL
MODEL 8
REMARK VINA RESULT:      -7.8      6.113      9.923
REMARK  5 active torsions:
REMARK  status: ('A' for Active; 'I' for Inactive)
REMARK    1  A    between atoms: C_6  and  N_7 
REMARK       I    between atoms: N_7  and  C_8 
REMARK    2  A    between atoms: C_8  and  C_9 
REMARK    3  A    between atoms: C_9  and  O_10 
REMARK    4  A    between atoms: O_10  and  C_11 
REMARK    5  A    between atoms: C_19  and  C_20 
ROOT
HETATM    1  C   UNL     1      27.823  49.212  49.141  1.00  0.00     0.073 C 
HETATM    2  C   UNL     1      26.356  49.001  49.056  1.00  0.00     0.065 A 
HETATM    3  N   UNL     1      25.586  49.901  48.433  1.00  0.00    -0.177 NA
HETATM    4  N   UNL     1      24.342  49.414  48.568  1.00  0.00    -0.262 N 
HETATM    5  H   UNL     1      23.578  49.929  48.142  1.00  0.00     0.191 HD
HETATM    6  C   UNL     1      24.277  48.223  49.241  1.00  0.00     0.137 A 
HETATM    7  C   UNL     1      25.586  47.927  49.579  1.00  0.00     0.046 A 
ENDROOT
BRANCH   6   8
HETATM    8  N   UNL     1      23.135  47.474  49.442  1.00  0.00    -0.309 N 
HETATM    9  C   UNL     1      22.027  47.369  48.644  1.00  0.00     0.247 C 
HETATM   10  O   UNL     1      21.240  46.440  48.842  1.00  0.00    -0.271 OA
HETATM   11  H   UNL     1      23.102  46.886  50.268  1.00  0.00     0.170 HD
BRANCH   9  12
HETATM   12  C   UNL     1      21.683  48.495  47.668  1.00  0.00     0.278 C 
BRANCH  12  13
HETATM   13  O   UNL     1      20.292  48.699  47.479  1.00  0.00    -0.342 OA
BRANCH  13  14
HETATM   14  C   UNL     1      19.756  49.780  48.138  1.00  0.00     0.069 A 
HETATM   15  C   UNL     1      18.767  49.466  49.076  1.00  0.00     0.040 A 
HETATM   16  C   UNL     1      18.132  50.477  49.801  1.00  0.00     0.045 A 
HETATM   17  C   UNL     1      18.492  51.800  49.589  1.00  0.00     0.116 A 
HETATM   18  F   UNL     1      17.886  52.772  50.283  1.00  0.00    -0.206 F 
HETATM   19  C   UNL     1      19.474  52.130  48.665  1.00  0.00     0.045 A 
HETATM   20  C   UNL     1      20.110  51.119  47.938  1.00  0.00     0.040 A 
ENDBRANCH  13  14
ENDBRANCH  12  13
ENDBRANCH   9  12
ENDBRANCH   6   8
BRANCH   7  21
HETATM   21  C   UNL     1      25.977  46.835  50.448  1.00  0.00    -0.020 A 
HETATM   22  C   UNL     1      25.810  46.914  51.835  1.00  0.00     0.014 A 
HETATM   23  C   UNL     1      26.256  45.872  52.652  1.00  0.00     0.020 A 
HETATM   24  C   UNL     1      26.861  44.752  52.083  1.00  0.00     0.011 A 
HETATM   25 BR   UNL     1      27.484  43.352  53.191  1.00  0.00    -0.051 Br
HETATM   26  C   UNL     1      27.017  44.657  50.702  1.00  0.00     0.020 A 
HETATM   27  C   UNL     1      26.574  45.699  49.885  1.00  0.00     0.014 A 
ENDBRANCH   7  21
TORSDOF 5
ENDMDL
MODEL 9
REMARK VINA RESULT:      -7.8     13.580     15.373
REMARK  5 active torsions:
REMARK  status: ('A' for Active; 'I' for Inactive)
REMARK    1  A    between atoms: C_6  and  N_7 
REMARK       I    between atoms: N_7  and  C_8 
REMARK    2  A    between atoms: C_8  and  C_9 
REMARK    3  A    between atoms: C_9  and  O_10 
REMARK    4  A    between atoms: O_10  and  C_11 
REMARK    5  A    between atoms: C_19  and  C_20 
ROOT
HETATM    1  C   UNL     1      32.973  47.781  41.529  1.00  0.00     0.073 C 
HETATM    2  C   UNL     1      32.357  48.971  40.891  1.00  0.00     0.065 A 
HETATM    3  N   UNL     1      31.405  48.814  39.962  1.00  0.00    -0.177 NA
HETATM    4  N   UNL     1      31.103  50.069  39.593  1.00  0.00    -0.262 N 
HETATM    5  H   UNL     1      30.371  50.200  38.901  1.00  0.00     0.191 HD
HETATM    6  C   UNL     1      31.810  51.035  40.258  1.00  0.00     0.137 A 
HETATM    7  C   UNL     1      32.646  50.344  41.117  1.00  0.00     0.046 A 
ENDROOT
BRANCH   6   8
HETATM    8  N   UNL     1      31.630  52.397  40.127  1.00  0.00    -0.309 N 
HETATM    9  C   UNL     1      30.999  53.265  40.978  1.00  0.00     0.247 C 
HETATM   10  O   UNL     1      31.188  54.476  40.835  1.00  0.00    -0.271 OA
HETATM   11  H   UNL     1      32.041  52.846  39.315  1.00  0.00     0.170 HD
BRANCH   9  12
HETATM   12  C   UNL     1      29.936  52.746  41.946  1.00  0.00     0.278 C 
BRANCH  12  13
HETATM   13  O   UNL     1      28.611  52.805  41.445  1.00  0.00    -0.342 OA
BRANCH  13  14
HETATM   14  C   UNL     1      28.173  51.680  40.788  1.00  0.00     0.069 A 
HETATM   15  C   UNL     1      28.020  51.829  39.405  1.00  0.00     0.040 A 
HETATM   16  C   UNL     1      27.565  50.763  38.624  1.00  0.00     0.045 A 
HETATM   17  C   UNL     1      27.271  49.549  39.229  1.00  0.00     0.116 A 
HETATM   18  F   UNL     1      26.836  48.525  38.484  1.00  0.00    -0.206 F 
HETATM   19  C   UNL     1      27.422  49.382  40.599  1.00  0.00     0.045 A 
HETATM   20  C   UNL     1      27.875  50.448  41.382  1.00  0.00     0.040 A 
ENDBRANCH  13  14
ENDBRANCH  12  13
ENDBRANCH   9  12
ENDBRANCH   6   8
BRANCH   7  21
HETATM   21  C   UNL     1      33.697  50.959  41.902  1.00  0.00    -0.020 A 
HETATM   22  C   UNL     1      35.010  51.036  41.425  1.00  0.00     0.014 A 
HETATM   23  C   UNL     1      36.016  51.577  42.232  1.00  0.00     0.020 A 
HETATM   24  C   UNL     1      35.706  52.044  43.509  1.00  0.00     0.011 A 
HETATM   25 BR   UNL     1      37.070  52.755  44.608  1.00  0.00    -0.051 Br
HETATM   26  C   UNL     1      34.398  51.986  43.986  1.00  0.00     0.020 A 
HETATM   27  C   UNL     1      33.395  51.443  43.182  1.00  0.00     0.014 A 
ENDBRANCH   7  21
TORSDOF 5
ENDMDL
MODEL 10
REMARK VINA RESULT:      -7.7      9.584     12.227
REMARK  5 active torsions:
REMARK  status: ('A' for Active; 'I' for Inactive)
REMARK    1  A    between atoms: C_6  and  N_7 
REMARK       I    between atoms: N_7  and  C_8 
REMARK    2  A    between atoms: C_8  and  C_9 
REMARK    3  A    between atoms: C_9  and  O_10 
REMARK    4  A    between atoms: O_10  and  C_11 
REMARK    5  A    between atoms: C_19  and  C_20 
ROOT
HETATM    1  C   UNL     1      23.271  51.189  48.308  1.00  0.00     0.073 C 
HETATM    2  C   UNL     1      22.682  49.829  48.401  1.00  0.00     0.065 A 
HETATM    3  N   UNL     1      23.431  48.755  48.120  1.00  0.00    -0.177 NA
HETATM    4  N   UNL     1      22.588  47.722  48.277  1.00  0.00    -0.262 N 
HETATM    5  H   UNL     1      22.952  46.784  48.138  1.00  0.00     0.191 HD
HETATM    6  C   UNL     1      21.325  48.083  48.665  1.00  0.00     0.137 A 
HETATM    7  C   UNL     1      21.354  49.464  48.751  1.00  0.00     0.046 A 
ENDROOT
BRANCH   6   8
HETATM    8  N   UNL     1      20.299  47.213  48.975  1.00  0.00    -0.309 N 
HETATM    9  C   UNL     1      19.316  46.722  48.158  1.00  0.00     0.247 C 
HETATM   10  O   UNL     1      18.667  45.743  48.535  1.00  0.00    -0.271 OA
HETATM   11  H   UNL     1      20.268  46.845  49.919  1.00  0.00     0.170 HD
BRANCH   9  12
HETATM   12  C   UNL     1      18.908  47.499  46.906  1.00  0.00     0.278 C 
BRANCH  12  13
HETATM   13  O   UNL     1      17.594  48.028  46.948  1.00  0.00    -0.342 OA
BRANCH  13  14
HETATM   14  C   UNL     1      17.448  49.299  46.444  1.00  0.00     0.069 A 
HETATM   15  C   UNL     1      18.463  49.706  45.572  1.00  0.00     0.040 A 
HETATM   16  C   UNL     1      18.440  50.982  45.004  1.00  0.00     0.045 A 
HETATM   17  C   UNL     1      17.397  51.847  45.307  1.00  0.00     0.116 A 
HETATM   18  F   UNL     1      17.370  53.070  44.764  1.00  0.00    -0.206 F 
HETATM   19  C   UNL     1      16.379  51.457  46.167  1.00  0.00     0.045 A 
HETATM   20  C   UNL     1      16.402  50.181  46.737  1.00  0.00     0.040 A 
ENDBRANCH  13  14
ENDBRANCH  12  13
ENDBRANCH   9  12
ENDBRANCH   6   8
BRANCH   7  21
HETATM   21  C   UNL     1      20.186  50.292  48.970  1.00  0.00    -0.020 A 
HETATM   22  C   UNL     1      20.049  51.536  48.344  1.00  0.00     0.014 A 
HETATM   23  C   UNL     1      18.941  52.340  48.626  1.00  0.00     0.020 A 
HETATM   24  C   UNL     1      17.971  51.898  49.525  1.00  0.00     0.011 A 
HETATM   25 BR   UNL     1      16.484  52.997  49.922  1.00  0.00    -0.051 Br
HETATM   26  C   UNL     1      18.091  50.655  50.141  1.00  0.00     0.020 A 
HETATM   27  C   UNL     1      19.199  49.852  49.863  1.00  0.00     0.014 A 
ENDBRANCH   7  21
TORSDOF 5
ENDMDL
