MODEL 1
REMARK VINA RESULT:      -9.0      0.000      0.000
REMARK  5 active torsions:
REMARK  status: ('A' for Active; 'I' for Inactive)
REMARK    1  A    between atoms: C_8  and  C_9 
REMARK    2  A    between atoms: N_10  and  N_11 
REMARK       I    between atoms: N_11  and  C_12 
REMARK    3  A    between atoms: C_12  and  C_13 
REMARK    4  A    between atoms: C_13  and  N_14 
REMARK    5  A    between atoms: N_14  and  C_15 
ROOT
HETATM    1  N   UNL     1      26.188  46.427  52.451  1.00  0.00    -0.246 N 
HETATM    2  C   UNL     1      26.098  46.467  53.842  1.00  0.00     0.250 C 
HETATM    3  O   UNL     1      25.765  47.444  54.510  1.00  0.00    -0.270 OA
HETATM    4  H   UNL     1      26.228  45.519  51.997  1.00  0.00     0.192 HD
ENDROOT
BRANCH   1   5
HETATM    5  N   UNL     1      25.842  47.448  51.596  1.00  0.00    -0.184 NA
HETATM    6  C   UNL     1      26.186  47.350  50.350  1.00  0.00     0.152 C 
BRANCH   6   7
HETATM    7  C   UNL     1      25.864  48.424  49.429  1.00  0.00     0.011 A 
HETATM    8  C   UNL     1      24.555  48.869  49.054  1.00  0.00     0.004 A 
HETATM    9  C   UNL     1      23.245  48.472  49.397  1.00  0.00     0.014 A 
HETATM   10  C   UNL     1      24.713  49.926  48.156  1.00  0.00     0.043 A 
HETATM   11  C   UNL     1      22.151  49.142  48.839  1.00  0.00     0.001 A 
HETATM   12  C   UNL     1      22.343  50.195  47.949  1.00  0.00     0.002 A 
HETATM   13  C   UNL     1      23.629  50.607  47.589  1.00  0.00     0.030 A 
HETATM   14  N   UNL     1      26.065  50.112  47.984  1.00  0.00    -0.364 N 
HETATM   15  H   UNL     1      26.475  50.810  47.380  1.00  0.00     0.165 HD
HETATM   16  C   UNL     1      26.767  49.216  48.744  1.00  0.00     0.102 A 
ENDBRANCH   6   7
ENDBRANCH   1   5
BRANCH   2  17
HETATM   17  C   UNL     1      26.526  45.152  54.498  1.00  0.00     0.197 C 
BRANCH  17  18
HETATM   18  N   UNL     1      27.772  44.633  53.917  1.00  0.00    -0.283 NA
HETATM   19  H   UNL     1      28.046  45.074  53.039  1.00  0.00     0.128 HD
BRANCH  18  20
HETATM   20  C   UNL     1      28.879  44.538  54.785  1.00  0.00     0.030 A 
HETATM   21  C   UNL     1      29.751  43.429  54.730  1.00  0.00     0.055 A 
HETATM   22 CL   UNL     1      29.529  42.201  53.528  1.00  0.00    -0.082 Cl
HETATM   23  C   UNL     1      30.830  43.306  55.609  1.00  0.00     0.026 A 
HETATM   24  C   UNL     1      31.050  44.280  56.579  1.00  0.00     0.002 A 
HETATM   25  C   UNL     1      30.188  45.371  56.670  1.00  0.00     0.002 A 
HETATM   26  C   UNL     1      29.111  45.493  55.786  1.00  0.00     0.025 A 
ENDBRANCH  18  20
ENDBRANCH  17  18
ENDBRANCH   2  17
TORSDOF 5
ENDMDL
MODEL 2
REMARK VINA RESULT:      -8.7      3.755      9.515
REMARK  5 active torsions:
REMARK  status: ('A' for Active; 'I' for Inactive)
REMARK    1  A    between atoms: C_8  and  C_9 
REMARK    2  A    between atoms: N_10  and  N_11 
REMARK       I    between atoms: N_11  and  C_12 
REMARK    3  A    between atoms: C_12  and  C_13 
REMARK    4  A    between atoms: C_13  and  N_14 
REMARK    5  A    between atoms: N_14  and  C_15 
ROOT
HETATM    1  N   UNL     1      23.781  47.011  50.008  1.00  0.00    -0.246 N 
HETATM    2  C   UNL     1      23.672  48.252  49.381  1.00  0.00     0.250 C 
HETATM    3  O   UNL     1      24.509  49.151  49.423  1.00  0.00    -0.270 OA
HETATM    4  H   UNL     1      23.160  46.265  49.709  1.00  0.00     0.192 HD
ENDROOT
BRANCH   1   5
HETATM    5  N   UNL     1      24.876  46.560  50.707  1.00  0.00    -0.184 NA
HETATM    6  C   UNL     1      24.720  45.560  51.517  1.00  0.00     0.152 C 
BRANCH   6   7
HETATM    7  C   UNL     1      25.849  45.080  52.293  1.00  0.00     0.011 A 
HETATM    8  C   UNL     1      26.595  45.818  53.268  1.00  0.00     0.004 A 
HETATM    9  C   UNL     1      26.522  47.134  53.775  1.00  0.00     0.014 A 
HETATM   10  C   UNL     1      27.582  44.968  53.771  1.00  0.00     0.043 A 
HETATM   11  C   UNL     1      27.427  47.546  54.759  1.00  0.00     0.001 A 
HETATM   12  C   UNL     1      28.398  46.673  55.241  1.00  0.00     0.002 A 
HETATM   13  C   UNL     1      28.495  45.366  54.755  1.00  0.00     0.030 A 
HETATM   14  N   UNL     1      27.448  43.764  53.121  1.00  0.00    -0.364 N 
HETATM   15  H   UNL     1      28.036  42.958  53.280  1.00  0.00     0.165 HD
HETATM   16  C   UNL     1      26.409  43.818  52.231  1.00  0.00     0.102 A 
ENDBRANCH   6   7
ENDBRANCH   1   5
BRANCH   2  17
HETATM   17  C   UNL     1      22.335  48.430  48.656  1.00  0.00     0.197 C 
BRANCH  17  18
HETATM   18  N   UNL     1      21.219  48.584  49.599  1.00  0.00    -0.283 NA
HETATM   19  H   UNL     1      21.463  48.417  50.575  1.00  0.00     0.128 HD
BRANCH  18  20
HETATM   20  C   UNL     1      20.452  49.761  49.479  1.00  0.00     0.030 A 
HETATM   21  C   UNL     1      19.216  49.892  50.149  1.00  0.00     0.055 A 
HETATM   22 CL   UNL     1      18.659  48.641  51.208  1.00  0.00    -0.082 Cl
HETATM   23  C   UNL     1      18.430  51.038  50.008  1.00  0.00     0.026 A 
HETATM   24  C   UNL     1      18.852  52.073  49.177  1.00  0.00     0.002 A 
HETATM   25  C   UNL     1      20.055  51.955  48.485  1.00  0.00     0.002 A 
HETATM   26  C   UNL     1      20.842  50.808  48.631  1.00  0.00     0.025 A 
ENDBRANCH  18  20
ENDBRANCH  17  18
ENDBRANCH   2  17
TORSDOF 5
ENDMDL
MODEL 3
REMARK VINA RESULT:      -8.7      3.560      9.550
REMARK  5 active torsions:
REMARK  status: ('A' for Active; 'I' for Inactive)
REMARK    1  A    between atoms: C_8  and  C_9 
REMARK    2  A    between atoms: N_10  and  N_11 
REMARK       I    between atoms: N_11  and  C_12 
REMARK    3  A    between atoms: C_12  and  C_13 
REMARK    4  A    between atoms: C_13  and  N_14 
REMARK    5  A    between atoms: N_14  and  C_15 
ROOT
HETATM    1  N   UNL     1      24.033  47.424  50.642  1.00  0.00    -0.246 N 
HETATM    2  C   UNL     1      23.924  48.297  49.559  1.00  0.00     0.250 C 
HETATM    3  O   UNL     1      24.701  49.213  49.297  1.00  0.00    -0.270 OA
HETATM    4  H   UNL     1      23.491  46.566  50.625  1.00  0.00     0.192 HD
ENDROOT
BRANCH   1   5
HETATM    5  N   UNL     1      25.070  47.395  51.546  1.00  0.00    -0.184 NA
HETATM    6  C   UNL     1      25.280  46.299  52.207  1.00  0.00     0.152 C 
BRANCH   6   7
HETATM    7  C   UNL     1      26.345  46.246  53.190  1.00  0.00     0.011 A 
HETATM    8  C   UNL     1      27.194  45.127  53.474  1.00  0.00     0.004 A 
HETATM    9  C   UNL     1      27.294  43.813  52.968  1.00  0.00     0.014 A 
HETATM   10  C   UNL     1      28.079  45.519  54.481  1.00  0.00     0.043 A 
HETATM   11  C   UNL     1      28.270  42.949  53.478  1.00  0.00     0.001 A 
HETATM   12  C   UNL     1      29.139  43.372  54.479  1.00  0.00     0.002 A 
HETATM   13  C   UNL     1      29.060  44.666  55.001  1.00  0.00     0.030 A 
HETATM   14  N   UNL     1      27.775  46.821  54.802  1.00  0.00    -0.364 N 
HETATM   15  H   UNL     1      28.253  47.364  55.507  1.00  0.00     0.165 HD
HETATM   16  C   UNL     1      26.736  47.269  54.033  1.00  0.00     0.102 A 
ENDBRANCH   6   7
ENDBRANCH   1   5
BRANCH   2  17
HETATM   17  C   UNL     1      22.666  48.044  48.724  1.00  0.00     0.197 C 
BRANCH  17  18
HETATM   18  N   UNL     1      21.441  48.211  49.518  1.00  0.00    -0.283 NA
HETATM   19  H   UNL     1      21.539  47.969  50.504  1.00  0.00     0.128 HD
BRANCH  18  20
HETATM   20  C   UNL     1      20.764  49.440  49.379  1.00  0.00     0.030 A 
HETATM   21  C   UNL     1      19.497  49.640  49.966  1.00  0.00     0.055 A 
HETATM   22 CL   UNL     1      18.783  48.405  50.949  1.00  0.00    -0.082 Cl
HETATM   23  C   UNL     1      18.800  50.840  49.805  1.00  0.00     0.026 A 
HETATM   24  C   UNL     1      19.347  51.863  49.035  1.00  0.00     0.002 A 
HETATM   25  C   UNL     1      20.586  51.680  48.424  1.00  0.00     0.002 A 
HETATM   26  C   UNL     1      21.282  50.478  48.590  1.00  0.00     0.025 A 
ENDBRANCH  18  20
ENDBRANCH  17  18
ENDBRANCH   2  17
TORSDOF 5
ENDMDL
MODEL 4
REMARK VINA RESULT:      -8.7      2.155      2.440
REMARK  5 active torsions:
REMARK  status: ('A' for Active; 'I' for Inactive)
REMARK    1  A    between atoms: C_8  and  C_9 
REMARK    2  A    between atoms: N_10  and  N_11 
REMARK       I    between atoms: N_11  and  C_12 
REMARK    3  A    between atoms: C_12  and  C_13 
REMARK    4  A    between atoms: C_13  and  N_14 
REMARK    5  A    between atoms: N_14  and  C_15 
ROOT
HETATM    1  N   UNL     1      26.643  45.193  50.945  1.00  0.00    -0.246 N 
HETATM    2  C   UNL     1      27.132  43.926  50.628  1.00  0.00     0.250 C 
HETATM    3  O   UNL     1      27.213  43.452  49.497  1.00  0.00    -0.270 OA
HETATM    4  H   UNL     1      26.849  45.572  51.865  1.00  0.00     0.192 HD
ENDROOT
BRANCH   1   5
HETATM    5  N   UNL     1      26.248  46.149  50.039  1.00  0.00    -0.184 NA
HETATM    6  C   UNL     1      26.423  47.397  50.344  1.00  0.00     0.152 C 
BRANCH   6   7
HETATM    7  C   UNL     1      25.988  48.431  49.423  1.00  0.00     0.011 A 
HETATM    8  C   UNL     1      24.637  48.790  49.113  1.00  0.00     0.004 A 
HETATM    9  C   UNL     1      23.373  48.324  49.534  1.00  0.00     0.014 A 
HETATM   10  C   UNL     1      24.683  49.836  48.189  1.00  0.00     0.043 A 
HETATM   11  C   UNL     1      22.212  48.917  49.025  1.00  0.00     0.001 A 
HETATM   12  C   UNL     1      22.294  49.961  48.107  1.00  0.00     0.002 A 
HETATM   13  C   UNL     1      23.532  50.440  47.670  1.00  0.00     0.030 A 
HETATM   14  N   UNL     1      26.010  50.097  47.940  1.00  0.00    -0.364 N 
HETATM   15  H   UNL     1      26.345  50.805  47.303  1.00  0.00     0.165 HD
HETATM   16  C   UNL     1      26.804  49.260  48.677  1.00  0.00     0.102 A 
ENDBRANCH   6   7
ENDBRANCH   1   5
BRANCH   2  17
HETATM   17  C   UNL     1      27.518  43.117  51.869  1.00  0.00     0.197 C 
BRANCH  17  18
HETATM   18  N   UNL     1      27.216  43.843  53.110  1.00  0.00    -0.283 NA
HETATM   19  H   UNL     1      26.374  43.528  53.591  1.00  0.00     0.128 HD
BRANCH  18  20
HETATM   20  C   UNL     1      28.278  43.991  54.026  1.00  0.00     0.030 A 
HETATM   21  C   UNL     1      28.433  45.180  54.770  1.00  0.00     0.055 A 
HETATM   22 CL   UNL     1      27.266  46.453  54.637  1.00  0.00    -0.082 Cl
HETATM   23  C   UNL     1      29.502  45.353  55.653  1.00  0.00     0.026 A 
HETATM   24  C   UNL     1      30.453  44.346  55.799  1.00  0.00     0.002 A 
HETATM   25  C   UNL     1      30.335  43.173  55.056  1.00  0.00     0.002 A 
HETATM   26  C   UNL     1      29.262  43.002  54.175  1.00  0.00     0.025 A 
ENDBRANCH  18  20
ENDBRANCH  17  18
ENDBRANCH   2  17
TORSDOF 5
ENDMDL
MODEL 5
REMARK VINA RESULT:      -8.6      2.961      8.986
REMARK  5 active torsions:
REMARK  status: ('A' for Active; 'I' for Inactive)
REMARK    1  A    between atoms: C_8  and  C_9 
REMARK    2  A    between atoms: N_10  and  N_11 
REMARK       I    between atoms: N_11  and  C_12 
REMARK    3  A    between atoms: C_12  and  C_13 
REMARK    4  A    between atoms: C_13  and  N_14 
REMARK    5  A    between atoms: N_14  and  C_15 
ROOT
HETATM    1  N   UNL     1      26.734  45.107  51.420  1.00  0.00    -0.246 N 
HETATM    2  C   UNL     1      26.298  44.704  50.158  1.00  0.00     0.250 C 
HETATM    3  O   UNL     1      26.842  43.860  49.448  1.00  0.00    -0.270 OA
HETATM    4  H   UNL     1      26.085  45.616  52.013  1.00  0.00     0.192 HD
ENDROOT
BRANCH   1   5
HETATM    5  N   UNL     1      27.795  44.569  52.110  1.00  0.00    -0.184 NA
HETATM    6  C   UNL     1      27.813  44.687  53.401  1.00  0.00     0.152 C 
BRANCH   6   7
HETATM    7  C   UNL     1      28.933  44.157  54.156  1.00  0.00     0.011 A 
HETATM    8  C   UNL     1      29.427  44.642  55.411  1.00  0.00     0.004 A 
HETATM    9  C   UNL     1      29.056  45.694  56.275  1.00  0.00     0.014 A 
HETATM   10  C   UNL     1      30.506  43.835  55.775  1.00  0.00     0.043 A 
HETATM   11  C   UNL     1      29.767  45.896  57.463  1.00  0.00     0.001 A 
HETATM   12  C   UNL     1      30.837  45.071  57.798  1.00  0.00     0.002 A 
HETATM   13  C   UNL     1      31.228  44.024  56.960  1.00  0.00     0.030 A 
HETATM   14  N   UNL     1      30.668  42.901  54.778  1.00  0.00    -0.364 N 
HETATM   15  H   UNL     1      31.382  42.186  54.772  1.00  0.00     0.165 HD
HETATM   16  C   UNL     1      29.728  43.084  53.800  1.00  0.00     0.102 A 
ENDBRANCH   6   7
ENDBRANCH   1   5
BRANCH   2  17
HETATM   17  C   UNL     1      25.066  45.481  49.684  1.00  0.00     0.197 C 
BRANCH  17  18
HETATM   18  N   UNL     1      24.934  46.769  50.378  1.00  0.00    -0.283 NA
HETATM   19  H   UNL     1      25.323  46.785  51.321  1.00  0.00     0.128 HD
BRANCH  18  20
HETATM   20  C   UNL     1      25.337  47.915  49.661  1.00  0.00     0.030 A 
HETATM   21  C   UNL     1      24.394  48.712  48.979  1.00  0.00     0.055 A 
HETATM   22 CL   UNL     1      22.704  48.350  49.083  1.00  0.00    -0.082 Cl
HETATM   23  C   UNL     1      24.786  49.828  48.235  1.00  0.00     0.026 A 
HETATM   24  C   UNL     1      26.135  50.161  48.140  1.00  0.00     0.002 A 
HETATM   25  C   UNL     1      27.087  49.373  48.783  1.00  0.00     0.002 A 
HETATM   26  C   UNL     1      26.691  48.258  49.530  1.00  0.00     0.025 A 
ENDBRANCH  18  20
ENDBRANCH  17  18
ENDBRANCH   2  17
TORSDOF 5
ENDMDL
MODEL 6
REMARK VINA RESULT:      -8.4      2.732      9.366
REMARK  5 active torsions:
REMARK  status: ('A' for Active; 'I' for Inactive)
REMARK    1  A    between atoms: C_8  and  C_9 
REMARK    2  A    between atoms: N_10  and  N_11 
REMARK       I    between atoms: N_11  and  C_12 
REMARK    3  A    between atoms: C_12  and  C_13 
REMARK    4  A    between atoms: C_13  and  N_14 
REMARK    5  A    between atoms: N_14  and  C_15 
ROOT
HETATM    1  N   UNL     1      25.770  45.234  51.348  1.00  0.00    -0.246 N 
HETATM    2  C   UNL     1      25.692  45.833  50.090  1.00  0.00     0.250 C 
HETATM    3  O   UNL     1      26.615  45.923  49.282  1.00  0.00    -0.270 OA
HETATM    4  H   UNL     1      24.903  44.996  51.821  1.00  0.00     0.192 HD
ENDROOT
BRANCH   1   5
HETATM    5  N   UNL     1      26.865  44.576  51.855  1.00  0.00    -0.184 NA
HETATM    6  C   UNL     1      26.980  44.472  53.143  1.00  0.00     0.152 C 
BRANCH   6   7
HETATM    7  C   UNL     1      28.139  43.812  53.711  1.00  0.00     0.011 A 
HETATM    8  C   UNL     1      28.967  44.297  54.775  1.00  0.00     0.004 A 
HETATM    9  C   UNL     1      28.967  45.463  55.569  1.00  0.00     0.014 A 
HETATM   10  C   UNL     1      29.958  43.340  55.003  1.00  0.00     0.043 A 
HETATM   11  C   UNL     1      29.944  45.627  56.557  1.00  0.00     0.001 A 
HETATM   12  C   UNL     1      30.917  44.652  56.762  1.00  0.00     0.002 A 
HETATM   13  C   UNL     1      30.943  43.489  55.988  1.00  0.00     0.030 A 
HETATM   14  N   UNL     1      29.747  42.317  54.108  1.00  0.00    -0.364 N 
HETATM   15  H   UNL     1      30.319  41.487  54.041  1.00  0.00     0.165 HD
HETATM   16  C   UNL     1      28.656  42.588  53.327  1.00  0.00     0.102 A 
ENDBRANCH   6   7
ENDBRANCH   1   5
BRANCH   2  17
HETATM   17  C   UNL     1      24.318  46.450  49.816  1.00  0.00     0.197 C 
BRANCH  17  18
HETATM   18  N   UNL     1      24.253  47.851  50.251  1.00  0.00    -0.283 NA
HETATM   19  H   UNL     1      25.142  48.240  50.564  1.00  0.00     0.128 HD
BRANCH  18  20
HETATM   20  C   UNL     1      23.602  48.751  49.381  1.00  0.00     0.030 A 
HETATM   21  C   UNL     1      24.340  49.674  48.609  1.00  0.00     0.055 A 
HETATM   22 CL   UNL     1      26.071  49.659  48.647  1.00  0.00    -0.082 Cl
HETATM   23  C   UNL     1      23.705  50.594  47.771  1.00  0.00     0.026 A 
HETATM   24  C   UNL     1      22.315  50.626  47.701  1.00  0.00     0.002 A 
HETATM   25  C   UNL     1      21.564  49.743  48.474  1.00  0.00     0.002 A 
HETATM   26  C   UNL     1      22.203  48.820  49.309  1.00  0.00     0.025 A 
ENDBRANCH  18  20
ENDBRANCH  17  18
ENDBRANCH   2  17
TORSDOF 5
ENDMDL
MODEL 7
REMARK VINA RESULT:      -8.3      3.037      9.187
REMARK  5 active torsions:
REMARK  status: ('A' for Active; 'I' for Inactive)
REMARK    1  A    between atoms: C_8  and  C_9 
REMARK    2  A    between atoms: N_10  and  N_11 
REMARK       I    between atoms: N_11  and  C_12 
REMARK    3  A    between atoms: C_12  and  C_13 
REMARK    4  A    between atoms: C_13  and  N_14 
REMARK    5  A    between atoms: N_14  and  C_15 
ROOT
HETATM    1  N   UNL     1      25.357  46.457  51.487  1.00  0.00    -0.246 N 
HETATM    2  C   UNL     1      25.484  46.327  50.104  1.00  0.00     0.250 C 
HETATM    3  O   UNL     1      26.543  46.317  49.480  1.00  0.00    -0.270 OA
HETATM    4  H   UNL     1      24.470  46.206  51.914  1.00  0.00     0.192 HD
ENDROOT
BRANCH   1   5
HETATM    5  N   UNL     1      26.397  46.514  52.385  1.00  0.00    -0.184 NA
HETATM    6  C   UNL     1      26.366  45.726  53.414  1.00  0.00     0.152 C 
BRANCH   6   7
HETATM    7  C   UNL     1      27.432  45.784  54.396  1.00  0.00     0.011 A 
HETATM    8  C   UNL     1      28.507  44.849  54.551  1.00  0.00     0.004 A 
HETATM    9  C   UNL     1      28.882  43.661  53.888  1.00  0.00     0.014 A 
HETATM   10  C   UNL     1      29.301  45.297  55.609  1.00  0.00     0.043 A 
HETATM   11  C   UNL     1      30.029  42.973  54.300  1.00  0.00     0.001 A 
HETATM   12  C   UNL     1      30.801  43.448  55.356  1.00  0.00     0.002 A 
HETATM   13  C   UNL     1      30.451  44.620  56.033  1.00  0.00     0.030 A 
HETATM   14  N   UNL     1      28.727  46.453  56.085  1.00  0.00    -0.364 N 
HETATM   15  H   UNL     1      29.086  46.995  56.858  1.00  0.00     0.165 HD
HETATM   16  C   UNL     1      27.604  46.756  55.364  1.00  0.00     0.102 A 
ENDBRANCH   6   7
ENDBRANCH   1   5
BRANCH   2  17
HETATM   17  C   UNL     1      24.130  46.256  49.392  1.00  0.00     0.197 C 
BRANCH  17  18
HETATM   18  N   UNL     1      23.196  47.272  49.895  1.00  0.00    -0.283 NA
HETATM   19  H   UNL     1      23.284  47.474  50.891  1.00  0.00     0.128 HD
BRANCH  18  20
HETATM   20  C   UNL     1      23.113  48.472  49.157  1.00  0.00     0.030 A 
HETATM   21  C   UNL     1      21.874  48.940  48.671  1.00  0.00     0.055 A 
HETATM   22 CL   UNL     1      20.410  48.096  49.051  1.00  0.00    -0.082 Cl
HETATM   23  C   UNL     1      21.785  50.107  47.908  1.00  0.00     0.026 A 
HETATM   24  C   UNL     1      22.938  50.822  47.595  1.00  0.00     0.002 A 
HETATM   25  C   UNL     1      24.176  50.365  48.041  1.00  0.00     0.002 A 
HETATM   26  C   UNL     1      24.261  49.198  48.808  1.00  0.00     0.025 A 
ENDBRANCH  18  20
ENDBRANCH  17  18
ENDBRANCH   2  17
TORSDOF 5
ENDMDL
MODEL 8
REMARK VINA RESULT:      -8.2      2.408      3.305
REMARK  5 active torsions:
REMARK  status: ('A' for Active; 'I' for Inactive)
REMARK    1  A    between atoms: C_8  and  C_9 
REMARK    2  A    between atoms: N_10  and  N_11 
REMARK       I    between atoms: N_11  and  C_12 
REMARK    3  A    between atoms: C_12  and  C_13 
REMARK    4  A    between atoms: C_13  and  N_14 
REMARK    5  A    between atoms: N_14  and  C_15 
ROOT
HETATM    1  N   UNL     1      27.426  44.119  51.296  1.00  0.00    -0.246 N 
HETATM    2  C   UNL     1      27.218  42.741  51.272  1.00  0.00     0.250 C 
HETATM    3  O   UNL     1      26.383  42.155  50.585  1.00  0.00    -0.270 OA
HETATM    4  H   UNL     1      28.290  44.468  51.701  1.00  0.00     0.192 HD
ENDROOT
BRANCH   1   5
HETATM    5  N   UNL     1      26.790  45.040  50.497  1.00  0.00    -0.184 NA
HETATM    6  C   UNL     1      26.101  45.979  51.067  1.00  0.00     0.152 C 
BRANCH   6   7
HETATM    7  C   UNL     1      25.392  46.947  50.252  1.00  0.00     0.011 A 
HETATM    8  C   UNL     1      25.953  48.089  49.593  1.00  0.00     0.004 A 
HETATM    9  C   UNL     1      27.252  48.636  49.506  1.00  0.00     0.014 A 
HETATM   10  C   UNL     1      24.916  48.733  48.917  1.00  0.00     0.043 A 
HETATM   11  C   UNL     1      27.465  49.794  48.750  1.00  0.00     0.001 A 
HETATM   12  C   UNL     1      26.408  50.411  48.085  1.00  0.00     0.002 A 
HETATM   13  C   UNL     1      25.113  49.893  48.156  1.00  0.00     0.030 A 
HETATM   14  N   UNL     1      23.767  48.018  49.162  1.00  0.00    -0.364 N 
HETATM   15  H   UNL     1      22.855  48.258  48.801  1.00  0.00     0.165 HD
HETATM   16  C   UNL     1      24.040  46.942  49.962  1.00  0.00     0.102 A 
ENDBRANCH   6   7
ENDBRANCH   1   5
BRANCH   2  17
HETATM   17  C   UNL     1      28.113  41.992  52.263  1.00  0.00     0.197 C 
BRANCH  17  18
HETATM   18  N   UNL     1      27.717  42.245  53.655  1.00  0.00    -0.283 NA
HETATM   19  H   UNL     1      27.496  41.406  54.191  1.00  0.00     0.128 HD
BRANCH  18  20
HETATM   20  C   UNL     1      28.554  43.099  54.402  1.00  0.00     0.030 A 
HETATM   21  C   UNL     1      28.101  44.366  54.828  1.00  0.00     0.055 A 
HETATM   22 CL   UNL     1      26.470  44.862  54.519  1.00  0.00    -0.082 Cl
HETATM   23  C   UNL     1      28.933  45.237  55.536  1.00  0.00     0.026 A 
HETATM   24  C   UNL     1      30.246  44.868  55.818  1.00  0.00     0.002 A 
HETATM   25  C   UNL     1      30.724  43.633  55.385  1.00  0.00     0.002 A 
HETATM   26  C   UNL     1      29.887  42.762  54.678  1.00  0.00     0.025 A 
ENDBRANCH  18  20
ENDBRANCH  17  18
ENDBRANCH   2  17
TORSDOF 5
ENDMDL
MODEL 9
REMARK VINA RESULT:      -8.0      2.022      2.698
REMARK  5 active torsions:
REMARK  status: ('A' for Active; 'I' for Inactive)
REMARK    1  A    between atoms: C_8  and  C_9 
REMARK    2  A    between atoms: N_10  and  N_11 
REMARK       I    between atoms: N_11  and  C_12 
REMARK    3  A    between atoms: C_12  and  C_13 
REMARK    4  A    between atoms: C_13  and  N_14 
REMARK    5  A    between atoms: N_14  and  C_15 
ROOT
HETATM    1  N   UNL     1      25.849  44.655  52.054  1.00  0.00    -0.246 N 
HETATM    2  C   UNL     1      25.792  44.098  53.331  1.00  0.00     0.250 C 
HETATM    3  O   UNL     1      24.861  44.221  54.125  1.00  0.00    -0.270 OA
HETATM    4  H   UNL     1      26.537  44.291  51.401  1.00  0.00     0.192 HD
ENDROOT
BRANCH   1   5
HETATM    5  N   UNL     1      24.841  45.364  51.444  1.00  0.00    -0.184 NA
HETATM    6  C   UNL     1      25.001  45.721  50.207  1.00  0.00     0.152 C 
BRANCH   6   7
HETATM    7  C   UNL     1      23.970  46.497  49.544  1.00  0.00     0.011 A 
HETATM    8  C   UNL     1      24.082  47.844  49.070  1.00  0.00     0.004 A 
HETATM    9  C   UNL     1      25.114  48.807  49.076  1.00  0.00     0.014 A 
HETATM   10  C   UNL     1      22.858  48.188  48.493  1.00  0.00     0.043 A 
HETATM   11  C   UNL     1      24.889  50.065  48.506  1.00  0.00     0.001 A 
HETATM   12  C   UNL     1      23.657  50.375  47.936  1.00  0.00     0.002 A 
HETATM   13  C   UNL     1      22.617  49.442  47.919  1.00  0.00     0.030 A 
HETATM   14  N   UNL     1      22.031  47.097  48.619  1.00  0.00    -0.364 N 
HETATM   15  H   UNL     1      21.075  47.061  48.292  1.00  0.00     0.165 HD
HETATM   16  C   UNL     1      22.688  46.074  49.247  1.00  0.00     0.102 A 
ENDBRANCH   6   7
ENDBRANCH   1   5
BRANCH   2  17
HETATM   17  C   UNL     1      27.068  43.338  53.701  1.00  0.00     0.197 C 
BRANCH  17  18
HETATM   18  N   UNL     1      28.268  44.168  53.525  1.00  0.00    -0.283 NA
HETATM   19  H   UNL     1      28.087  45.099  53.150  1.00  0.00     0.128 HD
BRANCH  18  20
HETATM   20  C   UNL     1      29.148  44.243  54.624  1.00  0.00     0.030 A 
HETATM   21  C   UNL     1      29.201  45.399  55.432  1.00  0.00     0.055 A 
HETATM   22 CL   UNL     1      28.119  46.720  55.143  1.00  0.00    -0.082 Cl
HETATM   23  C   UNL     1      30.095  45.500  56.502  1.00  0.00     0.026 A 
HETATM   24  C   UNL     1      30.971  44.452  56.776  1.00  0.00     0.002 A 
HETATM   25  C   UNL     1      30.954  43.312  55.976  1.00  0.00     0.002 A 
HETATM   26  C   UNL     1      30.056  43.213  54.908  1.00  0.00     0.025 A 
ENDBRANCH  18  20
ENDBRANCH  17  18
ENDBRANCH   2  17
TORSDOF 5
ENDMDL
MODEL 10
REMARK VINA RESULT:      -7.9      5.887      7.780
REMARK  5 active torsions:
REMARK  status: ('A' for Active; 'I' for Inactive)
REMARK    1  A    between atoms: C_8  and  C_9 
REMARK    2  A    between atoms: N_10  and  N_11 
REMARK       I    between atoms: N_11  and  C_12 
REMARK    3  A    between atoms: C_12  and  C_13 
REMARK    4  A    between atoms: C_13  and  N_14 
REMARK    5  A    between atoms: N_14  and  C_15 
ROOT
HETATM    1  N   UNL     1      27.094  41.365  52.077  1.00  0.00    -0.246 N 
HETATM    2  C   UNL     1      27.280  42.747  52.048  1.00  0.00     0.250 C 
HETATM    3  O   UNL     1      27.553  43.412  51.050  1.00  0.00    -0.270 OA
HETATM    4  H   UNL     1      26.635  40.959  52.887  1.00  0.00     0.192 HD
ENDROOT
BRANCH   1   5
HETATM    5  N   UNL     1      27.104  40.532  50.983  1.00  0.00    -0.184 NA
HETATM    6  C   UNL     1      28.240  40.049  50.587  1.00  0.00     0.152 C 
BRANCH   6   7
HETATM    7  C   UNL     1      28.289  39.193  49.417  1.00  0.00     0.011 A 
HETATM    8  C   UNL     1      28.196  39.605  48.048  1.00  0.00     0.004 A 
HETATM    9  C   UNL     1      28.035  40.850  47.403  1.00  0.00     0.014 A 
HETATM   10  C   UNL     1      28.299  38.458  47.258  1.00  0.00     0.043 A 
HETATM   11  C   UNL     1      27.987  40.904  46.006  1.00  0.00     0.001 A 
HETATM   12  C   UNL     1      28.096  39.741  45.247  1.00  0.00     0.002 A 
HETATM   13  C   UNL     1      28.253  38.495  45.859  1.00  0.00     0.030 A 
HETATM   14  N   UNL     1      28.440  37.390  48.112  1.00  0.00    -0.364 N 
HETATM   15  H   UNL     1      28.532  36.428  47.817  1.00  0.00     0.165 HD
HETATM   16  C   UNL     1      28.437  37.818  49.412  1.00  0.00     0.102 A 
ENDBRANCH   6   7
ENDBRANCH   1   5
BRANCH   2  17
HETATM   17  C   UNL     1      27.173  43.385  53.435  1.00  0.00     0.197 C 
BRANCH  17  18
HETATM   18  N   UNL     1      28.082  44.530  53.581  1.00  0.00    -0.283 NA
HETATM   19  H   UNL     1      27.619  45.439  53.592  1.00  0.00     0.128 HD
BRANCH  18  20
HETATM   20  C   UNL     1      29.033  44.451  54.619  1.00  0.00     0.030 A 
HETATM   21  C   UNL     1      29.233  45.533  55.503  1.00  0.00     0.055 A 
HETATM   22 CL   UNL     1      28.248  46.952  55.385  1.00  0.00    -0.082 Cl
HETATM   23  C   UNL     1      30.198  45.480  56.513  1.00  0.00     0.026 A 
HETATM   24  C   UNL     1      30.999  44.349  56.649  1.00  0.00     0.002 A 
HETATM   25  C   UNL     1      30.837  43.278  55.772  1.00  0.00     0.002 A 
HETATM   26  C   UNL     1      29.868  43.334  54.764  1.00  0.00     0.025 A 
ENDBRANCH  18  20
ENDBRANCH  17  18
ENDBRANCH   2  17
TORSDOF 5
ENDMDL
