MODEL 1
REMARK VINA RESULT:     -10.9      0.000      0.000
REMARK  3 active torsions:
REMARK  status: ('A' for Active; 'I' for Inactive)
REMARK    1  A    between atoms: C_3  and  C_4 
REMARK       I    between atoms: C_4  and  N_5 
REMARK    2  A    between atoms: N_5  and  C_6 
REMARK    3  A    between atoms: C_13  and  C_14 
REMARK       I    between atoms: C_14  and  N_15 
ROOT
HETATM    1  C   UNL     1      26.085  46.711  52.610  1.00  0.00     0.262 C 
HETATM    2  N   UNL     1      26.206  46.699  51.236  1.00  0.00    -0.323 N 
HETATM    3  O   UNL     1      25.388  47.499  53.243  1.00  0.00    -0.267 OA
HETATM    4  H   UNL     1      26.904  46.064  50.847  1.00  0.00     0.169 HD
ENDROOT
BRANCH   2   5
HETATM    5  C   UNL     1      25.615  47.579  50.302  1.00  0.00     0.036 A 
HETATM    6  C   UNL     1      24.245  47.610  50.010  1.00  0.00     0.046 A 
HETATM    7  C   UNL     1      23.748  48.565  49.095  1.00  0.00     0.030 A 
HETATM    8  C   UNL     1      24.639  49.442  48.491  1.00  0.00     0.063 A 
HETATM    9  C   UNL     1      22.467  48.922  48.574  1.00  0.00     0.156 A 
HETATM   10  N   UNL     1      23.876  50.236  47.682  1.00  0.00    -0.277 N 
HETATM   11  C   UNL     1      26.012  49.426  48.740  1.00  0.00     0.034 A 
HETATM   12  H   UNL     1      24.194  50.994  47.090  1.00  0.00     0.189 HD
HETATM   13  N   UNL     1      22.562  49.956  47.707  1.00  0.00    -0.168 NA
HETATM   14  C   UNL     1      26.478  48.478  49.658  1.00  0.00     0.032 A 
BRANCH   9  15
HETATM   15  C   UNL     1      21.168  48.311  48.888  1.00  0.00     0.270 C 
HETATM   16  N   UNL     1      20.498  48.922  49.912  1.00  0.00    -0.365 N 
HETATM   17  H   UNL     1      20.931  49.717  50.369  1.00  0.00     0.159 HD
HETATM   18  H   UNL     1      19.604  48.565  50.208  1.00  0.00     0.159 HD
HETATM   19  O   UNL     1      20.692  47.339  48.311  1.00  0.00    -0.266 OA
ENDBRANCH   9  15
ENDBRANCH   2   5
BRANCH   1  20
HETATM   20  C   UNL     1      26.950  45.706  53.345  1.00  0.00     0.114 C 
HETATM   21  C   UNL     1      27.765  46.113  54.351  1.00  0.00    -0.027 C 
HETATM   22  C   UNL     1      27.712  47.480  54.993  1.00  0.00     0.050 C 
HETATM   23  C   UNL     1      28.784  45.175  54.871  1.00  0.00     0.005 A 
HETATM   24  C   UNL     1      28.803  43.866  54.398  1.00  0.00     0.090 A 
HETATM   25  C   UNL     1      29.790  45.536  55.782  1.00  0.00     0.015 A 
HETATM   26  O   UNL     1      27.863  43.420  53.463  1.00  0.00    -0.274 OA
HETATM   27  C   UNL     1      29.752  42.929  54.810  1.00  0.00     0.038 A 
HETATM   28  C   UNL     1      26.930  44.282  52.922  1.00  0.00     0.304 C 
HETATM   29  O   UNL     1      26.079  43.855  52.142  1.00  0.00    -0.259 OA
HETATM   30  C   UNL     1      30.734  43.305  55.720  1.00  0.00     0.003 A 
HETATM   31  C   UNL     1      30.753  44.610  56.205  1.00  0.00     0.001 A 
ENDBRANCH   1  20
TORSDOF 3
ENDMDL
MODEL 2
REMARK VINA RESULT:     -10.5      1.927      2.934
REMARK  3 active torsions:
REMARK  status: ('A' for Active; 'I' for Inactive)
REMARK    1  A    between atoms: C_3  and  C_4 
REMARK       I    between atoms: C_4  and  N_5 
REMARK    2  A    between atoms: N_5  and  C_6 
REMARK    3  A    between atoms: C_13  and  C_14 
REMARK       I    between atoms: C_14  and  N_15 
ROOT
HETATM    1  C   UNL     1      25.867  45.180  52.911  1.00  0.00     0.262 C 
HETATM    2  N   UNL     1      25.924  45.869  51.717  1.00  0.00    -0.323 N 
HETATM    3  O   UNL     1      24.889  44.550  53.307  1.00  0.00    -0.267 OA
HETATM    4  H   UNL     1      26.755  46.440  51.563  1.00  0.00     0.169 HD
ENDROOT
BRANCH   2   5
HETATM    5  C   UNL     1      24.903  46.029  50.754  1.00  0.00     0.036 A 
HETATM    6  C   UNL     1      24.589  47.248  50.138  1.00  0.00     0.046 A 
HETATM    7  C   UNL     1      23.581  47.291  49.149  1.00  0.00     0.030 A 
HETATM    8  C   UNL     1      22.911  46.119  48.823  1.00  0.00     0.063 A 
HETATM    9  C   UNL     1      23.009  48.291  48.304  1.00  0.00     0.156 A 
HETATM   10  N   UNL     1      22.021  46.468  47.848  1.00  0.00    -0.277 N 
HETATM   11  C   UNL     1      23.182  44.892  49.431  1.00  0.00     0.034 A 
HETATM   12  H   UNL     1      21.365  45.862  47.369  1.00  0.00     0.189 HD
HETATM   13  N   UNL     1      22.051  47.767  47.505  1.00  0.00    -0.168 NA
HETATM   14  C   UNL     1      24.191  44.874  50.399  1.00  0.00     0.032 A 
BRANCH   9  15
HETATM   15  C   UNL     1      23.359  49.716  48.236  1.00  0.00     0.270 C 
HETATM   16  N   UNL     1      22.941  50.445  49.316  1.00  0.00    -0.365 N 
HETATM   17  H   UNL     1      22.433  49.971  50.053  1.00  0.00     0.159 HD
HETATM   18  H   UNL     1      23.123  51.435  49.352  1.00  0.00     0.159 HD
HETATM   19  O   UNL     1      23.968  50.245  47.313  1.00  0.00    -0.266 OA
ENDBRANCH   9  15
ENDBRANCH   2   5
BRANCH   1  20
HETATM   20  C   UNL     1      27.097  45.300  53.788  1.00  0.00     0.114 C 
HETATM   21  C   UNL     1      28.062  44.347  53.746  1.00  0.00    -0.027 C 
HETATM   22  C   UNL     1      28.146  43.264  52.695  1.00  0.00     0.050 C 
HETATM   23  C   UNL     1      29.112  44.344  54.788  1.00  0.00     0.005 A 
HETATM   24  C   UNL     1      29.150  45.385  55.712  1.00  0.00     0.090 A 
HETATM   25  C   UNL     1      30.054  43.316  54.949  1.00  0.00     0.015 A 
HETATM   26  O   UNL     1      28.232  46.438  55.656  1.00  0.00    -0.274 OA
HETATM   27  C   UNL     1      30.085  45.439  56.747  1.00  0.00     0.038 A 
HETATM   28  C   UNL     1      27.211  46.446  54.727  1.00  0.00     0.304 C 
HETATM   29  O   UNL     1      26.449  47.410  54.661  1.00  0.00    -0.259 OA
HETATM   30  C   UNL     1      31.016  44.415  56.883  1.00  0.00     0.003 A 
HETATM   31  C   UNL     1      30.999  43.352  55.984  1.00  0.00     0.001 A 
ENDBRANCH   1  20
TORSDOF 3
ENDMDL
MODEL 3
REMARK VINA RESULT:     -10.2      5.590      7.772
REMARK  3 active torsions:
REMARK  status: ('A' for Active; 'I' for Inactive)
REMARK    1  A    between atoms: C_3  and  C_4 
REMARK       I    between atoms: C_4  and  N_5 
REMARK    2  A    between atoms: N_5  and  C_6 
REMARK    3  A    between atoms: C_13  and  C_14 
REMARK       I    between atoms: C_14  and  N_15 
ROOT
HETATM    1  C   UNL     1      28.049  43.827  52.659  1.00  0.00     0.262 C 
HETATM    2  N   UNL     1      27.790  42.476  52.764  1.00  0.00    -0.323 N 
HETATM    3  O   UNL     1      27.941  44.480  51.624  1.00  0.00    -0.267 OA
HETATM    4  H   UNL     1      28.027  42.037  53.654  1.00  0.00     0.169 HD
ENDROOT
BRANCH   2   5
HETATM    5  C   UNL     1      27.406  41.580  51.741  1.00  0.00     0.036 A 
HETATM    6  C   UNL     1      28.174  40.483  51.329  1.00  0.00     0.046 A 
HETATM    7  C   UNL     1      27.674  39.618  50.329  1.00  0.00     0.030 A 
HETATM    8  C   UNL     1      26.434  39.890  49.765  1.00  0.00     0.063 A 
HETATM    9  C   UNL     1      28.122  38.427  49.681  1.00  0.00     0.156 A 
HETATM   10  N   UNL     1      26.222  38.893  48.856  1.00  0.00    -0.277 N 
HETATM   11  C   UNL     1      25.652  40.986  50.135  1.00  0.00     0.034 A 
HETATM   12  H   UNL     1      25.412  38.769  48.259  1.00  0.00     0.189 HD
HETATM   13  N   UNL     1      27.214  37.990  48.778  1.00  0.00    -0.168 NA
HETATM   14  C   UNL     1      26.165  41.820  51.134  1.00  0.00     0.032 A 
BRANCH   9  15
HETATM   15  C   UNL     1      29.378  37.699  49.908  1.00  0.00     0.270 C 
HETATM   16  N   UNL     1      29.284  36.702  50.840  1.00  0.00    -0.365 N 
HETATM   17  H   UNL     1      28.393  36.547  51.295  1.00  0.00     0.159 HD
HETATM   18  H   UNL     1      30.099  36.157  51.073  1.00  0.00     0.159 HD
HETATM   19  O   UNL     1      30.437  37.935  49.337  1.00  0.00    -0.266 OA
ENDBRANCH   9  15
ENDBRANCH   2   5
BRANCH   1  20
HETATM   20  C   UNL     1      28.566  44.488  53.921  1.00  0.00     0.114 C 
HETATM   21  C   UNL     1      29.683  44.016  54.530  1.00  0.00    -0.027 C 
HETATM   22  C   UNL     1      30.631  43.012  53.915  1.00  0.00     0.050 C 
HETATM   23  C   UNL     1      30.017  44.498  55.888  1.00  0.00     0.005 A 
HETATM   24  C   UNL     1      29.245  45.507  56.456  1.00  0.00     0.090 A 
HETATM   25  C   UNL     1      31.042  43.959  56.682  1.00  0.00     0.015 A 
HETATM   26  O   UNL     1      28.179  46.085  55.757  1.00  0.00    -0.274 OA
HETATM   27  C   UNL     1      29.470  45.994  57.745  1.00  0.00     0.038 A 
HETATM   28  C   UNL     1      27.812  45.625  54.509  1.00  0.00     0.304 C 
HETATM   29  O   UNL     1      26.907  46.184  53.890  1.00  0.00    -0.259 OA
HETATM   30  C   UNL     1      30.497  45.452  58.511  1.00  0.00     0.003 A 
HETATM   31  C   UNL     1      31.281  44.433  57.979  1.00  0.00     0.001 A 
ENDBRANCH   1  20
TORSDOF 3
ENDMDL
MODEL 4
REMARK VINA RESULT:      -9.9      1.815      2.625
REMARK  3 active torsions:
REMARK  status: ('A' for Active; 'I' for Inactive)
REMARK    1  A    between atoms: C_3  and  C_4 
REMARK       I    between atoms: C_4  and  N_5 
REMARK    2  A    between atoms: N_5  and  C_6 
REMARK    3  A    between atoms: C_13  and  C_14 
REMARK       I    between atoms: C_14  and  N_15 
ROOT
HETATM    1  C   UNL     1      25.601  44.376  52.551  1.00  0.00     0.262 C 
HETATM    2  N   UNL     1      25.821  45.136  51.421  1.00  0.00    -0.323 N 
HETATM    3  O   UNL     1      24.498  43.988  52.927  1.00  0.00    -0.267 OA
HETATM    4  H   UNL     1      26.771  45.483  51.285  1.00  0.00     0.169 HD
ENDROOT
BRANCH   2   5
HETATM    5  C   UNL     1      24.865  45.647  50.515  1.00  0.00     0.036 A 
HETATM    6  C   UNL     1      24.790  46.992  50.129  1.00  0.00     0.046 A 
HETATM    7  C   UNL     1      23.825  47.392  49.176  1.00  0.00     0.030 A 
HETATM    8  C   UNL     1      22.959  46.438  48.657  1.00  0.00     0.063 A 
HETATM    9  C   UNL     1      23.461  48.612  48.530  1.00  0.00     0.156 A 
HETATM   10  N   UNL     1      22.166  47.110  47.772  1.00  0.00    -0.277 N 
HETATM   11  C   UNL     1      22.991  45.094  49.035  1.00  0.00     0.034 A 
HETATM   12  H   UNL     1      21.420  46.727  47.203  1.00  0.00     0.189 HD
HETATM   13  N   UNL     1      22.439  48.421  47.664  1.00  0.00    -0.168 NA
HETATM   14  C   UNL     1      23.962  44.723  49.971  1.00  0.00     0.032 A 
BRANCH   9  15
HETATM   15  C   UNL     1      24.066  49.939  48.710  1.00  0.00     0.270 C 
HETATM   16  N   UNL     1      25.240  50.114  48.029  1.00  0.00    -0.365 N 
HETATM   17  H   UNL     1      25.599  49.344  47.476  1.00  0.00     0.159 HD
HETATM   18  H   UNL     1      25.735  50.988  48.103  1.00  0.00     0.159 HD
HETATM   19  O   UNL     1      23.596  50.835  49.402  1.00  0.00    -0.266 OA
ENDBRANCH   9  15
ENDBRANCH   2   5
BRANCH   1  20
HETATM   20  C   UNL     1      26.832  44.089  53.388  1.00  0.00     0.114 C 
HETATM   21  C   UNL     1      27.242  44.978  54.327  1.00  0.00    -0.027 C 
HETATM   22  C   UNL     1      26.423  46.157  54.802  1.00  0.00     0.050 C 
HETATM   23  C   UNL     1      28.578  44.808  54.940  1.00  0.00     0.005 A 
HETATM   24  C   UNL     1      29.326  43.678  54.626  1.00  0.00     0.090 A 
HETATM   25  C   UNL     1      29.178  45.754  55.788  1.00  0.00     0.015 A 
HETATM   26  O   UNL     1      28.829  42.696  53.763  1.00  0.00    -0.274 OA
HETATM   27  C   UNL     1      30.609  43.459  55.133  1.00  0.00     0.038 A 
HETATM   28  C   UNL     1      27.608  42.847  53.137  1.00  0.00     0.304 C 
HETATM   29  O   UNL     1      27.167  41.945  52.426  1.00  0.00    -0.259 OA
HETATM   30  C   UNL     1      31.181  44.403  55.978  1.00  0.00     0.003 A 
HETATM   31  C   UNL     1      30.465  45.552  56.303  1.00  0.00     0.001 A 
ENDBRANCH   1  20
TORSDOF 3
ENDMDL
MODEL 5
REMARK VINA RESULT:      -9.8      3.437      4.335
REMARK  3 active torsions:
REMARK  status: ('A' for Active; 'I' for Inactive)
REMARK    1  A    between atoms: C_3  and  C_4 
REMARK       I    between atoms: C_4  and  N_5 
REMARK    2  A    between atoms: N_5  and  C_6 
REMARK    3  A    between atoms: C_13  and  C_14 
REMARK       I    between atoms: C_14  and  N_15 
ROOT
HETATM    1  C   UNL     1      27.062  43.609  51.548  1.00  0.00     0.262 C 
HETATM    2  N   UNL     1      25.931  42.817  51.542  1.00  0.00    -0.323 N 
HETATM    3  O   UNL     1      27.415  44.329  50.618  1.00  0.00    -0.267 OA
HETATM    4  H   UNL     1      25.816  42.185  52.334  1.00  0.00     0.169 HD
ENDROOT
BRANCH   2   5
HETATM    5  C   UNL     1      25.000  42.637  50.495  1.00  0.00     0.036 A 
HETATM    6  C   UNL     1      24.002  43.564  50.164  1.00  0.00     0.046 A 
HETATM    7  C   UNL     1      23.151  43.310  49.064  1.00  0.00     0.030 A 
HETATM    8  C   UNL     1      23.316  42.133  48.346  1.00  0.00     0.063 A 
HETATM    9  C   UNL     1      22.076  43.991  48.417  1.00  0.00     0.156 A 
HETATM   10  N   UNL     1      22.375  42.176  47.357  1.00  0.00    -0.277 N 
HETATM   11  C   UNL     1      24.284  41.178  48.661  1.00  0.00     0.034 A 
HETATM   12  H   UNL     1      22.207  41.480  46.639  1.00  0.00     0.189 HD
HETATM   13  N   UNL     1      21.610  43.280  47.364  1.00  0.00    -0.168 NA
HETATM   14  C   UNL     1      25.120  41.457  49.746  1.00  0.00     0.032 A 
BRANCH   9  15
HETATM   15  C   UNL     1      21.495  45.293  48.770  1.00  0.00     0.270 C 
HETATM   16  N   UNL     1      20.239  45.216  49.306  1.00  0.00    -0.365 N 
HETATM   17  H   UNL     1      19.811  44.304  49.411  1.00  0.00     0.159 HD
HETATM   18  H   UNL     1      19.753  46.060  49.567  1.00  0.00     0.159 HD
HETATM   19  O   UNL     1      22.050  46.375  48.612  1.00  0.00    -0.266 OA
ENDBRANCH   9  15
ENDBRANCH   2   5
BRANCH   1  20
HETATM   20  C   UNL     1      27.929  43.489  52.785  1.00  0.00     0.114 C 
HETATM   21  C   UNL     1      27.919  44.468  53.724  1.00  0.00    -0.027 C 
HETATM   22  C   UNL     1      26.910  45.592  53.774  1.00  0.00     0.050 C 
HETATM   23  C   UNL     1      28.957  44.461  54.778  1.00  0.00     0.005 A 
HETATM   24  C   UNL     1      29.841  43.388  54.849  1.00  0.00     0.090 A 
HETATM   25  C   UNL     1      29.153  45.508  55.693  1.00  0.00     0.015 A 
HETATM   26  O   UNL     1      29.749  42.313  53.959  1.00  0.00    -0.274 OA
HETATM   27  C   UNL     1      30.870  43.321  55.790  1.00  0.00     0.038 A 
HETATM   28  C   UNL     1      28.824  42.312  52.934  1.00  0.00     0.304 C 
HETATM   29  O   UNL     1      28.724  41.331  52.198  1.00  0.00    -0.259 OA
HETATM   30  C   UNL     1      31.040  44.364  56.694  1.00  0.00     0.003 A 
HETATM   31  C   UNL     1      30.182  45.459  56.643  1.00  0.00     0.001 A 
ENDBRANCH   1  20
TORSDOF 3
ENDMDL
MODEL 6
REMARK VINA RESULT:      -9.8      2.661      3.423
REMARK  3 active torsions:
REMARK  status: ('A' for Active; 'I' for Inactive)
REMARK    1  A    between atoms: C_3  and  C_4 
REMARK       I    between atoms: C_4  and  N_5 
REMARK    2  A    between atoms: N_5  and  C_6 
REMARK    3  A    between atoms: C_13  and  C_14 
REMARK       I    between atoms: C_14  and  N_15 
ROOT
HETATM    1  C   UNL     1      25.753  45.264  52.431  1.00  0.00     0.262 C 
HETATM    2  N   UNL     1      25.827  45.994  51.262  1.00  0.00    -0.323 N 
HETATM    3  O   UNL     1      24.770  44.622  52.791  1.00  0.00    -0.267 OA
HETATM    4  H   UNL     1      26.660  46.570  51.139  1.00  0.00     0.169 HD
ENDROOT
BRANCH   2   5
HETATM    5  C   UNL     1      24.819  46.189  50.291  1.00  0.00     0.036 A 
HETATM    6  C   UNL     1      24.334  45.179  49.450  1.00  0.00     0.046 A 
HETATM    7  C   UNL     1      23.287  45.467  48.546  1.00  0.00     0.030 A 
HETATM    8  C   UNL     1      22.775  46.758  48.501  1.00  0.00     0.063 A 
HETATM    9  C   UNL     1      22.529  44.736  47.581  1.00  0.00     0.156 A 
HETATM   10  N   UNL     1      21.788  46.725  47.558  1.00  0.00    -0.277 N 
HETATM   11  C   UNL     1      23.250  47.794  49.307  1.00  0.00     0.034 A 
HETATM   12  H   UNL     1      21.195  47.492  47.264  1.00  0.00     0.189 HD
HETATM   13  N   UNL     1      21.607  45.524  46.983  1.00  0.00    -0.168 NA
HETATM   14  C   UNL     1      24.278  47.480  50.201  1.00  0.00     0.032 A 
BRANCH   9  15
HETATM   15  C   UNL     1      22.658  43.315  47.228  1.00  0.00     0.270 C 
HETATM   16  N   UNL     1      23.818  43.007  46.571  1.00  0.00    -0.365 N 
HETATM   17  H   UNL     1      24.477  43.751  46.376  1.00  0.00     0.159 HD
HETATM   18  H   UNL     1      23.989  42.059  46.276  1.00  0.00     0.159 HD
HETATM   19  O   UNL     1      21.823  42.452  47.477  1.00  0.00    -0.266 OA
ENDBRANCH   9  15
ENDBRANCH   2   5
BRANCH   1  20
HETATM   20  C   UNL     1      26.970  45.353  53.329  1.00  0.00     0.114 C 
HETATM   21  C   UNL     1      27.903  44.367  53.315  1.00  0.00    -0.027 C 
HETATM   22  C   UNL     1      27.968  43.269  52.278  1.00  0.00     0.050 C 
HETATM   23  C   UNL     1      28.934  44.341  54.375  1.00  0.00     0.005 A 
HETATM   24  C   UNL     1      28.991  45.390  55.288  1.00  0.00     0.090 A 
HETATM   25  C   UNL     1      29.837  43.283  54.565  1.00  0.00     0.015 A 
HETATM   26  O   UNL     1      28.111  46.474  55.203  1.00  0.00    -0.274 OA
HETATM   27  C   UNL     1      29.910  45.425  56.339  1.00  0.00     0.038 A 
HETATM   28  C   UNL     1      27.107  46.506  54.256  1.00  0.00     0.304 C 
HETATM   29  O   UNL     1      26.380  47.494  54.165  1.00  0.00    -0.259 OA
HETATM   30  C   UNL     1      30.802  44.371  56.503  1.00  0.00     0.003 A 
HETATM   31  C   UNL     1      30.764  43.299  55.616  1.00  0.00     0.001 A 
ENDBRANCH   1  20
TORSDOF 3
ENDMDL
MODEL 7
REMARK VINA RESULT:      -9.7      4.022      5.487
REMARK  3 active torsions:
REMARK  status: ('A' for Active; 'I' for Inactive)
REMARK    1  A    between atoms: C_3  and  C_4 
REMARK       I    between atoms: C_4  and  N_5 
REMARK    2  A    between atoms: N_5  and  C_6 
REMARK    3  A    between atoms: C_13  and  C_14 
REMARK       I    between atoms: C_14  and  N_15 
ROOT
HETATM    1  C   UNL     1      27.906  43.984  52.275  1.00  0.00     0.262 C 
HETATM    2  N   UNL     1      27.114  42.861  52.396  1.00  0.00    -0.323 N 
HETATM    3  O   UNL     1      28.135  44.566  51.218  1.00  0.00    -0.267 OA
HETATM    4  H   UNL     1      27.099  42.414  53.312  1.00  0.00     0.169 HD
ENDROOT
BRANCH   2   5
HETATM    5  C   UNL     1      26.460  42.142  51.370  1.00  0.00     0.036 A 
HETATM    6  C   UNL     1      25.411  42.657  50.597  1.00  0.00     0.046 A 
HETATM    7  C   UNL     1      24.858  41.871  49.560  1.00  0.00     0.030 A 
HETATM    8  C   UNL     1      25.360  40.594  49.346  1.00  0.00     0.063 A 
HETATM    9  C   UNL     1      23.840  42.039  48.573  1.00  0.00     0.156 A 
HETATM   10  N   UNL     1      24.647  40.096  48.292  1.00  0.00    -0.277 N 
HETATM   11  C   UNL     1      26.388  40.041  50.111  1.00  0.00     0.034 A 
HETATM   12  H   UNL     1      24.749  39.185  47.859  1.00  0.00     0.189 HD
HETATM   13  N   UNL     1      23.724  40.937  47.797  1.00  0.00    -0.168 NA
HETATM   14  C   UNL     1      26.926  40.842  51.123  1.00  0.00     0.032 A 
BRANCH   9  15
HETATM   15  C   UNL     1      22.990  43.217  48.351  1.00  0.00     0.270 C 
HETATM   16  N   UNL     1      23.508  44.118  47.462  1.00  0.00    -0.365 N 
HETATM   17  H   UNL     1      24.409  43.921  47.041  1.00  0.00     0.159 HD
HETATM   18  H   UNL     1      23.003  44.965  47.256  1.00  0.00     0.159 HD
HETATM   19  O   UNL     1      21.909  43.415  48.895  1.00  0.00    -0.266 OA
ENDBRANCH   9  15
ENDBRANCH   2   5
BRANCH   1  20
HETATM   20  C   UNL     1      28.572  44.449  53.555  1.00  0.00     0.114 C 
HETATM   21  C   UNL     1      29.660  43.795  54.035  1.00  0.00    -0.027 C 
HETATM   22  C   UNL     1      30.445  42.761  53.260  1.00  0.00     0.050 C 
HETATM   23  C   UNL     1      30.128  44.093  55.406  1.00  0.00     0.005 A 
HETATM   24  C   UNL     1      29.514  45.117  56.122  1.00  0.00     0.090 A 
HETATM   25  C   UNL     1      31.128  43.364  56.069  1.00  0.00     0.015 A 
HETATM   26  O   UNL     1      28.485  45.879  55.559  1.00  0.00    -0.274 OA
HETATM   27  C   UNL     1      29.872  45.439  57.433  1.00  0.00     0.038 A 
HETATM   28  C   UNL     1      27.993  45.595  54.301  1.00  0.00     0.304 C 
HETATM   29  O   UNL     1      27.125  46.313  53.805  1.00  0.00    -0.259 OA
HETATM   30  C   UNL     1      30.871  44.710  58.068  1.00  0.00     0.003 A 
HETATM   31  C   UNL     1      31.497  43.670  57.386  1.00  0.00     0.001 A 
ENDBRANCH   1  20
TORSDOF 3
ENDMDL
MODEL 8
REMARK VINA RESULT:      -9.6      3.426      4.954
REMARK  3 active torsions:
REMARK  status: ('A' for Active; 'I' for Inactive)
REMARK    1  A    between atoms: C_3  and  C_4 
REMARK       I    between atoms: C_4  and  N_5 
REMARK    2  A    between atoms: N_5  and  C_6 
REMARK    3  A    between atoms: C_13  and  C_14 
REMARK       I    between atoms: C_14  and  N_15 
ROOT
HETATM    1  C   UNL     1      27.412  43.877  53.067  1.00  0.00     0.262 C 
HETATM    2  N   UNL     1      27.191  44.756  52.027  1.00  0.00    -0.323 N 
HETATM    3  O   UNL     1      26.896  42.766  53.163  1.00  0.00    -0.267 OA
HETATM    4  H   UNL     1      27.594  45.688  52.128  1.00  0.00     0.169 HD
ENDROOT
BRANCH   2   5
HETATM    5  C   UNL     1      26.330  44.596  50.919  1.00  0.00     0.036 A 
HETATM    6  C   UNL     1      26.255  43.430  50.145  1.00  0.00     0.046 A 
HETATM    7  C   UNL     1      25.322  43.355  49.086  1.00  0.00     0.030 A 
HETATM    8  C   UNL     1      24.510  44.452  48.827  1.00  0.00     0.063 A 
HETATM    9  C   UNL     1      24.935  42.373  48.123  1.00  0.00     0.156 A 
HETATM   10  N   UNL     1      23.722  44.080  47.775  1.00  0.00    -0.277 N 
HETATM   11  C   UNL     1      24.573  45.636  49.563  1.00  0.00     0.034 A 
HETATM   12  H   UNL     1      23.005  44.634  47.321  1.00  0.00     0.189 HD
HETATM   13  N   UNL     1      23.945  42.835  47.324  1.00  0.00    -0.168 NA
HETATM   14  C   UNL     1      25.497  45.682  50.612  1.00  0.00     0.032 A 
BRANCH   9  15
HETATM   15  C   UNL     1      25.477  41.018  47.955  1.00  0.00     0.270 C 
HETATM   16  N   UNL     1      25.223  40.182  49.008  1.00  0.00    -0.365 N 
HETATM   17  H   UNL     1      24.708  40.545  49.802  1.00  0.00     0.159 HD
HETATM   18  H   UNL     1      25.568  39.236  48.990  1.00  0.00     0.159 HD
HETATM   19  O   UNL     1      26.107  40.630  46.977  1.00  0.00    -0.266 OA
ENDBRANCH   9  15
ENDBRANCH   2   5
BRANCH   1  20
HETATM   20  C   UNL     1      28.304  44.396  54.176  1.00  0.00     0.114 C 
HETATM   21  C   UNL     1      29.465  43.760  54.473  1.00  0.00    -0.027 C 
HETATM   22  C   UNL     1      30.094  42.687  53.614  1.00  0.00     0.050 C 
HETATM   23  C   UNL     1      30.182  44.119  55.717  1.00  0.00     0.005 A 
HETATM   24  C   UNL     1      29.711  45.178  56.486  1.00  0.00     0.090 A 
HETATM   25  C   UNL     1      31.291  43.415  56.214  1.00  0.00     0.015 A 
HETATM   26  O   UNL     1      28.592  45.919  56.092  1.00  0.00    -0.274 OA
HETATM   27  C   UNL     1      30.307  45.559  57.690  1.00  0.00     0.038 A 
HETATM   28  C   UNL     1      27.872  45.579  54.964  1.00  0.00     0.304 C 
HETATM   29  O   UNL     1      26.925  46.278  54.607  1.00  0.00    -0.259 OA
HETATM   30  C   UNL     1      31.410  44.855  58.159  1.00  0.00     0.003 A 
HETATM   31  C   UNL     1      31.901  43.781  57.422  1.00  0.00     0.001 A 
ENDBRANCH   1  20
TORSDOF 3
ENDMDL
MODEL 9
REMARK VINA RESULT:      -9.2      4.752      6.007
REMARK  3 active torsions:
REMARK  status: ('A' for Active; 'I' for Inactive)
REMARK    1  A    between atoms: C_3  and  C_4 
REMARK       I    between atoms: C_4  and  N_5 
REMARK    2  A    between atoms: N_5  and  C_6 
REMARK    3  A    between atoms: C_13  and  C_14 
REMARK       I    between atoms: C_14  and  N_15 
ROOT
HETATM    1  C   UNL     1      27.164  43.408  51.640  1.00  0.00     0.262 C 
HETATM    2  N   UNL     1      26.087  42.546  51.644  1.00  0.00    -0.323 N 
HETATM    3  O   UNL     1      27.488  44.117  50.690  1.00  0.00    -0.267 OA
HETATM    4  H   UNL     1      25.998  41.935  52.456  1.00  0.00     0.169 HD
ENDROOT
BRANCH   2   5
HETATM    5  C   UNL     1      25.189  42.269  50.589  1.00  0.00     0.036 A 
HETATM    6  C   UNL     1      25.454  41.371  49.547  1.00  0.00     0.046 A 
HETATM    7  C   UNL     1      24.466  41.128  48.566  1.00  0.00     0.030 A 
HETATM    8  C   UNL     1      23.256  41.804  48.652  1.00  0.00     0.063 A 
HETATM    9  C   UNL     1      24.346  40.299  47.410  1.00  0.00     0.156 A 
HETATM   10  N   UNL     1      22.517  41.361  47.592  1.00  0.00    -0.277 N 
HETATM   11  C   UNL     1      22.966  42.723  49.662  1.00  0.00     0.034 A 
HETATM   12  H   UNL     1      21.575  41.639  47.342  1.00  0.00     0.189 HD
HETATM   13  N   UNL     1      23.137  40.452  46.821  1.00  0.00    -0.168 NA
HETATM   14  C   UNL     1      23.956  42.937  50.626  1.00  0.00     0.032 A 
BRANCH   9  15
HETATM   15  C   UNL     1      25.343  39.368  46.864  1.00  0.00     0.270 C 
HETATM   16  N   UNL     1      26.403  39.982  46.253  1.00  0.00    -0.365 N 
HETATM   17  H   UNL     1      26.421  40.994  46.215  1.00  0.00     0.159 HD
HETATM   18  H   UNL     1      27.131  39.424  45.836  1.00  0.00     0.159 HD
HETATM   19  O   UNL     1      25.270  38.146  46.926  1.00  0.00    -0.266 OA
ENDBRANCH   9  15
ENDBRANCH   2   5
BRANCH   1  20
HETATM   20  C   UNL     1      28.014  43.389  52.895  1.00  0.00     0.114 C 
HETATM   21  C   UNL     1      27.971  44.428  53.765  1.00  0.00    -0.027 C 
HETATM   22  C   UNL     1      26.939  45.533  53.726  1.00  0.00     0.050 C 
HETATM   23  C   UNL     1      28.992  44.512  54.833  1.00  0.00     0.005 A 
HETATM   24  C   UNL     1      29.895  43.464  54.988  1.00  0.00     0.090 A 
HETATM   25  C   UNL     1      29.153  45.621  55.679  1.00  0.00     0.015 A 
HETATM   26  O   UNL     1      29.837  42.331  54.171  1.00  0.00    -0.274 OA
HETATM   27  C   UNL     1      30.910  43.480  55.947  1.00  0.00     0.038 A 
HETATM   28  C   UNL     1      28.928  42.243  53.135  1.00  0.00     0.304 C 
HETATM   29  O   UNL     1      28.860  41.213  52.465  1.00  0.00    -0.259 OA
HETATM   30  C   UNL     1      31.046  44.585  56.781  1.00  0.00     0.003 A 
HETATM   31  C   UNL     1      30.168  45.656  56.645  1.00  0.00     0.001 A 
ENDBRANCH   1  20
TORSDOF 3
ENDMDL
MODEL 10
REMARK VINA RESULT:      -9.1      4.235      9.656
REMARK  3 active torsions:
REMARK  status: ('A' for Active; 'I' for Inactive)
REMARK    1  A    between atoms: C_3  and  C_4 
REMARK       I    between atoms: C_4  and  N_5 
REMARK    2  A    between atoms: N_5  and  C_6 
REMARK    3  A    between atoms: C_13  and  C_14 
REMARK       I    between atoms: C_14  and  N_15 
ROOT
HETATM    1  C   UNL     1      22.312  48.985  48.671  1.00  0.00     0.262 C 
HETATM    2  N   UNL     1      22.758  48.155  49.678  1.00  0.00    -0.323 N 
HETATM    3  O   UNL     1      22.897  49.168  47.607  1.00  0.00    -0.267 OA
HETATM    4  H   UNL     1      22.234  48.181  50.553  1.00  0.00     0.169 HD
ENDROOT
BRANCH   2   5
HETATM    5  C   UNL     1      23.954  47.403  49.722  1.00  0.00     0.036 A 
HETATM    6  C   UNL     1      24.012  46.012  49.566  1.00  0.00     0.046 A 
HETATM    7  C   UNL     1      25.266  45.361  49.576  1.00  0.00     0.030 A 
HETATM    8  C   UNL     1      26.415  46.120  49.760  1.00  0.00     0.063 A 
HETATM    9  C   UNL     1      25.730  44.018  49.428  1.00  0.00     0.156 A 
HETATM   10  N   UNL     1      27.450  45.230  49.712  1.00  0.00    -0.277 N 
HETATM   11  C   UNL     1      26.393  47.503  49.941  1.00  0.00     0.034 A 
HETATM   12  H   UNL     1      28.439  45.433  49.805  1.00  0.00     0.189 HD
HETATM   13  N   UNL     1      27.079  43.954  49.511  1.00  0.00    -0.168 NA
HETATM   14  C   UNL     1      25.140  48.125  49.915  1.00  0.00     0.032 A 
BRANCH   9  15
HETATM   15  C   UNL     1      24.926  42.809  49.203  1.00  0.00     0.270 C 
HETATM   16  N   UNL     1      24.766  42.484  47.883  1.00  0.00    -0.365 N 
HETATM   17  H   UNL     1      25.190  43.080  47.182  1.00  0.00     0.159 HD
HETATM   18  H   UNL     1      24.217  41.678  47.630  1.00  0.00     0.159 HD
HETATM   19  O   UNL     1      24.422  42.127  50.088  1.00  0.00    -0.266 OA
ENDBRANCH   9  15
ENDBRANCH   2   5
BRANCH   1  20
HETATM   20  C   UNL     1      21.043  49.754  48.980  1.00  0.00     0.114 C 
HETATM   21  C   UNL     1      19.894  49.470  48.317  1.00  0.00    -0.027 C 
HETATM   22  C   UNL     1      19.691  48.254  47.442  1.00  0.00     0.050 C 
HETATM   23  C   UNL     1      18.747  50.397  48.440  1.00  0.00     0.005 A 
HETATM   24  C   UNL     1      18.837  51.470  49.321  1.00  0.00     0.090 A 
HETATM   25  C   UNL     1      17.576  50.302  47.671  1.00  0.00     0.015 A 
HETATM   26  O   UNL     1      19.978  51.670  50.106  1.00  0.00    -0.274 OA
HETATM   27  C   UNL     1      17.816  52.410  49.471  1.00  0.00     0.038 A 
HETATM   28  C   UNL     1      21.083  50.851  49.980  1.00  0.00     0.304 C 
HETATM   29  O   UNL     1      22.053  51.013  50.719  1.00  0.00    -0.259 OA
HETATM   30  C   UNL     1      16.660  52.292  48.707  1.00  0.00     0.003 A 
HETATM   31  C   UNL     1      16.541  51.238  47.806  1.00  0.00     0.001 A 
ENDBRANCH   1  20
TORSDOF 3
ENDMDL
