MODEL 1
REMARK VINA RESULT:     -10.0      0.000      0.000
REMARK  4 active torsions:
REMARK  status: ('A' for Active; 'I' for Inactive)
REMARK    1  A    between atoms: C_2  and  C_3 
REMARK    2  A    between atoms: C_6  and  C_7 
REMARK    3  A    between atoms: N_8  and  N_9 
REMARK       I    between atoms: N_9  and  C_10 
REMARK    4  A    between atoms: C_10  and  C_11 
ROOT
HETATM    1  N   UNL     1      25.071  46.328  51.327  1.00  0.00    -0.242 N 
HETATM    2  C   UNL     1      25.081  46.218  49.948  1.00  0.00     0.292 C 
HETATM    3  O   UNL     1      25.984  45.852  49.212  1.00  0.00    -0.264 OA
HETATM    4  H   UNL     1      24.198  46.616  51.766  1.00  0.00     0.192 HD
ENDROOT
BRANCH   1   5
HETATM    5  N   UNL     1      26.141  46.284  52.183  1.00  0.00    -0.183 NA
HETATM    6  C   UNL     1      25.955  46.111  53.452  1.00  0.00     0.152 C 
BRANCH   6   7
HETATM    7  C   UNL     1      27.109  45.948  54.315  1.00  0.00     0.011 A 
HETATM    8  C   UNL     1      27.998  44.826  54.361  1.00  0.00     0.004 A 
HETATM    9  C   UNL     1      29.006  45.119  55.285  1.00  0.00     0.049 A 
HETATM   10  C   UNL     1      28.050  43.594  53.675  1.00  0.00     0.014 A 
HETATM   11  C   UNL     1      30.083  44.251  55.554  1.00  0.00    -0.031 A 
HETATM   12  N   UNL     1      28.709  46.358  55.811  1.00  0.00    -0.364 N 
HETATM   13  C   UNL     1      30.090  43.031  54.851  1.00  0.00     0.009 A 
HETATM   14  C   UNL     1      29.095  42.705  53.932  1.00  0.00     0.002 A 
HETATM   15  C   UNL     1      27.583  46.868  55.230  1.00  0.00     0.102 A 
HETATM   16  H   UNL     1      29.262  46.827  56.514  1.00  0.00     0.165 HD
BRANCH  11  17
HETATM   17  C   UNL     1      31.186  44.554  56.536  1.00  0.00     0.036 C 
HETATM   18  C   UNL     1      31.778  43.287  57.135  1.00  0.00     0.010 C 
ENDBRANCH  11  17
ENDBRANCH   6   7
ENDBRANCH   1   5
BRANCH   2  19
HETATM   19  C   UNL     1      23.769  46.683  49.335  1.00  0.00     0.157 A 
HETATM   20  N   UNL     1      22.798  45.813  49.310  1.00  0.00    -0.166 NA
HETATM   21  N   UNL     1      21.606  46.208  48.780  1.00  0.00    -0.242 N 
HETATM   22  C   UNL     1      21.318  47.451  48.266  1.00  0.00     0.272 A 
HETATM   23  H   UNL     1      20.868  45.511  48.743  1.00  0.00     0.192 HD
HETATM   24  O   UNL     1      20.221  47.729  47.798  1.00  0.00    -0.266 OA
HETATM   25  C   UNL     1      22.405  48.444  48.323  1.00  0.00     0.046 A 
HETATM   26  C   UNL     1      23.638  48.074  48.855  1.00  0.00     0.016 A 
HETATM   27  C   UNL     1      22.194  49.748  47.859  1.00  0.00     0.018 A 
HETATM   28  C   UNL     1      24.666  49.020  48.937  1.00  0.00     0.015 A 
HETATM   29  C   UNL     1      24.456  50.322  48.473  1.00  0.00     0.001 A 
HETATM   30  C   UNL     1      23.224  50.686  47.935  1.00  0.00     0.001 A 
ENDBRANCH   2  19
TORSDOF 4
ENDMDL
MODEL 2
REMARK VINA RESULT:      -9.7      1.414      2.253
REMARK  4 active torsions:
REMARK  status: ('A' for Active; 'I' for Inactive)
REMARK    1  A    between atoms: C_2  and  C_3 
REMARK    2  A    between atoms: C_6  and  C_7 
REMARK    3  A    between atoms: N_8  and  N_9 
REMARK       I    between atoms: N_9  and  C_10 
REMARK    4  A    between atoms: C_10  and  C_11 
ROOT
HETATM    1  N   UNL     1      25.219  47.137  51.632  1.00  0.00    -0.242 N 
HETATM    2  C   UNL     1      25.348  47.421  50.284  1.00  0.00     0.292 C 
HETATM    3  O   UNL     1      26.350  47.402  49.587  1.00  0.00    -0.264 OA
HETATM    4  H   UNL     1      24.280  47.169  52.028  1.00  0.00     0.192 HD
ENDROOT
BRANCH   1   5
HETATM    5  N   UNL     1      26.216  46.999  52.563  1.00  0.00    -0.183 NA
HETATM    6  C   UNL     1      26.118  46.109  53.497  1.00  0.00     0.152 C 
BRANCH   6   7
HETATM    7  C   UNL     1      27.240  45.905  54.393  1.00  0.00     0.011 A 
HETATM    8  C   UNL     1      28.173  44.818  54.371  1.00  0.00     0.004 A 
HETATM    9  C   UNL     1      29.127  45.056  55.365  1.00  0.00     0.049 A 
HETATM   10  C   UNL     1      28.305  43.663  53.572  1.00  0.00     0.014 A 
HETATM   11  C   UNL     1      30.227  44.207  55.598  1.00  0.00    -0.031 A 
HETATM   12  N   UNL     1      28.756  46.224  55.995  1.00  0.00    -0.364 N 
HETATM   13  C   UNL     1      30.315  43.063  54.781  1.00  0.00     0.009 A 
HETATM   14  C   UNL     1      29.375  42.793  53.790  1.00  0.00     0.002 A 
HETATM   15  C   UNL     1      27.634  46.747  55.415  1.00  0.00     0.102 A 
HETATM   16  H   UNL     1      29.258  46.642  56.766  1.00  0.00     0.165 HD
BRANCH  11  17
HETATM   17  C   UNL     1      31.273  44.452  56.656  1.00  0.00     0.036 C 
HETATM   18  C   UNL     1      31.890  43.155  57.156  1.00  0.00     0.010 C 
ENDBRANCH  11  17
ENDBRANCH   6   7
ENDBRANCH   1   5
BRANCH   2  19
HETATM   19  C   UNL     1      24.027  47.858  49.670  1.00  0.00     0.157 A 
HETATM   20  N   UNL     1      23.767  49.135  49.699  1.00  0.00    -0.166 NA
HETATM   21  N   UNL     1      22.597  49.557  49.140  1.00  0.00    -0.242 N 
HETATM   22  C   UNL     1      21.653  48.761  48.536  1.00  0.00     0.272 A 
HETATM   23  H   UNL     1      22.396  50.552  49.195  1.00  0.00     0.192 HD
HETATM   24  O   UNL     1      20.618  49.215  48.062  1.00  0.00    -0.266 OA
HETATM   25  C   UNL     1      21.961  47.321  48.474  1.00  0.00     0.046 A 
HETATM   26  C   UNL     1      23.146  46.855  49.038  1.00  0.00     0.016 A 
HETATM   27  C   UNL     1      21.078  46.437  47.843  1.00  0.00     0.018 A 
HETATM   28  C   UNL     1      23.458  45.492  48.959  1.00  0.00     0.015 A 
HETATM   29  C   UNL     1      22.576  44.609  48.330  1.00  0.00     0.001 A 
HETATM   30  C   UNL     1      21.388  45.079  47.774  1.00  0.00     0.001 A 
ENDBRANCH   2  19
TORSDOF 4
ENDMDL
MODEL 3
REMARK VINA RESULT:      -9.3      2.754      9.511
REMARK  4 active torsions:
REMARK  status: ('A' for Active; 'I' for Inactive)
REMARK    1  A    between atoms: C_2  and  C_3 
REMARK    2  A    between atoms: C_6  and  C_7 
REMARK    3  A    between atoms: N_8  and  N_9 
REMARK       I    between atoms: N_9  and  C_10 
REMARK    4  A    between atoms: C_10  and  C_11 
ROOT
HETATM    1  N   UNL     1      25.257  45.041  50.297  1.00  0.00    -0.242 N 
HETATM    2  C   UNL     1      26.575  44.909  49.899  1.00  0.00     0.292 C 
HETATM    3  O   UNL     1      27.298  45.726  49.348  1.00  0.00    -0.264 OA
HETATM    4  H   UNL     1      24.835  44.250  50.784  1.00  0.00     0.192 HD
ENDROOT
BRANCH   1   5
HETATM    5  N   UNL     1      24.369  46.029  49.958  1.00  0.00    -0.183 NA
HETATM    6  C   UNL     1      23.589  45.883  48.937  1.00  0.00     0.152 C 
BRANCH   6   7
HETATM    7  C   UNL     1      22.579  46.891  48.675  1.00  0.00     0.011 A 
HETATM    8  C   UNL     1      22.777  48.308  48.599  1.00  0.00     0.004 A 
HETATM    9  C   UNL     1      21.552  48.891  48.261  1.00  0.00     0.049 A 
HETATM   10  C   UNL     1      23.901  49.145  48.761  1.00  0.00     0.014 A 
HETATM   11  C   UNL     1      21.386  50.275  48.057  1.00  0.00    -0.031 A 
HETATM   12  N   UNL     1      20.637  47.864  48.180  1.00  0.00    -0.364 N 
HETATM   13  C   UNL     1      22.533  51.073  48.236  1.00  0.00     0.009 A 
HETATM   14  C   UNL     1      23.765  50.523  48.583  1.00  0.00     0.002 A 
HETATM   15  C   UNL     1      21.242  46.662  48.415  1.00  0.00     0.102 A 
HETATM   16  H   UNL     1      19.658  47.987  47.958  1.00  0.00     0.165 HD
BRANCH  11  17
HETATM   17  C   UNL     1      20.077  50.922  47.680  1.00  0.00     0.036 C 
HETATM   18  C   UNL     1      19.683  52.019  48.657  1.00  0.00     0.010 C 
ENDBRANCH  11  17
ENDBRANCH   6   7
ENDBRANCH   1   5
BRANCH   2  19
HETATM   19  C   UNL     1      27.112  43.513  50.173  1.00  0.00     0.157 A 
HETATM   20  N   UNL     1      27.044  42.661  49.189  1.00  0.00    -0.166 NA
HETATM   21  N   UNL     1      27.533  41.406  49.401  1.00  0.00    -0.242 N 
HETATM   22  C   UNL     1      28.104  40.943  50.563  1.00  0.00     0.272 A 
HETATM   23  H   UNL     1      27.448  40.745  48.634  1.00  0.00     0.192 HD
HETATM   24  O   UNL     1      28.514  39.795  50.681  1.00  0.00    -0.266 OA
HETATM   25  C   UNL     1      28.210  41.915  51.666  1.00  0.00     0.046 A 
HETATM   26  C   UNL     1      27.718  43.205  51.484  1.00  0.00     0.016 A 
HETATM   27  C   UNL     1      28.813  41.548  52.875  1.00  0.00     0.018 A 
HETATM   28  C   UNL     1      27.841  44.142  52.518  1.00  0.00     0.015 A 
HETATM   29  C   UNL     1      28.440  43.775  53.726  1.00  0.00     0.001 A 
HETATM   30  C   UNL     1      28.925  42.481  53.905  1.00  0.00     0.001 A 
ENDBRANCH   2  19
TORSDOF 4
ENDMDL
MODEL 4
REMARK VINA RESULT:      -9.3      1.415      2.115
REMARK  4 active torsions:
REMARK  status: ('A' for Active; 'I' for Inactive)
REMARK    1  A    between atoms: C_2  and  C_3 
REMARK    2  A    between atoms: C_6  and  C_7 
REMARK    3  A    between atoms: N_8  and  N_9 
REMARK       I    between atoms: N_9  and  C_10 
REMARK    4  A    between atoms: C_10  and  C_11 
ROOT
HETATM    1  N   UNL     1      24.097  46.091  50.332  1.00  0.00    -0.242 N 
HETATM    2  C   UNL     1      23.548  45.819  49.092  1.00  0.00     0.292 C 
HETATM    3  O   UNL     1      23.851  44.948  48.291  1.00  0.00    -0.264 OA
HETATM    4  H   UNL     1      23.675  46.843  50.875  1.00  0.00     0.192 HD
ENDROOT
BRANCH   1   5
HETATM    5  N   UNL     1      25.265  45.605  50.861  1.00  0.00    -0.183 NA
HETATM    6  C   UNL     1      25.336  45.301  52.117  1.00  0.00     0.152 C 
BRANCH   6   7
HETATM    7  C   UNL     1      26.545  44.678  52.622  1.00  0.00     0.011 A 
HETATM    8  C   UNL     1      27.390  45.165  53.671  1.00  0.00     0.004 A 
HETATM    9  C   UNL     1      28.401  44.221  53.875  1.00  0.00     0.049 A 
HETATM   10  C   UNL     1      27.369  46.317  54.485  1.00  0.00     0.014 A 
HETATM   11  C   UNL     1      29.392  44.353  54.868  1.00  0.00    -0.031 A 
HETATM   12  N   UNL     1      28.197  43.220  52.950  1.00  0.00    -0.364 N 
HETATM   13  C   UNL     1      29.335  45.521  55.653  1.00  0.00     0.009 A 
HETATM   14  C   UNL     1      28.347  46.485  55.467  1.00  0.00     0.002 A 
HETATM   15  C   UNL     1      27.083  43.478  52.202  1.00  0.00     0.102 A 
HETATM   16  H   UNL     1      28.782  42.402  52.855  1.00  0.00     0.165 HD
BRANCH  11  17
HETATM   17  C   UNL     1      30.482  43.340  55.112  1.00  0.00     0.036 C 
HETATM   18  C   UNL     1      31.147  43.538  56.466  1.00  0.00     0.010 C 
ENDBRANCH  11  17
ENDBRANCH   6   7
ENDBRANCH   1   5
BRANCH   2  19
HETATM   19  C   UNL     1      22.461  46.816  48.724  1.00  0.00     0.157 A 
HETATM   20  N   UNL     1      21.245  46.351  48.658  1.00  0.00    -0.166 NA
HETATM   21  N   UNL     1      20.247  47.226  48.346  1.00  0.00    -0.242 N 
HETATM   22  C   UNL     1      20.395  48.570  48.096  1.00  0.00     0.272 A 
HETATM   23  H   UNL     1      19.308  46.844  48.271  1.00  0.00     0.192 HD
HETATM   24  O   UNL     1      19.448  49.294  47.812  1.00  0.00    -0.266 OA
HETATM   25  C   UNL     1      21.765  49.103  48.201  1.00  0.00     0.046 A 
HETATM   26  C   UNL     1      22.809  48.236  48.515  1.00  0.00     0.016 A 
HETATM   27  C   UNL     1      22.009  50.467  48.002  1.00  0.00     0.018 A 
HETATM   28  C   UNL     1      24.109  48.740  48.644  1.00  0.00     0.015 A 
HETATM   29  C   UNL     1      24.353  50.102  48.444  1.00  0.00     0.001 A 
HETATM   30  C   UNL     1      23.307  50.964  48.123  1.00  0.00     0.001 A 
ENDBRANCH   2  19
TORSDOF 4
ENDMDL
MODEL 5
REMARK VINA RESULT:      -9.1      2.294      9.526
REMARK  4 active torsions:
REMARK  status: ('A' for Active; 'I' for Inactive)
REMARK    1  A    between atoms: C_2  and  C_3 
REMARK    2  A    between atoms: C_6  and  C_7 
REMARK    3  A    between atoms: N_8  and  N_9 
REMARK       I    between atoms: N_9  and  C_10 
REMARK    4  A    between atoms: C_10  and  C_11 
ROOT
HETATM    1  N   UNL     1      25.787  45.380  51.072  1.00  0.00    -0.242 N 
HETATM    2  C   UNL     1      25.685  44.441  52.083  1.00  0.00     0.292 C 
HETATM    3  O   UNL     1      24.686  44.032  52.655  1.00  0.00    -0.264 OA
HETATM    4  H   UNL     1      26.716  45.558  50.693  1.00  0.00     0.192 HD
ENDROOT
BRANCH   1   5
HETATM    5  N   UNL     1      24.825  46.252  50.631  1.00  0.00    -0.183 NA
HETATM    6  C   UNL     1      24.367  46.163  49.424  1.00  0.00     0.152 C 
BRANCH   6   7
HETATM    7  C   UNL     1      23.267  47.020  49.026  1.00  0.00     0.011 A 
HETATM    8  C   UNL     1      23.324  48.427  48.764  1.00  0.00     0.004 A 
HETATM    9  C   UNL     1      22.053  48.833  48.346  1.00  0.00     0.049 A 
HETATM   10  C   UNL     1      24.355  49.388  48.819  1.00  0.00     0.014 A 
HETATM   11  C   UNL     1      21.753  50.155  47.959  1.00  0.00    -0.031 A 
HETATM   12  N   UNL     1      21.246  47.717  48.398  1.00  0.00    -0.364 N 
HETATM   13  C   UNL     1      22.811  51.081  48.036  1.00  0.00     0.009 A 
HETATM   14  C   UNL     1      24.085  50.710  48.458  1.00  0.00     0.002 A 
HETATM   15  C   UNL     1      21.965  46.624  48.793  1.00  0.00     0.102 A 
HETATM   16  H   UNL     1      20.265  47.710  48.158  1.00  0.00     0.165 HD
BRANCH  11  17
HETATM   17  C   UNL     1      20.393  50.610  47.494  1.00  0.00     0.036 C 
HETATM   18  C   UNL     1      19.801  51.665  48.415  1.00  0.00     0.010 C 
ENDBRANCH  11  17
ENDBRANCH   6   7
ENDBRANCH   1   5
BRANCH   2  19
HETATM   19  C   UNL     1      27.049  43.933  52.523  1.00  0.00     0.157 A 
HETATM   20  N   UNL     1      27.572  42.978  51.807  1.00  0.00    -0.166 NA
HETATM   21  N   UNL     1      28.801  42.514  52.169  1.00  0.00    -0.242 N 
HETATM   22  C   UNL     1      29.559  42.962  53.225  1.00  0.00     0.272 A 
HETATM   23  H   UNL     1      29.184  41.750  51.618  1.00  0.00     0.192 HD
HETATM   24  O   UNL     1      30.657  42.487  53.494  1.00  0.00    -0.266 OA
HETATM   25  C   UNL     1      28.983  44.063  54.016  1.00  0.00     0.046 A 
HETATM   26  C   UNL     1      27.727  44.560  53.676  1.00  0.00     0.016 A 
HETATM   27  C   UNL     1      29.698  44.613  55.087  1.00  0.00     0.018 A 
HETATM   28  C   UNL     1      27.185  45.625  54.406  1.00  0.00     0.015 A 
HETATM   29  C   UNL     1      27.898  46.172  55.476  1.00  0.00     0.001 A 
HETATM   30  C   UNL     1      29.151  45.668  55.818  1.00  0.00     0.001 A 
ENDBRANCH   2  19
TORSDOF 4
ENDMDL
MODEL 6
REMARK VINA RESULT:      -9.1      2.330      3.499
REMARK  4 active torsions:
REMARK  status: ('A' for Active; 'I' for Inactive)
REMARK    1  A    between atoms: C_2  and  C_3 
REMARK    2  A    between atoms: C_6  and  C_7 
REMARK    3  A    between atoms: N_8  and  N_9 
REMARK       I    between atoms: N_9  and  C_10 
REMARK    4  A    between atoms: C_10  and  C_11 
ROOT
HETATM    1  N   UNL     1      23.562  47.371  50.034  1.00  0.00    -0.242 N 
HETATM    2  C   UNL     1      23.709  48.537  49.304  1.00  0.00     0.292 C 
HETATM    3  O   UNL     1      24.690  48.952  48.707  1.00  0.00    -0.264 OA
HETATM    4  H   UNL     1      22.641  47.179  50.427  1.00  0.00     0.192 HD
ENDROOT
BRANCH   1   5
HETATM    5  N   UNL     1      24.544  46.517  50.465  1.00  0.00    -0.183 NA
HETATM    6  C   UNL     1      25.214  46.782  51.539  1.00  0.00     0.152 C 
BRANCH   6   7
HETATM    7  C   UNL     1      26.163  45.802  52.035  1.00  0.00     0.011 A 
HETATM    8  C   UNL     1      26.930  45.882  53.242  1.00  0.00     0.004 A 
HETATM    9  C   UNL     1      27.660  44.695  53.360  1.00  0.00     0.049 A 
HETATM   10  C   UNL     1      27.048  46.850  54.260  1.00  0.00     0.014 A 
HETATM   11  C   UNL     1      28.496  44.408  54.458  1.00  0.00    -0.031 A 
HETATM   12  N   UNL     1      27.375  43.944  52.240  1.00  0.00    -0.364 N 
HETATM   13  C   UNL     1      28.587  45.406  55.447  1.00  0.00     0.009 A 
HETATM   14  C   UNL     1      27.882  46.603  55.353  1.00  0.00     0.002 A 
HETATM   15  C   UNL     1      26.472  44.592  51.445  1.00  0.00     0.102 A 
HETATM   16  H   UNL     1      27.768  43.033  52.047  1.00  0.00     0.165 HD
BRANCH  11  17
HETATM   17  C   UNL     1      29.280  43.129  54.611  1.00  0.00     0.036 C 
HETATM   18  C   UNL     1      30.644  43.371  55.238  1.00  0.00     0.010 C 
ENDBRANCH  11  17
ENDBRANCH   6   7
ENDBRANCH   1   5
BRANCH   2  19
HETATM   19  C   UNL     1      22.450  49.389  49.340  1.00  0.00     0.157 A 
HETATM   20  N   UNL     1      22.476  50.432  50.121  1.00  0.00    -0.166 NA
HETATM   21  N   UNL     1      21.367  51.223  50.160  1.00  0.00    -0.242 N 
HETATM   22  C   UNL     1      20.208  51.032  49.444  1.00  0.00     0.272 A 
HETATM   23  H   UNL     1      21.392  52.017  50.794  1.00  0.00     0.192 HD
HETATM   24  O   UNL     1      19.246  51.785  49.540  1.00  0.00    -0.266 OA
HETATM   25  C   UNL     1      20.189  49.871  48.537  1.00  0.00     0.046 A 
HETATM   26  C   UNL     1      21.305  49.040  48.474  1.00  0.00     0.016 A 
HETATM   27  C   UNL     1      19.068  49.618  47.738  1.00  0.00     0.018 A 
HETATM   28  C   UNL     1      21.305  47.951  47.594  1.00  0.00     0.015 A 
HETATM   29  C   UNL     1      20.185  47.696  46.798  1.00  0.00     0.001 A 
HETATM   30  C   UNL     1      19.068  48.527  46.869  1.00  0.00     0.001 A 
ENDBRANCH   2  19
TORSDOF 4
ENDMDL
MODEL 7
REMARK VINA RESULT:      -9.1      2.174      9.835
REMARK  4 active torsions:
REMARK  status: ('A' for Active; 'I' for Inactive)
REMARK    1  A    between atoms: C_2  and  C_3 
REMARK    2  A    between atoms: C_6  and  C_7 
REMARK    3  A    between atoms: N_8  and  N_9 
REMARK       I    between atoms: N_9  and  C_10 
REMARK    4  A    between atoms: C_10  and  C_11 
ROOT
HETATM    1  N   UNL     1      25.728  46.548  52.060  1.00  0.00    -0.242 N 
HETATM    2  C   UNL     1      25.726  45.474  52.932  1.00  0.00     0.292 C 
HETATM    3  O   UNL     1      24.879  44.607  53.082  1.00  0.00    -0.264 OA
HETATM    4  H   UNL     1      26.555  47.144  52.056  1.00  0.00     0.192 HD
ENDROOT
BRANCH   1   5
HETATM    5  N   UNL     1      24.680  47.038  51.324  1.00  0.00    -0.183 NA
HETATM    6  C   UNL     1      24.638  46.851  50.044  1.00  0.00     0.152 C 
BRANCH   6   7
HETATM    7  C   UNL     1      23.460  47.275  49.311  1.00  0.00     0.011 A 
HETATM    8  C   UNL     1      23.042  48.622  49.059  1.00  0.00     0.004 A 
HETATM    9  C   UNL     1      21.895  48.568  48.261  1.00  0.00     0.049 A 
HETATM   10  C   UNL     1      23.555  49.885  49.418  1.00  0.00     0.014 A 
HETATM   11  C   UNL     1      21.234  49.716  47.781  1.00  0.00    -0.031 A 
HETATM   12  N   UNL     1      21.607  47.233  48.076  1.00  0.00    -0.364 N 
HETATM   13  C   UNL     1      21.778  50.956  48.170  1.00  0.00     0.009 A 
HETATM   14  C   UNL     1      22.913  51.042  48.973  1.00  0.00     0.002 A 
HETATM   15  C   UNL     1      22.543  46.450  48.690  1.00  0.00     0.102 A 
HETATM   16  H   UNL     1      20.822  46.887  47.542  1.00  0.00     0.165 HD
BRANCH  11  17
HETATM   17  C   UNL     1      20.005  49.680  46.909  1.00  0.00     0.036 C 
HETATM   18  C   UNL     1      19.115  50.893  47.131  1.00  0.00     0.010 C 
ENDBRANCH  11  17
ENDBRANCH   6   7
ENDBRANCH   1   5
BRANCH   2  19
HETATM   19  C   UNL     1      26.955  45.471  53.827  1.00  0.00     0.157 A 
HETATM   20  N   UNL     1      26.972  46.343  54.796  1.00  0.00    -0.166 NA
HETATM   21  N   UNL     1      28.055  46.351  55.624  1.00  0.00    -0.242 N 
HETATM   22  C   UNL     1      29.144  45.516  55.543  1.00  0.00     0.272 A 
HETATM   23  H   UNL     1      28.066  47.055  56.357  1.00  0.00     0.192 HD
HETATM   24  O   UNL     1      30.087  45.590  56.323  1.00  0.00    -0.266 OA
HETATM   25  C   UNL     1      29.112  44.508  54.468  1.00  0.00     0.046 A 
HETATM   26  C   UNL     1      28.022  44.474  53.602  1.00  0.00     0.016 A 
HETATM   27  C   UNL     1      30.159  43.589  54.332  1.00  0.00     0.018 A 
HETATM   28  C   UNL     1      27.972  43.502  52.596  1.00  0.00     0.015 A 
HETATM   29  C   UNL     1      29.017  42.584  52.458  1.00  0.00     0.001 A 
HETATM   30  C   UNL     1      30.109  42.627  53.322  1.00  0.00     0.001 A 
ENDBRANCH   2  19
TORSDOF 4
ENDMDL
MODEL 8
REMARK VINA RESULT:      -8.9      2.302      9.578
REMARK  4 active torsions:
REMARK  status: ('A' for Active; 'I' for Inactive)
REMARK    1  A    between atoms: C_2  and  C_3 
REMARK    2  A    between atoms: C_6  and  C_7 
REMARK    3  A    between atoms: N_8  and  N_9 
REMARK       I    between atoms: N_9  and  C_10 
REMARK    4  A    between atoms: C_10  and  C_11 
ROOT
HETATM    1  N   UNL     1      26.156  46.927  52.423  1.00  0.00    -0.242 N 
HETATM    2  C   UNL     1      26.102  45.812  53.239  1.00  0.00     0.292 C 
HETATM    3  O   UNL     1      25.288  44.900  53.243  1.00  0.00    -0.264 OA
HETATM    4  H   UNL     1      26.945  47.560  52.549  1.00  0.00     0.192 HD
ENDROOT
BRANCH   1   5
HETATM    5  N   UNL     1      25.183  47.405  51.584  1.00  0.00    -0.183 NA
HETATM    6  C   UNL     1      25.199  47.100  50.326  1.00  0.00     0.152 C 
BRANCH   6   7
HETATM    7  C   UNL     1      24.092  47.521  49.488  1.00  0.00     0.011 A 
HETATM    8  C   UNL     1      23.074  46.686  48.924  1.00  0.00     0.004 A 
HETATM    9  C   UNL     1      22.174  47.513  48.245  1.00  0.00     0.049 A 
HETATM   10  C   UNL     1      22.823  45.298  48.955  1.00  0.00     0.014 A 
HETATM   11  C   UNL     1      21.016  47.031  47.603  1.00  0.00    -0.031 A 
HETATM   12  N   UNL     1      22.658  48.798  48.358  1.00  0.00    -0.364 N 
HETATM   13  C   UNL     1      20.809  45.639  47.654  1.00  0.00     0.009 A 
HETATM   14  C   UNL     1      21.693  44.787  48.313  1.00  0.00     0.002 A 
HETATM   15  C   UNL     1      23.799  48.817  49.109  1.00  0.00     0.102 A 
HETATM   16  H   UNL     1      22.215  49.613  47.956  1.00  0.00     0.165 HD
BRANCH  11  17
HETATM   17  C   UNL     1      20.027  47.907  46.876  1.00  0.00     0.036 C 
HETATM   18  C   UNL     1      19.025  48.542  47.829  1.00  0.00     0.010 C 
ENDBRANCH  11  17
ENDBRANCH   6   7
ENDBRANCH   1   5
BRANCH   2  19
HETATM   19  C   UNL     1      27.210  45.818  54.281  1.00  0.00     0.157 A 
HETATM   20  N   UNL     1      27.107  46.702  55.233  1.00  0.00    -0.166 NA
HETATM   21  N   UNL     1      28.078  46.720  56.189  1.00  0.00    -0.242 N 
HETATM   22  C   UNL     1      29.168  45.884  56.255  1.00  0.00     0.272 A 
HETATM   23  H   UNL     1      27.999  47.433  56.910  1.00  0.00     0.192 HD
HETATM   24  O   UNL     1      30.006  45.967  57.145  1.00  0.00    -0.266 OA
HETATM   25  C   UNL     1      29.268  44.863  55.197  1.00  0.00     0.046 A 
HETATM   26  C   UNL     1      28.295  44.819  54.202  1.00  0.00     0.016 A 
HETATM   27  C   UNL     1      30.322  43.942  55.203  1.00  0.00     0.018 A 
HETATM   28  C   UNL     1      28.368  43.834  53.209  1.00  0.00     0.015 A 
HETATM   29  C   UNL     1      29.421  42.915  53.213  1.00  0.00     0.001 A 
HETATM   30  C   UNL     1      30.396  42.968  54.207  1.00  0.00     0.001 A 
ENDBRANCH   2  19
TORSDOF 4
ENDMDL
MODEL 9
REMARK VINA RESULT:      -8.6      2.372      9.596
REMARK  4 active torsions:
REMARK  status: ('A' for Active; 'I' for Inactive)
REMARK    1  A    between atoms: C_2  and  C_3 
REMARK    2  A    between atoms: C_6  and  C_7 
REMARK    3  A    between atoms: N_8  and  N_9 
REMARK       I    between atoms: N_9  and  C_10 
REMARK    4  A    between atoms: C_10  and  C_11 
ROOT
HETATM    1  N   UNL     1      26.144  46.594  51.613  1.00  0.00    -0.242 N 
HETATM    2  C   UNL     1      25.786  45.491  52.366  1.00  0.00     0.292 C 
HETATM    3  O   UNL     1      24.689  44.966  52.489  1.00  0.00    -0.264 OA
HETATM    4  H   UNL     1      27.129  46.856  51.607  1.00  0.00     0.192 HD
ENDROOT
BRANCH   1   5
HETATM    5  N   UNL     1      25.317  47.510  51.014  1.00  0.00    -0.183 NA
HETATM    6  C   UNL     1      25.267  47.598  49.724  1.00  0.00     0.152 C 
BRANCH   6   7
HETATM    7  C   UNL     1      24.297  48.491  49.119  1.00  0.00     0.011 A 
HETATM    8  C   UNL     1      22.946  48.177  48.758  1.00  0.00     0.004 A 
HETATM    9  C   UNL     1      22.354  49.346  48.271  1.00  0.00     0.049 A 
HETATM   10  C   UNL     1      22.166  47.004  48.828  1.00  0.00     0.014 A 
HETATM   11  C   UNL     1      21.007  49.417  47.862  1.00  0.00    -0.031 A 
HETATM   12  N   UNL     1      23.328  50.321  48.296  1.00  0.00    -0.364 N 
HETATM   13  C   UNL     1      20.268  48.221  47.944  1.00  0.00     0.009 A 
HETATM   14  C   UNL     1      20.833  47.038  48.414  1.00  0.00     0.002 A 
HETATM   15  C   UNL     1      24.492  49.824  48.812  1.00  0.00     0.102 A 
HETATM   16  H   UNL     1      23.190  51.275  47.992  1.00  0.00     0.165 HD
BRANCH  11  17
HETATM   17  C   UNL     1      20.347  50.671  47.347  1.00  0.00     0.036 C 
HETATM   18  C   UNL     1      19.970  51.619  48.475  1.00  0.00     0.010 C 
ENDBRANCH  11  17
ENDBRANCH   6   7
ENDBRANCH   1   5
BRANCH   2  19
HETATM   19  C   UNL     1      26.961  44.941  53.159  1.00  0.00     0.157 A 
HETATM   20  N   UNL     1      27.378  45.667  54.158  1.00  0.00    -0.166 NA
HETATM   21  N   UNL     1      28.420  45.191  54.897  1.00  0.00    -0.242 N 
HETATM   22  C   UNL     1      29.082  44.003  54.695  1.00  0.00     0.272 A 
HETATM   23  H   UNL     1      28.751  45.781  55.655  1.00  0.00     0.192 HD
HETATM   24  O   UNL     1      30.019  43.646  55.399  1.00  0.00    -0.266 OA
HETATM   25  C   UNL     1      28.591  43.167  53.585  1.00  0.00     0.046 A 
HETATM   26  C   UNL     1      27.530  43.624  52.808  1.00  0.00     0.016 A 
HETATM   27  C   UNL     1      29.177  41.922  53.327  1.00  0.00     0.018 A 
HETATM   28  C   UNL     1      27.040  42.823  51.769  1.00  0.00     0.015 A 
HETATM   29  C   UNL     1      27.625  41.580  51.510  1.00  0.00     0.001 A 
HETATM   30  C   UNL     1      28.692  41.130  52.286  1.00  0.00     0.001 A 
ENDBRANCH   2  19
TORSDOF 4
ENDMDL
MODEL 10
REMARK VINA RESULT:      -8.6      5.779      9.280
REMARK  4 active torsions:
REMARK  status: ('A' for Active; 'I' for Inactive)
REMARK    1  A    between atoms: C_2  and  C_3 
REMARK    2  A    between atoms: C_6  and  C_7 
REMARK    3  A    between atoms: N_8  and  N_9 
REMARK       I    between atoms: N_9  and  C_10 
REMARK    4  A    between atoms: C_10  and  C_11 
ROOT
HETATM    1  N   UNL     1      27.147  42.304  51.639  1.00  0.00    -0.242 N 
HETATM    2  C   UNL     1      27.323  43.653  51.389  1.00  0.00     0.292 C 
HETATM    3  O   UNL     1      27.377  44.236  50.317  1.00  0.00    -0.264 OA
HETATM    4  H   UNL     1      27.088  42.014  52.615  1.00  0.00     0.192 HD
ENDROOT
BRANCH   1   5
HETATM    5  N   UNL     1      27.229  41.264  50.749  1.00  0.00    -0.183 NA
HETATM    6  C   UNL     1      28.383  40.801  50.391  1.00  0.00     0.152 C 
BRANCH   6   7
HETATM    7  C   UNL     1      28.435  39.626  49.543  1.00  0.00     0.011 A 
HETATM    8  C   UNL     1      28.301  39.587  48.117  1.00  0.00     0.004 A 
HETATM    9  C   UNL     1      28.482  38.262  47.709  1.00  0.00     0.049 A 
HETATM   10  C   UNL     1      28.068  40.570  47.132  1.00  0.00     0.014 A 
HETATM   11  C   UNL     1      28.461  37.860  46.359  1.00  0.00    -0.031 A 
HETATM   12  N   UNL     1      28.674  37.520  48.855  1.00  0.00    -0.364 N 
HETATM   13  C   UNL     1      28.220  38.873  45.411  1.00  0.00     0.009 A 
HETATM   14  C   UNL     1      28.025  40.200  45.786  1.00  0.00     0.002 A 
HETATM   15  C   UNL     1      28.659  38.327  49.957  1.00  0.00     0.102 A 
HETATM   16  H   UNL     1      28.825  36.521  48.870  1.00  0.00     0.165 HD
BRANCH  11  17
HETATM   17  C   UNL     1      28.668  36.439  45.898  1.00  0.00     0.036 C 
HETATM   18  C   UNL     1      29.814  36.325  44.904  1.00  0.00     0.010 C 
ENDBRANCH  11  17
ENDBRANCH   6   7
ENDBRANCH   1   5
BRANCH   2  19
HETATM   19  C   UNL     1      27.521  44.445  52.672  1.00  0.00     0.157 A 
HETATM   20  N   UNL     1      26.624  45.352  52.939  1.00  0.00    -0.166 NA
HETATM   21  N   UNL     1      26.768  46.067  54.091  1.00  0.00    -0.242 N 
HETATM   22  C   UNL     1      27.774  45.920  55.017  1.00  0.00     0.272 A 
HETATM   23  H   UNL     1      26.076  46.789  54.272  1.00  0.00     0.192 HD
HETATM   24  O   UNL     1      27.841  46.609  56.028  1.00  0.00    -0.266 OA
HETATM   25  C   UNL     1      28.771  44.873  54.732  1.00  0.00     0.046 A 
HETATM   26  C   UNL     1      28.656  44.126  53.562  1.00  0.00     0.016 A 
HETATM   27  C   UNL     1      29.811  44.624  55.635  1.00  0.00     0.018 A 
HETATM   28  C   UNL     1      29.584  43.111  53.298  1.00  0.00     0.015 A 
HETATM   29  C   UNL     1      30.623  42.863  54.199  1.00  0.00     0.001 A 
HETATM   30  C   UNL     1      30.738  43.617  55.365  1.00  0.00     0.001 A 
ENDBRANCH   2  19
TORSDOF 4
ENDMDL
