MODEL 1
REMARK VINA RESULT:      -8.3      0.000      0.000
REMARK  2 active torsions:
REMARK  status: ('A' for Active; 'I' for Inactive)
REMARK    1  A    between atoms: C_11  and  N_12 
REMARK       I    between atoms: N_12  and  C_13 
REMARK    2  A    between atoms: C_13  and  C_14 
ROOT
HETATM    1  N   UNL     1      21.028  49.527  49.085  1.00  0.00    -0.351 N 
HETATM    2  C   UNL     1      21.994  48.575  48.792  1.00  0.00     0.273 C 
HETATM    3  O   UNL     1      21.775  47.370  48.812  1.00  0.00    -0.266 OA
HETATM    4  H   UNL     1      21.461  50.440  49.244  1.00  0.00     0.163 HD
ENDROOT
BRANCH   1   5
HETATM    5  C   UNL     1      19.748  49.195  49.674  1.00  0.00     0.089 C 
HETATM    6  C   UNL     1      18.786  48.452  48.738  1.00  0.00     0.063 C 
HETATM    7  C   UNL     1      18.187  49.303  47.613  1.00  0.00     0.121 C 
HETATM    8  N   UNL     1      17.622  50.583  48.194  1.00  0.00    -0.059 N 
HETATM    9  C   UNL     1      19.160  49.620  46.473  1.00  0.00     0.046 C 
HETATM   10  C   UNL     1      16.988  48.552  46.996  1.00  0.00     0.046 C 
HETATM   11  C   UNL     1      18.410  51.373  49.218  1.00  0.00     0.121 C 
HETATM   12  H   UNL     1      16.720  50.339  48.629  1.00  0.00     0.279 HD
HETATM   13  H   UNL     1      17.364  51.209  47.418  1.00  0.00     0.279 HD
HETATM   14  C   UNL     1      19.417  52.291  48.515  1.00  0.00     0.046 C 
HETATM   15  C   UNL     1      17.385  52.280  49.933  1.00  0.00     0.046 C 
HETATM   16  C   UNL     1      19.047  50.429  50.252  1.00  0.00     0.063 C 
ENDBRANCH   1   5
BRANCH   2  17
HETATM   17  C   UNL     1      23.291  49.173  48.446  1.00  0.00     0.157 A 
HETATM   18  N   UNL     1      23.367  50.176  47.542  1.00  0.00    -0.168 NA
HETATM   19  N   UNL     1      24.688  50.447  47.482  1.00  0.00    -0.277 N 
HETATM   20  H   UNL     1      25.007  51.180  46.858  1.00  0.00     0.189 HD
HETATM   21  C   UNL     1      25.461  49.670  48.299  1.00  0.00     0.063 A 
HETATM   22  C   UNL     1      24.575  48.826  48.956  1.00  0.00     0.028 A 
HETATM   23  C   UNL     1      26.843  49.643  48.514  1.00  0.00     0.032 A 
HETATM   24  C   UNL     1      25.081  47.899  49.888  1.00  0.00     0.016 A 
HETATM   25  C   UNL     1      26.461  47.857  50.121  1.00  0.00     0.001 A 
HETATM   26  C   UNL     1      27.325  48.714  49.442  1.00  0.00     0.002 A 
ENDBRANCH   2  17
TORSDOF 2
ENDMDL
MODEL 2
REMARK VINA RESULT:      -8.3      1.525      2.933
REMARK  2 active torsions:
REMARK  status: ('A' for Active; 'I' for Inactive)
REMARK    1  A    between atoms: C_11  and  N_12 
REMARK       I    between atoms: N_12  and  C_13 
REMARK    2  A    between atoms: C_13  and  C_14 
ROOT
HETATM    1  N   UNL     1      21.259  49.404  48.200  1.00  0.00    -0.351 N 
HETATM    2  C   UNL     1      22.578  49.675  47.864  1.00  0.00     0.273 C 
HETATM    3  O   UNL     1      22.897  50.498  47.014  1.00  0.00    -0.266 OA
HETATM    4  H   UNL     1      21.198  48.540  48.742  1.00  0.00     0.163 HD
ENDROOT
BRANCH   1   5
HETATM    5  C   UNL     1      20.134  49.880  47.421  1.00  0.00     0.089 C 
HETATM    6  C   UNL     1      19.603  51.257  47.840  1.00  0.00     0.063 C 
HETATM    7  C   UNL     1      18.850  51.284  49.175  1.00  0.00     0.121 C 
HETATM    8  N   UNL     1      17.806  50.186  49.188  1.00  0.00    -0.059 N 
HETATM    9  C   UNL     1      19.749  51.179  50.410  1.00  0.00     0.046 C 
HETATM   10  C   UNL     1      18.069  52.612  49.286  1.00  0.00     0.046 C 
HETATM   11  C   UNL     1      18.151  48.795  48.699  1.00  0.00     0.121 C 
HETATM   12  H   UNL     1      17.016  50.520  48.617  1.00  0.00     0.279 HD
HETATM   13  H   UNL     1      17.416  50.116  50.139  1.00  0.00     0.279 HD
HETATM   14  C   UNL     1      18.821  47.992  49.819  1.00  0.00     0.046 C 
HETATM   15  C   UNL     1      16.803  48.109  48.387  1.00  0.00     0.046 C 
HETATM   16  C   UNL     1      18.982  48.871  47.406  1.00  0.00     0.063 C 
ENDBRANCH   1   5
BRANCH   2  17
HETATM   17  C   UNL     1      23.535  48.881  48.645  1.00  0.00     0.157 A 
HETATM   18  N   UNL     1      23.114  47.832  49.389  1.00  0.00    -0.168 NA
HETATM   19  N   UNL     1      24.249  47.372  49.956  1.00  0.00    -0.277 N 
HETATM   20  H   UNL     1      24.194  46.570  50.574  1.00  0.00     0.189 HD
HETATM   21  C   UNL     1      25.374  48.070  49.615  1.00  0.00     0.063 A 
HETATM   22  C   UNL     1      24.944  49.065  48.746  1.00  0.00     0.028 A 
HETATM   23  C   UNL     1      26.712  47.909  49.989  1.00  0.00     0.032 A 
HETATM   24  C   UNL     1      25.893  49.955  48.207  1.00  0.00     0.016 A 
HETATM   25  C   UNL     1      27.238  49.810  48.566  1.00  0.00     0.001 A 
HETATM   26  C   UNL     1      27.638  48.805  49.444  1.00  0.00     0.002 A 
ENDBRANCH   2  17
TORSDOF 2
ENDMDL
MODEL 3
REMARK VINA RESULT:      -8.1      6.522      9.030
REMARK  2 active torsions:
REMARK  status: ('A' for Active; 'I' for Inactive)
REMARK    1  A    between atoms: C_11  and  N_12 
REMARK       I    between atoms: N_12  and  C_13 
REMARK    2  A    between atoms: C_13  and  C_14 
ROOT
HETATM    1  N   UNL     1      25.726  43.385  52.280  1.00  0.00    -0.351 N 
HETATM    2  C   UNL     1      26.102  43.698  53.579  1.00  0.00     0.273 C 
HETATM    3  O   UNL     1      25.363  44.272  54.370  1.00  0.00    -0.266 OA
HETATM    4  H   UNL     1      26.544  43.131  51.722  1.00  0.00     0.163 HD
ENDROOT
BRANCH   1   5
HETATM    5  C   UNL     1      24.530  43.914  51.657  1.00  0.00     0.089 C 
HETATM    6  C   UNL     1      24.010  43.092  50.471  1.00  0.00     0.063 C 
HETATM    7  C   UNL     1      24.860  43.177  49.199  1.00  0.00     0.121 C 
HETATM    8  N   UNL     1      25.136  44.631  48.873  1.00  0.00    -0.059 N 
HETATM    9  C   UNL     1      26.171  42.387  49.259  1.00  0.00     0.046 C 
HETATM   10  C   UNL     1      24.045  42.624  48.010  1.00  0.00     0.046 C 
HETATM   11  C   UNL     1      25.553  45.595  49.963  1.00  0.00     0.121 C 
HETATM   12  H   UNL     1      24.277  45.008  48.448  1.00  0.00     0.279 HD
HETATM   13  H   UNL     1      25.830  44.670  48.112  1.00  0.00     0.279 HD
HETATM   14  C   UNL     1      27.064  45.498  50.204  1.00  0.00     0.046 C 
HETATM   15  C   UNL     1      25.267  47.008  49.411  1.00  0.00     0.046 C 
HETATM   16  C   UNL     1      24.706  45.374  51.229  1.00  0.00     0.063 C 
ENDBRANCH   1   5
BRANCH   2  17
HETATM   17  C   UNL     1      27.467  43.255  53.896  1.00  0.00     0.157 A 
HETATM   18  N   UNL     1      27.919  42.056  53.462  1.00  0.00    -0.168 NA
HETATM   19  N   UNL     1      29.176  41.999  53.949  1.00  0.00    -0.277 N 
HETATM   20  H   UNL     1      29.737  41.176  53.754  1.00  0.00     0.189 HD
HETATM   21  C   UNL     1      29.554  43.097  54.670  1.00  0.00     0.063 A 
HETATM   22  C   UNL     1      28.456  43.949  54.649  1.00  0.00     0.028 A 
HETATM   23  C   UNL     1      30.749  43.408  55.324  1.00  0.00     0.032 A 
HETATM   24  C   UNL     1      28.544  45.189  55.310  1.00  0.00     0.016 A 
HETATM   25  C   UNL     1      29.734  45.523  55.970  1.00  0.00     0.001 A 
HETATM   26  C   UNL     1      30.815  44.644  55.977  1.00  0.00     0.002 A 
ENDBRANCH   2  17
TORSDOF 2
ENDMDL
MODEL 4
REMARK VINA RESULT:      -8.1     10.233     13.048
REMARK  2 active torsions:
REMARK  status: ('A' for Active; 'I' for Inactive)
REMARK    1  A    between atoms: C_11  and  N_12 
REMARK       I    between atoms: N_12  and  C_13 
REMARK    2  A    between atoms: C_13  and  C_14 
ROOT
HETATM    1  N   UNL     1      29.685  51.761  41.088  1.00  0.00    -0.351 N 
HETATM    2  C   UNL     1      28.304  51.845  41.186  1.00  0.00     0.273 C 
HETATM    3  O   UNL     1      27.709  52.896  41.390  1.00  0.00    -0.266 OA
HETATM    4  H   UNL     1      29.991  50.788  41.154  1.00  0.00     0.163 HD
ENDROOT
BRANCH   1   5
HETATM    5  C   UNL     1      30.568  52.849  41.455  1.00  0.00     0.089 C 
HETATM    6  C   UNL     1      31.660  53.164  40.424  1.00  0.00     0.063 C 
HETATM    7  C   UNL     1      32.780  52.123  40.326  1.00  0.00     0.121 C 
HETATM    8  N   UNL     1      33.307  51.816  41.713  1.00  0.00    -0.059 N 
HETATM    9  C   UNL     1      32.381  50.829  39.609  1.00  0.00     0.046 C 
HETATM   10  C   UNL     1      33.966  52.731  39.547  1.00  0.00     0.046 C 
HETATM   11  C   UNL     1      32.350  51.589  42.864  1.00  0.00     0.121 C 
HETATM   12  H   UNL     1      33.920  52.601  41.978  1.00  0.00     0.279 HD
HETATM   13  H   UNL     1      33.947  51.010  41.649  1.00  0.00     0.279 HD
HETATM   14  C   UNL     1      31.864  50.135  42.868  1.00  0.00     0.046 C 
HETATM   15  C   UNL     1      33.177  51.800  44.150  1.00  0.00     0.046 C 
HETATM   16  C   UNL     1      31.212  52.624  42.828  1.00  0.00     0.063 C 
ENDBRANCH   1   5
BRANCH   2  17
HETATM   17  C   UNL     1      27.644  50.545  41.004  1.00  0.00     0.157 A 
HETATM   18  N   UNL     1      27.520  49.685  42.041  1.00  0.00    -0.168 NA
HETATM   19  N   UNL     1      26.889  48.623  41.497  1.00  0.00    -0.277 N 
HETATM   20  H   UNL     1      26.677  47.827  42.088  1.00  0.00     0.189 HD
HETATM   21  C   UNL     1      26.602  48.758  40.168  1.00  0.00     0.063 A 
HETATM   22  C   UNL     1      27.077  50.014  39.811  1.00  0.00     0.028 A 
HETATM   23  C   UNL     1      25.971  47.895  39.265  1.00  0.00     0.032 A 
HETATM   24  C   UNL     1      26.915  50.450  38.481  1.00  0.00     0.016 A 
HETATM   25  C   UNL     1      26.284  49.604  37.562  1.00  0.00     0.001 A 
HETATM   26  C   UNL     1      25.823  48.347  37.950  1.00  0.00     0.002 A 
ENDBRANCH   2  17
TORSDOF 2
ENDMDL
MODEL 5
REMARK VINA RESULT:      -7.8     22.379     23.953
REMARK  2 active torsions:
REMARK  status: ('A' for Active; 'I' for Inactive)
REMARK    1  A    between atoms: C_11  and  N_12 
REMARK       I    between atoms: N_12  and  C_13 
REMARK    2  A    between atoms: C_13  and  C_14 
ROOT
HETATM    1  N   UNL     1      37.658  46.274  64.078  1.00  0.00    -0.351 N 
HETATM    2  C   UNL     1      37.056  45.052  63.813  1.00  0.00     0.273 C 
HETATM    3  O   UNL     1      35.851  44.862  63.919  1.00  0.00    -0.266 OA
HETATM    4  H   UNL     1      38.671  46.165  64.161  1.00  0.00     0.163 HD
ENDROOT
BRANCH   1   5
HETATM    5  C   UNL     1      36.968  47.367  64.732  1.00  0.00     0.089 C 
HETATM    6  C   UNL     1      37.684  48.721  64.642  1.00  0.00     0.063 C 
HETATM    7  C   UNL     1      38.950  48.845  65.497  1.00  0.00     0.121 C 
HETATM    8  N   UNL     1      38.649  48.395  66.912  1.00  0.00    -0.059 N 
HETATM    9  C   UNL     1      40.162  48.090  64.945  1.00  0.00     0.046 C 
HETATM   10  C   UNL     1      39.344  50.334  65.601  1.00  0.00     0.046 C 
HETATM   11  C   UNL     1      37.853  47.131  67.162  1.00  0.00     0.121 C 
HETATM   12  H   UNL     1      38.141  49.167  67.368  1.00  0.00     0.279 HD
HETATM   13  H   UNL     1      39.536  48.336  67.433  1.00  0.00     0.279 HD
HETATM   14  C   UNL     1      38.775  45.907  67.108  1.00  0.00     0.046 C 
HETATM   15  C   UNL     1      37.324  47.242  68.608  1.00  0.00     0.046 C 
HETATM   16  C   UNL     1      36.656  47.050  66.198  1.00  0.00     0.063 C 
ENDBRANCH   1   5
BRANCH   2  17
HETATM   17  C   UNL     1      38.019  44.029  63.384  1.00  0.00     0.157 A 
HETATM   18  N   UNL     1      38.953  44.312  62.447  1.00  0.00    -0.168 NA
HETATM   19  N   UNL     1      39.626  43.151  62.311  1.00  0.00    -0.277 N 
HETATM   20  H   UNL     1      40.394  43.107  61.649  1.00  0.00     0.189 HD
HETATM   21  C   UNL     1      39.173  42.139  63.110  1.00  0.00     0.063 A 
HETATM   22  C   UNL     1      38.121  42.683  63.837  1.00  0.00     0.028 A 
HETATM   23  C   UNL     1      39.596  40.814  63.255  1.00  0.00     0.032 A 
HETATM   24  C   UNL     1      37.447  41.871  64.770  1.00  0.00     0.016 A 
HETATM   25  C   UNL     1      37.856  40.543  64.934  1.00  0.00     0.001 A 
HETATM   26  C   UNL     1      38.912  40.024  64.186  1.00  0.00     0.002 A 
ENDBRANCH   2  17
TORSDOF 2
ENDMDL
MODEL 6
REMARK VINA RESULT:      -7.7     10.227     12.853
REMARK  2 active torsions:
REMARK  status: ('A' for Active; 'I' for Inactive)
REMARK    1  A    between atoms: C_11  and  N_12 
REMARK       I    between atoms: N_12  and  C_13 
REMARK    2  A    between atoms: C_13  and  C_14 
ROOT
HETATM    1  N   UNL     1      30.513  49.657  40.219  1.00  0.00    -0.351 N 
HETATM    2  C   UNL     1      29.429  49.397  39.392  1.00  0.00     0.273 C 
HETATM    3  O   UNL     1      29.401  49.708  38.207  1.00  0.00    -0.266 OA
HETATM    4  H   UNL     1      30.251  49.540  41.200  1.00  0.00     0.163 HD
ENDROOT
BRANCH   1   5
HETATM    5  C   UNL     1      31.606  50.526  39.836  1.00  0.00     0.089 C 
HETATM    6  C   UNL     1      32.843  50.435  40.739  1.00  0.00     0.063 C 
HETATM    7  C   UNL     1      32.677  51.053  42.132  1.00  0.00     0.121 C 
HETATM    8  N   UNL     1      32.106  52.451  41.999  1.00  0.00    -0.059 N 
HETATM    9  C   UNL     1      31.827  50.220  43.096  1.00  0.00     0.046 C 
HETATM   10  C   UNL     1      34.069  51.223  42.777  1.00  0.00     0.046 C 
HETATM   11  C   UNL     1      30.950  52.720  41.060  1.00  0.00     0.121 C 
HETATM   12  H   UNL     1      32.883  53.062  41.708  1.00  0.00     0.279 HD
HETATM   13  H   UNL     1      31.857  52.793  42.939  1.00  0.00     0.279 HD
HETATM   14  C   UNL     1      29.621  52.384  41.746  1.00  0.00     0.046 C 
HETATM   15  C   UNL     1      30.960  54.243  40.802  1.00  0.00     0.046 C 
HETATM   16  C   UNL     1      31.162  51.988  39.723  1.00  0.00     0.063 C 
ENDBRANCH   1   5
BRANCH   2  17
HETATM   17  C   UNL     1      28.338  48.704  40.090  1.00  0.00     0.157 A 
HETATM   18  N   UNL     1      27.395  49.404  40.761  1.00  0.00    -0.168 NA
HETATM   19  N   UNL     1      26.591  48.445  41.267  1.00  0.00    -0.277 N 
HETATM   20  H   UNL     1      25.791  48.725  41.824  1.00  0.00     0.189 HD
HETATM   21  C   UNL     1      26.969  47.169  40.956  1.00  0.00     0.063 A 
HETATM   22  C   UNL     1      28.111  47.301  40.175  1.00  0.00     0.028 A 
HETATM   23  C   UNL     1      26.409  45.931  41.288  1.00  0.00     0.032 A 
HETATM   24  C   UNL     1      28.737  46.138  39.685  1.00  0.00     0.016 A 
HETATM   25  C   UNL     1      28.192  44.889  40.003  1.00  0.00     0.001 A 
HETATM   26  C   UNL     1      27.048  44.790  40.793  1.00  0.00     0.002 A 
ENDBRANCH   2  17
TORSDOF 2
ENDMDL
MODEL 7
REMARK VINA RESULT:      -7.7     11.034     13.058
REMARK  2 active torsions:
REMARK  status: ('A' for Active; 'I' for Inactive)
REMARK    1  A    between atoms: C_11  and  N_12 
REMARK       I    between atoms: N_12  and  C_13 
REMARK    2  A    between atoms: C_13  and  C_14 
ROOT
HETATM    1  N   UNL     1      29.621  51.345  40.928  1.00  0.00    -0.351 N 
HETATM    2  C   UNL     1      28.629  51.344  39.958  1.00  0.00     0.273 C 
HETATM    3  O   UNL     1      28.408  52.299  39.224  1.00  0.00    -0.266 OA
HETATM    4  H   UNL     1      29.490  50.567  41.577  1.00  0.00     0.163 HD
ENDROOT
BRANCH   1   5
HETATM    5  C   UNL     1      30.326  52.544  41.332  1.00  0.00     0.089 C 
HETATM    6  C   UNL     1      31.403  53.017  40.346  1.00  0.00     0.063 C 
HETATM    7  C   UNL     1      32.662  52.145  40.292  1.00  0.00     0.121 C 
HETATM    8  N   UNL     1      33.171  51.907  41.700  1.00  0.00    -0.059 N 
HETATM    9  C   UNL     1      32.479  50.813  39.559  1.00  0.00     0.046 C 
HETATM   10  C   UNL     1      33.781  52.921  39.563  1.00  0.00     0.046 C 
HETATM   11  C   UNL     1      32.210  51.540  42.810  1.00  0.00     0.121 C 
HETATM   12  H   UNL     1      33.655  52.769  41.990  1.00  0.00     0.279 HD
HETATM   13  H   UNL     1      33.920  51.200  41.661  1.00  0.00     0.279 HD
HETATM   14  C   UNL     1      31.935  50.031  42.794  1.00  0.00     0.046 C 
HETATM   15  C   UNL     1      32.946  51.857  44.130  1.00  0.00     0.046 C 
HETATM   16  C   UNL     1      30.939  52.404  42.729  1.00  0.00     0.063 C 
ENDBRANCH   1   5
BRANCH   2  17
HETATM   17  C   UNL     1      27.891  50.075  39.905  1.00  0.00     0.157 A 
HETATM   18  N   UNL     1      26.538  50.065  39.886  1.00  0.00    -0.168 NA
HETATM   19  N   UNL     1      26.233  48.751  39.851  1.00  0.00    -0.277 N 
HETATM   20  H   UNL     1      25.256  48.478  39.831  1.00  0.00     0.189 HD
HETATM   21  C   UNL     1      27.317  47.919  39.846  1.00  0.00     0.063 A 
HETATM   22  C   UNL     1      28.427  48.756  39.873  1.00  0.00     0.028 A 
HETATM   23  C   UNL     1      27.414  46.524  39.818  1.00  0.00     0.032 A 
HETATM   24  C   UNL     1      29.713  48.181  39.866  1.00  0.00     0.016 A 
HETATM   25  C   UNL     1      29.832  46.787  39.834  1.00  0.00     0.001 A 
HETATM   26  C   UNL     1      28.700  45.974  39.813  1.00  0.00     0.002 A 
ENDBRANCH   2  17
TORSDOF 2
ENDMDL
MODEL 8
REMARK VINA RESULT:      -7.6     11.620     13.409
REMARK  2 active torsions:
REMARK  status: ('A' for Active; 'I' for Inactive)
REMARK    1  A    between atoms: C_11  and  N_12 
REMARK       I    between atoms: N_12  and  C_13 
REMARK    2  A    between atoms: C_13  and  C_14 
ROOT
HETATM    1  N   UNL     1      31.521  51.407  41.850  1.00  0.00    -0.351 N 
HETATM    2  C   UNL     1      32.193  50.776  42.887  1.00  0.00     0.273 C 
HETATM    3  O   UNL     1      31.686  49.905  43.582  1.00  0.00    -0.266 OA
HETATM    4  H   UNL     1      32.022  52.248  41.556  1.00  0.00     0.163 HD
ENDROOT
BRANCH   1   5
HETATM    5  C   UNL     1      30.093  51.277  41.643  1.00  0.00     0.089 C 
HETATM    6  C   UNL     1      29.606  49.838  41.427  1.00  0.00     0.063 C 
HETATM    7  C   UNL     1      29.983  49.220  40.077  1.00  0.00     0.121 C 
HETATM    8  N   UNL     1      29.609  50.175  38.962  1.00  0.00    -0.059 N 
HETATM    9  C   UNL     1      31.455  48.812  39.957  1.00  0.00     0.046 C 
HETATM   10  C   UNL     1      29.135  47.950  39.849  1.00  0.00     0.046 C 
HETATM   11  C   UNL     1      29.926  51.651  39.078  1.00  0.00     0.121 C 
HETATM   12  H   UNL     1      28.590  50.094  38.831  1.00  0.00     0.279 HD
HETATM   13  H   UNL     1      30.004  49.819  38.079  1.00  0.00     0.279 HD
HETATM   14  C   UNL     1      31.372  51.916  38.643  1.00  0.00     0.046 C 
HETATM   15  C   UNL     1      29.005  52.364  38.065  1.00  0.00     0.046 C 
HETATM   16  C   UNL     1      29.600  52.161  40.493  1.00  0.00     0.063 C 
ENDBRANCH   1   5
BRANCH   2  17
HETATM   17  C   UNL     1      33.572  51.259  43.043  1.00  0.00     0.157 A 
HETATM   18  N   UNL     1      33.920  52.015  44.110  1.00  0.00    -0.168 NA
HETATM   19  N   UNL     1      35.229  52.269  43.903  1.00  0.00    -0.277 N 
HETATM   20  H   UNL     1      35.729  52.832  44.583  1.00  0.00     0.189 HD
HETATM   21  C   UNL     1      35.738  51.717  42.761  1.00  0.00     0.063 A 
HETATM   22  C   UNL     1      34.677  51.037  42.174  1.00  0.00     0.028 A 
HETATM   23  C   UNL     1      37.021  51.755  42.207  1.00  0.00     0.032 A 
HETATM   24  C   UNL     1      34.897  50.347  40.966  1.00  0.00     0.016 A 
HETATM   25  C   UNL     1      36.175  50.369  40.395  1.00  0.00     0.001 A 
HETATM   26  C   UNL     1      37.217  51.064  41.007  1.00  0.00     0.002 A 
ENDBRANCH   2  17
TORSDOF 2
ENDMDL
MODEL 9
REMARK VINA RESULT:      -7.5     11.701     13.327
REMARK  2 active torsions:
REMARK  status: ('A' for Active; 'I' for Inactive)
REMARK    1  A    between atoms: C_11  and  N_12 
REMARK       I    between atoms: N_12  and  C_13 
REMARK    2  A    between atoms: C_13  and  C_14 
ROOT
HETATM    1  N   UNL     1      31.951  50.282  39.743  1.00  0.00    -0.351 N 
HETATM    2  C   UNL     1      32.973  51.174  39.453  1.00  0.00     0.273 C 
HETATM    3  O   UNL     1      33.142  51.661  38.342  1.00  0.00    -0.266 OA
HETATM    4  H   UNL     1      32.122  49.820  40.639  1.00  0.00     0.163 HD
ENDROOT
BRANCH   1   5
HETATM    5  C   UNL     1      31.138  49.655  38.722  1.00  0.00     0.089 C 
HETATM    6  C   UNL     1      29.916  50.473  38.284  1.00  0.00     0.063 C 
HETATM    7  C   UNL     1      28.783  50.550  39.313  1.00  0.00     0.121 C 
HETATM    8  N   UNL     1      28.452  49.155  39.804  1.00  0.00    -0.059 N 
HETATM    9  C   UNL     1      29.066  51.478  40.497  1.00  0.00     0.046 C 
HETATM   10  C   UNL     1      27.506  51.068  38.618  1.00  0.00     0.046 C 
HETATM   11  C   UNL     1      29.559  48.189  40.171  1.00  0.00     0.121 C 
HETATM   12  H   UNL     1      27.891  48.705  39.066  1.00  0.00     0.279 HD
HETATM   13  H   UNL     1      27.803  49.234  40.600  1.00  0.00     0.279 HD
HETATM   14  C   UNL     1      30.027  48.444  41.609  1.00  0.00     0.046 C 
HETATM   15  C   UNL     1      28.923  46.783  40.139  1.00  0.00     0.046 C 
HETATM   16  C   UNL     1      30.691  48.248  39.131  1.00  0.00     0.063 C 
ENDBRANCH   1   5
BRANCH   2  17
HETATM   17  C   UNL     1      33.812  51.473  40.622  1.00  0.00     0.157 A 
HETATM   18  N   UNL     1      35.146  51.654  40.483  1.00  0.00    -0.168 NA
HETATM   19  N   UNL     1      35.564  51.891  41.745  1.00  0.00    -0.277 N 
HETATM   20  H   UNL     1      36.550  52.061  41.907  1.00  0.00     0.189 HD
HETATM   21  C   UNL     1      34.570  51.871  42.682  1.00  0.00     0.063 A 
HETATM   22  C   UNL     1      33.401  51.607  41.978  1.00  0.00     0.028 A 
HETATM   23  C   UNL     1      34.600  52.064  44.067  1.00  0.00     0.032 A 
HETATM   24  C   UNL     1      32.184  51.534  42.683  1.00  0.00     0.016 A 
HETATM   25  C   UNL     1      32.190  51.727  44.070  1.00  0.00     0.001 A 
HETATM   26  C   UNL     1      33.380  51.984  44.748  1.00  0.00     0.002 A 
ENDBRANCH   2  17
TORSDOF 2
ENDMDL
MODEL 10
REMARK VINA RESULT:      -7.4     10.356     13.343
REMARK  2 active torsions:
REMARK  status: ('A' for Active; 'I' for Inactive)
REMARK    1  A    between atoms: C_11  and  N_12 
REMARK       I    between atoms: N_12  and  C_13 
REMARK    2  A    between atoms: C_13  and  C_14 
ROOT
HETATM    1  N   UNL     1      29.473  51.030  40.339  1.00  0.00    -0.351 N 
HETATM    2  C   UNL     1      28.196  50.712  40.776  1.00  0.00     0.273 C 
HETATM    3  O   UNL     1      27.872  50.716  41.958  1.00  0.00    -0.266 OA
HETATM    4  H   UNL     1      29.601  50.743  39.366  1.00  0.00     0.163 HD
ENDROOT
BRANCH   1   5
HETATM    5  C   UNL     1      30.604  51.159  41.235  1.00  0.00     0.089 C 
HETATM    6  C   UNL     1      31.770  51.987  40.679  1.00  0.00     0.063 C 
HETATM    7  C   UNL     1      32.574  51.310  39.563  1.00  0.00     0.121 C 
HETATM    8  N   UNL     1      32.957  49.909  39.996  1.00  0.00    -0.059 N 
HETATM    9  C   UNL     1      31.864  51.273  38.206  1.00  0.00     0.046 C 
HETATM   10  C   UNL     1      33.902  52.071  39.366  1.00  0.00     0.046 C 
HETATM   11  C   UNL     1      31.940  49.007  40.662  1.00  0.00     0.121 C 
HETATM   12  H   UNL     1      33.749  50.006  40.648  1.00  0.00     0.279 HD
HETATM   13  H   UNL     1      33.359  49.415  39.186  1.00  0.00     0.279 HD
HETATM   14  C   UNL     1      31.083  48.304  39.603  1.00  0.00     0.046 C 
HETATM   15  C   UNL     1      32.754  47.916  41.390  1.00  0.00     0.046 C 
HETATM   16  C   UNL     1      31.122  49.794  41.701  1.00  0.00     0.063 C 
ENDBRANCH   1   5
BRANCH   2  17
HETATM   17  C   UNL     1      27.284  50.388  39.671  1.00  0.00     0.157 A 
HETATM   18  N   UNL     1      27.252  51.154  38.557  1.00  0.00    -0.168 NA
HETATM   19  N   UNL     1      26.308  50.564  37.795  1.00  0.00    -0.277 N 
HETATM   20  H   UNL     1      26.095  50.963  36.887  1.00  0.00     0.189 HD
HETATM   21  C   UNL     1      25.733  49.461  38.361  1.00  0.00     0.063 A 
HETATM   22  C   UNL     1      26.356  49.310  39.594  1.00  0.00     0.028 A 
HETATM   23  C   UNL     1      24.735  48.597  37.899  1.00  0.00     0.032 A 
HETATM   24  C   UNL     1      25.977  48.235  40.421  1.00  0.00     0.016 A 
HETATM   25  C   UNL     1      24.983  47.355  39.977  1.00  0.00     0.001 A 
HETATM   26  C   UNL     1      24.372  47.537  38.737  1.00  0.00     0.002 A 
ENDBRANCH   2  17
TORSDOF 2
ENDMDL
