MODEL 1
REMARK VINA RESULT:      -8.6      0.000      0.000
REMARK  6 active torsions:
REMARK  status: ('A' for Active; 'I' for Inactive)
REMARK    1  A    between atoms: N_2  and  C_4 
REMARK    2  A    between atoms: C_4  and  C_5 
REMARK    3  A    between atoms: C_5  and  C_6 
REMARK    4  A    between atoms: C_6  and  N_7 
REMARK    5  A    between atoms: C_17  and  C_18 
REMARK    6  A    between atoms: C_26  and  O_27 
ROOT
HETATM    1  N   UNL     1      27.512  40.164  49.983  1.00  0.00    -0.327 N 
HETATM    2  C   UNL     1      27.172  40.918  51.034  1.00  0.00     0.113 C 
HETATM    3  N   UNL     1      27.019  40.455  52.260  1.00  0.00    -0.385 N 
HETATM    4  H   UNL     1      26.772  41.059  53.037  1.00  0.00     0.157 HD
HETATM    5  H   UNL     1      27.051  39.479  52.513  1.00  0.00     0.157 HD
HETATM    6  C   UNL     1      26.998  42.388  50.787  1.00  0.00     0.052 C 
HETATM    7  C   UNL     1      27.092  42.837  49.521  1.00  0.00     0.182 C 
HETATM    8  O   UNL     1      26.959  44.173  49.182  1.00  0.00    -0.291 OA
HETATM    9  C   UNL     1      26.506  45.071  50.112  1.00  0.00     0.087 A 
HETATM   10  C   UNL     1      26.346  44.732  51.457  1.00  0.00    -0.011 A 
HETATM   11  C   UNL     1      26.715  43.346  51.929  1.00  0.00     0.095 C 
HETATM   12  C   UNL     1      26.202  46.352  49.648  1.00  0.00     0.074 A 
HETATM   13  C   UNL     1      25.718  47.298  50.542  1.00  0.00     0.068 A 
HETATM   14  C   UNL     1      25.536  46.982  51.882  1.00  0.00     0.037 A 
HETATM   15  C   UNL     1      25.847  45.702  52.342  1.00  0.00     0.014 A 
HETATM   16  N   UNL     1      27.307  42.009  48.457  1.00  0.00    -0.219 NA
HETATM   17  C   UNL     1      27.470  40.758  48.671  1.00  0.00     0.214 C 
ENDROOT
BRANCH   1  18
HETATM   18  C   UNL     1      27.804  38.712  50.043  1.00  0.00     0.133 C 
BRANCH  18  19
HETATM   19  C   UNL     1      28.243  38.126  48.688  1.00  0.00     0.048 C 
BRANCH  19  20
HETATM   20  C   UNL     1      27.300  37.053  48.140  1.00  0.00     0.235 C 
BRANCH  20  21
HETATM   21  N   UNL     1      27.964  36.252  47.034  1.00  0.00    -0.079 N 
HETATM   22  C   UNL     1      28.976  37.034  46.224  1.00  0.00     0.269 C 
HETATM   23  H   UNL     1      28.473  35.456  47.444  1.00  0.00     0.278 HD
HETATM   24  C   UNL     1      26.941  35.625  46.105  1.00  0.00     0.269 C 
ENDBRANCH  20  21
ENDBRANCH  19  20
ENDBRANCH  18  19
ENDBRANCH   1  18
BRANCH  11  25
HETATM   25  C   UNL     1      27.871  43.385  52.931  1.00  0.00    -0.045 A 
HETATM   26  C   UNL     1      27.627  43.689  54.283  1.00  0.00     0.010 A 
HETATM   27  C   UNL     1      28.675  43.717  55.206  1.00  0.00     0.024 A 
HETATM   28  C   UNL     1      29.978  43.461  54.785  1.00  0.00     0.034 A 
HETATM   29 CL   UNL     1      31.264  43.474  55.924  1.00  0.00    -0.084 Cl
HETATM   30  C   UNL     1      30.244  43.194  53.445  1.00  0.00     0.024 A 
HETATM   31  C   UNL     1      29.198  43.159  52.520  1.00  0.00     0.010 A 
ENDBRANCH  11  25
BRANCH  13  32
HETATM   32  O   UNL     1      25.401  48.562  50.146  1.00  0.00    -0.361 OA
HETATM   33  H   UNL     1      25.999  48.848  49.435  1.00  0.00     0.217 HD
ENDBRANCH  13  32
TORSDOF 6
ENDMDL
MODEL 2
REMARK VINA RESULT:      -8.5      4.475      7.999
REMARK  6 active torsions:
REMARK  status: ('A' for Active; 'I' for Inactive)
REMARK    1  A    between atoms: N_2  and  C_4 
REMARK    2  A    between atoms: C_4  and  C_5 
REMARK    3  A    between atoms: C_5  and  C_6 
REMARK    4  A    between atoms: C_6  and  N_7 
REMARK    5  A    between atoms: C_17  and  C_18 
REMARK    6  A    between atoms: C_26  and  O_27 
ROOT
HETATM    1  N   UNL     1      23.053  46.898  48.711  1.00  0.00    -0.327 N 
HETATM    2  C   UNL     1      23.265  45.868  49.536  1.00  0.00     0.113 C 
HETATM    3  N   UNL     1      22.650  44.704  49.444  1.00  0.00    -0.385 N 
HETATM    4  H   UNL     1      22.845  43.940  50.081  1.00  0.00     0.157 HD
HETATM    5  H   UNL     1      21.895  44.503  48.804  1.00  0.00     0.157 HD
HETATM    6  C   UNL     1      24.303  46.056  50.603  1.00  0.00     0.052 C 
HETATM    7  C   UNL     1      24.875  47.269  50.729  1.00  0.00     0.182 C 
HETATM    8  O   UNL     1      25.850  47.549  51.671  1.00  0.00    -0.291 OA
HETATM    9  C   UNL     1      26.116  46.647  52.667  1.00  0.00     0.087 A 
HETATM   10  C   UNL     1      25.575  45.360  52.670  1.00  0.00    -0.011 A 
HETATM   11  C   UNL     1      24.694  44.916  51.525  1.00  0.00     0.095 C 
HETATM   12  C   UNL     1      26.957  47.079  53.695  1.00  0.00     0.074 A 
HETATM   13  C   UNL     1      27.245  46.214  54.742  1.00  0.00     0.068 A 
HETATM   14  C   UNL     1      26.707  44.934  54.775  1.00  0.00     0.037 A 
HETATM   15  C   UNL     1      25.872  44.504  53.743  1.00  0.00     0.014 A 
HETATM   16  N   UNL     1      24.529  48.334  49.949  1.00  0.00    -0.219 NA
HETATM   17  C   UNL     1      23.656  48.167  49.029  1.00  0.00     0.214 C 
ENDROOT
BRANCH   1  18
HETATM   18  C   UNL     1      22.130  46.876  47.551  1.00  0.00     0.133 C 
BRANCH  18  19
HETATM   19  C   UNL     1      20.955  47.862  47.693  1.00  0.00     0.048 C 
BRANCH  19  20
HETATM   20  C   UNL     1      19.955  47.482  48.787  1.00  0.00     0.235 C 
BRANCH  20  21
HETATM   21  N   UNL     1      19.992  48.477  49.934  1.00  0.00    -0.079 N 
HETATM   22  C   UNL     1      18.702  48.566  50.721  1.00  0.00     0.269 C 
HETATM   23  H   UNL     1      20.723  48.200  50.605  1.00  0.00     0.278 HD
HETATM   24  C   UNL     1      20.398  49.861  49.463  1.00  0.00     0.269 C 
ENDBRANCH  20  21
ENDBRANCH  19  20
ENDBRANCH  18  19
ENDBRANCH   1  18
BRANCH  11  25
HETATM   25  C   UNL     1      25.324  43.756  50.751  1.00  0.00    -0.045 A 
HETATM   26  C   UNL     1      24.772  42.465  50.835  1.00  0.00     0.010 A 
HETATM   27  C   UNL     1      25.335  41.403  50.124  1.00  0.00     0.024 A 
HETATM   28  C   UNL     1      26.465  41.616  49.338  1.00  0.00     0.034 A 
HETATM   29 CL   UNL     1      27.145  40.314  48.446  1.00  0.00    -0.084 Cl
HETATM   30  C   UNL     1      27.047  42.878  49.271  1.00  0.00     0.024 A 
HETATM   31  C   UNL     1      26.484  43.944  49.976  1.00  0.00     0.010 A 
ENDBRANCH  11  25
BRANCH  13  32
HETATM   32  O   UNL     1      28.056  46.582  55.773  1.00  0.00    -0.361 OA
HETATM   33  H   UNL     1      28.634  45.841  56.022  1.00  0.00     0.217 HD
ENDBRANCH  13  32
TORSDOF 6
ENDMDL
MODEL 3
REMARK VINA RESULT:      -8.5      4.494      7.710
REMARK  6 active torsions:
REMARK  status: ('A' for Active; 'I' for Inactive)
REMARK    1  A    between atoms: N_2  and  C_4 
REMARK    2  A    between atoms: C_4  and  C_5 
REMARK    3  A    between atoms: C_5  and  C_6 
REMARK    4  A    between atoms: C_6  and  N_7 
REMARK    5  A    between atoms: C_17  and  C_18 
REMARK    6  A    between atoms: C_26  and  O_27 
ROOT
HETATM    1  N   UNL     1      27.094  45.573  54.321  1.00  0.00    -0.327 N 
HETATM    2  C   UNL     1      26.112  45.991  53.517  1.00  0.00     0.113 C 
HETATM    3  N   UNL     1      25.537  47.176  53.601  1.00  0.00    -0.385 N 
HETATM    4  H   UNL     1      24.801  47.464  52.965  1.00  0.00     0.157 HD
HETATM    5  H   UNL     1      25.713  47.849  54.332  1.00  0.00     0.157 HD
HETATM    6  C   UNL     1      25.678  45.051  52.431  1.00  0.00     0.052 C 
HETATM    7  C   UNL     1      26.225  43.820  52.397  1.00  0.00     0.182 C 
HETATM    8  O   UNL     1      25.906  42.879  51.433  1.00  0.00    -0.291 OA
HETATM    9  C   UNL     1      24.844  43.094  50.594  1.00  0.00     0.087 A 
HETATM   10  C   UNL     1      24.174  44.318  50.540  1.00  0.00    -0.011 A 
HETATM   11  C   UNL     1      24.644  45.468  51.401  1.00  0.00     0.095 C 
HETATM   12  C   UNL     1      24.454  42.021  49.791  1.00  0.00     0.074 A 
HETATM   13  C   UNL     1      23.370  42.174  48.936  1.00  0.00     0.068 A 
HETATM   14  C   UNL     1      22.678  43.378  48.874  1.00  0.00     0.037 A 
HETATM   15  C   UNL     1      23.076  44.449  49.674  1.00  0.00     0.014 A 
HETATM   16  N   UNL     1      27.129  43.387  53.323  1.00  0.00    -0.219 NA
HETATM   17  C   UNL     1      27.509  44.196  54.239  1.00  0.00     0.214 C 
ENDROOT
BRANCH   1  18
HETATM   18  C   UNL     1      27.710  46.387  55.397  1.00  0.00     0.133 C 
BRANCH  18  19
HETATM   19  C   UNL     1      29.243  46.249  55.458  1.00  0.00     0.048 C 
BRANCH  19  20
HETATM   20  C   UNL     1      29.758  45.602  56.745  1.00  0.00     0.235 C 
BRANCH  20  21
HETATM   21  N   UNL     1      30.951  44.704  56.469  1.00  0.00    -0.079 N 
HETATM   22  C   UNL     1      30.683  43.612  55.454  1.00  0.00     0.269 C 
HETATM   23  H   UNL     1      31.724  45.268  56.090  1.00  0.00     0.278 HD
HETATM   24  C   UNL     1      31.500  44.093  57.744  1.00  0.00     0.269 C 
ENDBRANCH  20  21
ENDBRANCH  19  20
ENDBRANCH  18  19
ENDBRANCH   1  18
BRANCH  11  25
HETATM   25  C   UNL     1      25.138  46.639  50.549  1.00  0.00    -0.045 A 
HETATM   26  C   UNL     1      24.232  47.614  50.092  1.00  0.00     0.010 A 
HETATM   27  C   UNL     1      24.676  48.692  49.323  1.00  0.00     0.024 A 
HETATM   28  C   UNL     1      26.023  48.797  48.987  1.00  0.00     0.034 A 
HETATM   29 CL   UNL     1      26.573  50.134  48.059  1.00  0.00    -0.084 Cl
HETATM   30  C   UNL     1      26.928  47.823  49.398  1.00  0.00     0.024 A 
HETATM   31  C   UNL     1      26.489  46.746  50.173  1.00  0.00     0.010 A 
ENDBRANCH  11  25
BRANCH  13  32
HETATM   32  O   UNL     1      22.943  41.162  48.132  1.00  0.00    -0.361 OA
HETATM   33  H   UNL     1      22.230  40.667  48.571  1.00  0.00     0.217 HD
ENDBRANCH  13  32
TORSDOF 6
ENDMDL
MODEL 4
REMARK VINA RESULT:      -8.1      3.442      7.109
REMARK  6 active torsions:
REMARK  status: ('A' for Active; 'I' for Inactive)
REMARK    1  A    between atoms: N_2  and  C_4 
REMARK    2  A    between atoms: C_4  and  C_5 
REMARK    3  A    between atoms: C_5  and  C_6 
REMARK    4  A    between atoms: C_6  and  N_7 
REMARK    5  A    between atoms: C_17  and  C_18 
REMARK    6  A    between atoms: C_26  and  O_27 
ROOT
HETATM    1  N   UNL     1      28.418  42.033  53.292  1.00  0.00    -0.327 N 
HETATM    2  C   UNL     1      27.261  42.564  52.884  1.00  0.00     0.113 C 
HETATM    3  N   UNL     1      26.596  43.493  53.546  1.00  0.00    -0.385 N 
HETATM    4  H   UNL     1      25.726  43.882  53.200  1.00  0.00     0.157 HD
HETATM    5  H   UNL     1      26.843  43.830  54.465  1.00  0.00     0.157 HD
HETATM    6  C   UNL     1      26.721  42.086  51.568  1.00  0.00     0.052 C 
HETATM    7  C   UNL     1      27.373  41.091  50.936  1.00  0.00     0.182 C 
HETATM    8  O   UNL     1      26.969  40.583  49.713  1.00  0.00    -0.291 OA
HETATM    9  C   UNL     1      25.748  40.932  49.198  1.00  0.00     0.087 A 
HETATM   10  C   UNL     1      24.961  41.936  49.765  1.00  0.00    -0.011 A 
HETATM   11  C   UNL     1      25.470  42.699  50.966  1.00  0.00     0.095 C 
HETATM   12  C   UNL     1      25.320  40.228  48.071  1.00  0.00     0.074 A 
HETATM   13  C   UNL     1      24.082  40.524  47.518  1.00  0.00     0.068 A 
HETATM   14  C   UNL     1      23.273  41.508  48.073  1.00  0.00     0.037 A 
HETATM   15  C   UNL     1      23.708  42.214  49.195  1.00  0.00     0.014 A 
HETATM   16  N   UNL     1      28.479  40.484  51.456  1.00  0.00    -0.219 NA
HETATM   17  C   UNL     1      28.946  40.903  52.571  1.00  0.00     0.214 C 
ENDROOT
BRANCH   1  18
HETATM   18  C   UNL     1      29.146  42.433  54.520  1.00  0.00     0.133 C 
BRANCH  18  19
HETATM   19  C   UNL     1      30.048  43.665  54.316  1.00  0.00     0.048 C 
BRANCH  19  20
HETATM   20  C   UNL     1      30.589  44.261  55.617  1.00  0.00     0.235 C 
BRANCH  20  21
HETATM   21  N   UNL     1      29.566  45.175  56.269  1.00  0.00    -0.079 N 
HETATM   22  C   UNL     1      29.024  46.252  55.354  1.00  0.00     0.269 C 
HETATM   23  H   UNL     1      28.754  44.618  56.574  1.00  0.00     0.278 HD
HETATM   24  C   UNL     1      30.107  45.807  57.538  1.00  0.00     0.269 C 
ENDBRANCH  20  21
ENDBRANCH  19  20
ENDBRANCH  18  19
ENDBRANCH   1  18
BRANCH  11  25
HETATM   25  C   UNL     1      25.668  44.182  50.643  1.00  0.00    -0.045 A 
HETATM   26  C   UNL     1      26.779  44.600  49.889  1.00  0.00     0.010 A 
HETATM   27  C   UNL     1      26.962  45.951  49.581  1.00  0.00     0.024 A 
HETATM   28  C   UNL     1      26.049  46.897  50.041  1.00  0.00     0.034 A 
HETATM   29 CL   UNL     1      26.261  48.555  49.645  1.00  0.00    -0.084 Cl
HETATM   30  C   UNL     1      24.963  46.506  50.820  1.00  0.00     0.024 A 
HETATM   31  C   UNL     1      24.774  45.156  51.124  1.00  0.00     0.010 A 
ENDBRANCH  11  25
BRANCH  13  32
HETATM   32  O   UNL     1      23.611  39.868  46.422  1.00  0.00    -0.361 OA
HETATM   33  H   UNL     1      24.317  39.773  45.762  1.00  0.00     0.217 HD
ENDBRANCH  13  32
TORSDOF 6
ENDMDL
MODEL 5
REMARK VINA RESULT:      -8.0      7.613     10.444
REMARK  6 active torsions:
REMARK  status: ('A' for Active; 'I' for Inactive)
REMARK    1  A    between atoms: N_2  and  C_4 
REMARK    2  A    between atoms: C_4  and  C_5 
REMARK    3  A    between atoms: C_5  and  C_6 
REMARK    4  A    between atoms: C_6  and  N_7 
REMARK    5  A    between atoms: C_17  and  C_18 
REMARK    6  A    between atoms: C_26  and  O_27 
ROOT
HETATM    1  N   UNL     1      19.374  49.835  48.918  1.00  0.00    -0.327 N 
HETATM    2  C   UNL     1      20.214  48.873  49.314  1.00  0.00     0.113 C 
HETATM    3  N   UNL     1      19.840  47.766  49.926  1.00  0.00    -0.385 N 
HETATM    4  H   UNL     1      20.505  47.052  50.202  1.00  0.00     0.157 HD
HETATM    5  H   UNL     1      18.900  47.573  50.240  1.00  0.00     0.157 HD
HETATM    6  C   UNL     1      21.668  49.069  48.995  1.00  0.00     0.052 C 
HETATM    7  C   UNL     1      22.045  50.232  48.430  1.00  0.00     0.182 C 
HETATM    8  O   UNL     1      23.356  50.512  48.085  1.00  0.00    -0.291 OA
HETATM    9  C   UNL     1      24.366  49.689  48.511  1.00  0.00     0.087 A 
HETATM   10  C   UNL     1      24.114  48.462  49.129  1.00  0.00    -0.011 A 
HETATM   11  C   UNL     1      22.690  47.992  49.308  1.00  0.00     0.095 C 
HETATM   12  C   UNL     1      25.670  50.140  48.304  1.00  0.00     0.074 A 
HETATM   13  C   UNL     1      26.733  49.357  48.735  1.00  0.00     0.068 A 
HETATM   14  C   UNL     1      26.509  48.139  49.365  1.00  0.00     0.037 A 
HETATM   15  C   UNL     1      25.204  47.690  49.564  1.00  0.00     0.014 A 
HETATM   16  N   UNL     1      21.169  51.244  48.166  1.00  0.00    -0.219 NA
HETATM   17  C   UNL     1      19.928  51.069  48.424  1.00  0.00     0.214 C 
ENDROOT
BRANCH   1  18
HETATM   18  C   UNL     1      17.900  49.785  49.071  1.00  0.00     0.133 C 
BRANCH  18  19
HETATM   19  C   UNL     1      17.190  49.112  47.881  1.00  0.00     0.048 C 
BRANCH  19  20
HETATM   20  C   UNL     1      16.412  47.850  48.255  1.00  0.00     0.235 C 
BRANCH  20  21
HETATM   21  N   UNL     1      16.613  46.754  47.223  1.00  0.00    -0.079 N 
HETATM   22  C   UNL     1      17.951  46.052  47.316  1.00  0.00     0.269 C 
HETATM   23  H   UNL     1      15.894  46.027  47.350  1.00  0.00     0.278 HD
HETATM   24  C   UNL     1      16.404  47.269  45.811  1.00  0.00     0.269 C 
ENDBRANCH  20  21
ENDBRANCH  19  20
ENDBRANCH  18  19
ENDBRANCH   1  18
BRANCH  11  25
HETATM   25  C   UNL     1      22.419  46.711  48.514  1.00  0.00    -0.045 A 
HETATM   26  C   UNL     1      22.597  45.453  49.118  1.00  0.00     0.010 A 
HETATM   27  C   UNL     1      22.343  44.279  48.405  1.00  0.00     0.024 A 
HETATM   28  C   UNL     1      21.927  44.351  47.077  1.00  0.00     0.034 A 
HETATM   29 CL   UNL     1      21.594  42.908  46.205  1.00  0.00    -0.084 Cl
HETATM   30  C   UNL     1      21.781  45.585  46.451  1.00  0.00     0.024 A 
HETATM   31  C   UNL     1      22.029  46.761  47.163  1.00  0.00     0.010 A 
ENDBRANCH  11  25
BRANCH  13  32
HETATM   32  O   UNL     1      28.026  49.748  48.563  1.00  0.00    -0.361 OA
HETATM   33  H   UNL     1      28.569  48.990  48.288  1.00  0.00     0.217 HD
ENDBRANCH  13  32
TORSDOF 6
ENDMDL
MODEL 6
REMARK VINA RESULT:      -7.9      7.170     11.061
REMARK  6 active torsions:
REMARK  status: ('A' for Active; 'I' for Inactive)
REMARK    1  A    between atoms: N_2  and  C_4 
REMARK    2  A    between atoms: C_4  and  C_5 
REMARK    3  A    between atoms: C_5  and  C_6 
REMARK    4  A    between atoms: C_6  and  N_7 
REMARK    5  A    between atoms: C_17  and  C_18 
REMARK    6  A    between atoms: C_26  and  O_27 
ROOT
HETATM    1  N   UNL     1      19.420  49.053  48.119  1.00  0.00    -0.327 N 
HETATM    2  C   UNL     1      20.296  48.289  48.780  1.00  0.00     0.113 C 
HETATM    3  N   UNL     1      19.959  47.285  49.568  1.00  0.00    -0.385 N 
HETATM    4  H   UNL     1      20.653  46.719  50.045  1.00  0.00     0.157 HD
HETATM    5  H   UNL     1      19.012  47.050  49.824  1.00  0.00     0.157 HD
HETATM    6  C   UNL     1      21.751  48.585  48.566  1.00  0.00     0.052 C 
HETATM    7  C   UNL     1      22.080  49.653  47.813  1.00  0.00     0.182 C 
HETATM    8  O   UNL     1      23.390  50.010  47.542  1.00  0.00    -0.291 OA
HETATM    9  C   UNL     1      24.417  49.407  48.220  1.00  0.00     0.087 A 
HETATM   10  C   UNL     1      24.213  48.301  49.049  1.00  0.00    -0.011 A 
HETATM   11  C   UNL     1      22.828  47.714  49.186  1.00  0.00     0.095 C 
HETATM   12  C   UNL     1      25.689  49.956  48.048  1.00  0.00     0.074 A 
HETATM   13  C   UNL     1      26.764  49.399  48.727  1.00  0.00     0.068 A 
HETATM   14  C   UNL     1      26.585  48.308  49.569  1.00  0.00     0.037 A 
HETATM   15  C   UNL     1      25.313  47.758  49.732  1.00  0.00     0.014 A 
HETATM   16  N   UNL     1      21.149  50.487  47.266  1.00  0.00    -0.219 NA
HETATM   17  C   UNL     1      19.909  50.224  47.437  1.00  0.00     0.214 C 
ENDROOT
BRANCH   1  18
HETATM   18  C   UNL     1      17.950  48.864  48.139  1.00  0.00     0.133 C 
BRANCH  18  19
HETATM   19  C   UNL     1      17.229  49.823  49.106  1.00  0.00     0.048 C 
BRANCH  19  20
HETATM   20  C   UNL     1      16.332  50.848  48.410  1.00  0.00     0.235 C 
BRANCH  20  21
HETATM   21  N   UNL     1      16.552  52.241  48.973  1.00  0.00    -0.079 N 
HETATM   22  C   UNL     1      17.876  52.422  49.683  1.00  0.00     0.269 C 
HETATM   23  H   UNL     1      16.539  52.928  48.205  1.00  0.00     0.278 HD
HETATM   24  C   UNL     1      15.419  52.660  49.892  1.00  0.00     0.269 C 
ENDBRANCH  20  21
ENDBRANCH  19  20
ENDBRANCH  18  19
ENDBRANCH   1  18
BRANCH  11  25
HETATM   25  C   UNL     1      22.772  46.282  48.649  1.00  0.00    -0.045 A 
HETATM   26  C   UNL     1      23.118  45.200  49.479  1.00  0.00     0.010 A 
HETATM   27  C   UNL     1      23.060  43.889  49.001  1.00  0.00     0.024 A 
HETATM   28  C   UNL     1      22.674  43.647  47.684  1.00  0.00     0.034 A 
HETATM   29 CL   UNL     1      22.582  42.034  47.102  1.00  0.00    -0.084 Cl
HETATM   30  C   UNL     1      22.363  44.707  46.837  1.00  0.00     0.024 A 
HETATM   31  C   UNL     1      22.414  46.019  47.314  1.00  0.00     0.010 A 
ENDBRANCH  11  25
BRANCH  13  32
HETATM   32  O   UNL     1      28.026  49.895  48.601  1.00  0.00    -0.361 OA
HETATM   33  H   UNL     1      28.548  49.329  48.009  1.00  0.00     0.217 HD
ENDBRANCH  13  32
TORSDOF 6
ENDMDL
MODEL 7
REMARK VINA RESULT:      -7.5      4.037      7.705
REMARK  6 active torsions:
REMARK  status: ('A' for Active; 'I' for Inactive)
REMARK    1  A    between atoms: N_2  and  C_4 
REMARK    2  A    between atoms: C_4  and  C_5 
REMARK    3  A    between atoms: C_5  and  C_6 
REMARK    4  A    between atoms: C_6  and  N_7 
REMARK    5  A    between atoms: C_17  and  C_18 
REMARK    6  A    between atoms: C_26  and  O_27 
ROOT
HETATM    1  N   UNL     1      23.842  44.946  49.648  1.00  0.00    -0.327 N 
HETATM    2  C   UNL     1      24.233  43.761  50.129  1.00  0.00     0.113 C 
HETATM    3  N   UNL     1      23.607  42.622  49.897  1.00  0.00    -0.385 N 
HETATM    4  H   UNL     1      23.940  41.740  50.269  1.00  0.00     0.157 HD
HETATM    5  H   UNL     1      22.725  42.541  49.414  1.00  0.00     0.157 HD
HETATM    6  C   UNL     1      25.489  43.742  50.950  1.00  0.00     0.052 C 
HETATM    7  C   UNL     1      26.081  44.918  51.235  1.00  0.00     0.182 C 
HETATM    8  O   UNL     1      27.248  45.016  51.973  1.00  0.00    -0.291 OA
HETATM    9  C   UNL     1      27.731  43.918  52.635  1.00  0.00     0.087 A 
HETATM   10  C   UNL     1      27.198  42.641  52.446  1.00  0.00    -0.011 A 
HETATM   11  C   UNL     1      26.076  42.437  51.455  1.00  0.00     0.095 C 
HETATM   12  C   UNL     1      28.788  44.136  53.520  1.00  0.00     0.074 A 
HETATM   13  C   UNL     1      29.305  43.063  54.235  1.00  0.00     0.068 A 
HETATM   14  C   UNL     1      28.782  41.785  54.075  1.00  0.00     0.037 A 
HETATM   15  C   UNL     1      27.730  41.571  53.184  1.00  0.00     0.014 A 
HETATM   16  N   UNL     1      25.571  46.120  50.835  1.00  0.00    -0.219 NA
HETATM   17  C   UNL     1      24.508  46.132  50.122  1.00  0.00     0.214 C 
ENDROOT
BRANCH   1  18
HETATM   18  C   UNL     1      22.677  45.153  48.755  1.00  0.00     0.133 C 
BRANCH  18  19
HETATM   19  C   UNL     1      22.411  46.637  48.441  1.00  0.00     0.048 C 
BRANCH  19  20
HETATM   20  C   UNL     1      20.949  47.055  48.613  1.00  0.00     0.235 C 
BRANCH  20  21
HETATM   21  N   UNL     1      20.822  48.225  49.574  1.00  0.00    -0.079 N 
HETATM   22  C   UNL     1      19.394  48.641  49.859  1.00  0.00     0.269 C 
HETATM   23  H   UNL     1      21.236  47.969  50.482  1.00  0.00     0.278 HD
HETATM   24  C   UNL     1      21.620  49.426  49.104  1.00  0.00     0.269 C 
ENDBRANCH  20  21
ENDBRANCH  19  20
ENDBRANCH  18  19
ENDBRANCH   1  18
BRANCH  11  25
HETATM   25  C   UNL     1      26.505  41.529  50.301  1.00  0.00    -0.045 A 
HETATM   26  C   UNL     1      27.241  42.053  49.223  1.00  0.00     0.010 A 
HETATM   27  C   UNL     1      27.646  41.228  48.170  1.00  0.00     0.024 A 
HETATM   28  C   UNL     1      27.303  39.878  48.175  1.00  0.00     0.034 A 
HETATM   29 CL   UNL     1      27.819  38.859  46.892  1.00  0.00    -0.084 Cl
HETATM   30  C   UNL     1      26.544  39.349  49.215  1.00  0.00     0.024 A 
HETATM   31  C   UNL     1      26.143  40.169  50.272  1.00  0.00     0.010 A 
ENDBRANCH  11  25
BRANCH  13  32
HETATM   32  O   UNL     1      30.332  43.216  55.115  1.00  0.00    -0.361 OA
HETATM   33  H   UNL     1      31.091  42.674  54.838  1.00  0.00     0.217 HD
ENDBRANCH  13  32
TORSDOF 6
ENDMDL
MODEL 8
REMARK VINA RESULT:      -7.5     12.245     14.692
REMARK  6 active torsions:
REMARK  status: ('A' for Active; 'I' for Inactive)
REMARK    1  A    between atoms: N_2  and  C_4 
REMARK    2  A    between atoms: C_4  and  C_5 
REMARK    3  A    between atoms: C_5  and  C_6 
REMARK    4  A    between atoms: C_6  and  N_7 
REMARK    5  A    between atoms: C_17  and  C_18 
REMARK    6  A    between atoms: C_26  and  O_27 
ROOT
HETATM    1  N   UNL     1      29.740  51.084  39.957  1.00  0.00    -0.327 N 
HETATM    2  C   UNL     1      28.870  50.175  40.408  1.00  0.00     0.113 C 
HETATM    3  N   UNL     1      27.916  50.430  41.284  1.00  0.00    -0.385 N 
HETATM    4  H   UNL     1      27.266  49.717  41.595  1.00  0.00     0.157 HD
HETATM    5  H   UNL     1      27.803  51.308  41.769  1.00  0.00     0.157 HD
HETATM    6  C   UNL     1      28.979  48.790  39.840  1.00  0.00     0.052 C 
HETATM    7  C   UNL     1      29.997  48.526  38.998  1.00  0.00     0.182 C 
HETATM    8  O   UNL     1      30.186  47.288  38.407  1.00  0.00    -0.291 OA
HETATM    9  C   UNL     1      29.456  46.210  38.834  1.00  0.00     0.087 A 
HETATM   10  C   UNL     1      28.384  46.340  39.720  1.00  0.00    -0.011 A 
HETATM   11  C   UNL     1      27.977  47.712  40.206  1.00  0.00     0.095 C 
HETATM   12  C   UNL     1      29.839  44.960  38.343  1.00  0.00     0.074 A 
HETATM   13  C   UNL     1      29.149  43.829  38.758  1.00  0.00     0.068 A 
HETATM   14  C   UNL     1      28.089  43.931  39.650  1.00  0.00     0.037 A 
HETATM   15  C   UNL     1      27.705  45.182  40.133  1.00  0.00     0.014 A 
HETATM   16  N   UNL     1      30.944  49.452  38.669  1.00  0.00    -0.219 NA
HETATM   17  C   UNL     1      30.840  50.636  39.143  1.00  0.00     0.214 C 
ENDROOT
BRANCH   1  18
HETATM   18  C   UNL     1      29.740  52.517  40.339  1.00  0.00     0.133 C 
BRANCH  18  19
HETATM   19  C   UNL     1      30.954  52.914  41.200  1.00  0.00     0.048 C 
BRANCH  19  20
HETATM   20  C   UNL     1      30.876  52.424  42.647  1.00  0.00     0.235 C 
BRANCH  20  21
HETATM   21  N   UNL     1      32.033  51.497  42.975  1.00  0.00    -0.079 N 
HETATM   22  C   UNL     1      31.688  50.024  42.904  1.00  0.00     0.269 C 
HETATM   23  H   UNL     1      32.796  51.648  42.299  1.00  0.00     0.278 HD
HETATM   24  C   UNL     1      32.640  51.814  44.329  1.00  0.00     0.269 C 
ENDBRANCH  20  21
ENDBRANCH  19  20
ENDBRANCH  18  19
ENDBRANCH   1  18
BRANCH  11  25
HETATM   25  C   UNL     1      26.564  48.074  39.742  1.00  0.00    -0.045 A 
HETATM   26  C   UNL     1      25.460  47.829  40.577  1.00  0.00     0.010 A 
HETATM   27  C   UNL     1      24.168  48.166  40.166  1.00  0.00     0.024 A 
HETATM   28  C   UNL     1      23.966  48.731  38.909  1.00  0.00     0.034 A 
HETATM   29 CL   UNL     1      22.380  49.165  38.410  1.00  0.00    -0.084 Cl
HETATM   30  C   UNL     1      25.042  48.947  38.053  1.00  0.00     0.024 A 
HETATM   31  C   UNL     1      26.336  48.617  38.464  1.00  0.00     0.010 A 
ENDBRANCH  11  25
BRANCH  13  32
HETATM   32  O   UNL     1      29.481  42.585  38.315  1.00  0.00    -0.361 OA
HETATM   33  H   UNL     1      30.031  42.651  37.517  1.00  0.00     0.217 HD
ENDBRANCH  13  32
TORSDOF 6
ENDMDL
MODEL 9
REMARK VINA RESULT:      -7.4      3.909      7.845
REMARK  6 active torsions:
REMARK  status: ('A' for Active; 'I' for Inactive)
REMARK    1  A    between atoms: N_2  and  C_4 
REMARK    2  A    between atoms: C_4  and  C_5 
REMARK    3  A    between atoms: C_5  and  C_6 
REMARK    4  A    between atoms: C_6  and  N_7 
REMARK    5  A    between atoms: C_17  and  C_18 
REMARK    6  A    between atoms: C_26  and  O_27 
ROOT
HETATM    1  N   UNL     1      29.106  44.142  54.938  1.00  0.00    -0.327 N 
HETATM    2  C   UNL     1      27.960  43.817  54.332  1.00  0.00     0.113 C 
HETATM    3  N   UNL     1      26.780  44.311  54.660  1.00  0.00    -0.385 N 
HETATM    4  H   UNL     1      25.932  44.050  54.170  1.00  0.00     0.157 HD
HETATM    5  H   UNL     1      26.610  44.911  55.454  1.00  0.00     0.157 HD
HETATM    6  C   UNL     1      28.048  42.856  53.183  1.00  0.00     0.052 C 
HETATM    7  C   UNL     1      29.246  42.308  52.902  1.00  0.00     0.182 C 
HETATM    8  O   UNL     1      29.443  41.419  51.858  1.00  0.00    -0.291 OA
HETATM    9  C   UNL     1      28.364  40.891  51.199  1.00  0.00     0.087 A 
HETATM   10  C   UNL     1      27.063  41.355  51.409  1.00  0.00    -0.011 A 
HETATM   11  C   UNL     1      26.822  42.501  52.363  1.00  0.00     0.095 C 
HETATM   12  C   UNL     1      28.625  39.853  50.303  1.00  0.00     0.074 A 
HETATM   13  C   UNL     1      27.568  39.265  49.621  1.00  0.00     0.068 A 
HETATM   14  C   UNL     1      26.263  39.698  49.824  1.00  0.00     0.037 A 
HETATM   15  C   UNL     1      26.008  40.740  50.715  1.00  0.00     0.014 A 
HETATM   16  N   UNL     1      30.368  42.567  53.635  1.00  0.00    -0.219 NA
HETATM   17  C   UNL     1      30.293  43.398  54.604  1.00  0.00     0.214 C 
ENDROOT
BRANCH   1  18
HETATM   18  C   UNL     1      29.232  45.131  56.036  1.00  0.00     0.133 C 
BRANCH  18  19
HETATM   19  C   UNL     1      28.172  46.247  55.970  1.00  0.00     0.048 C 
BRANCH  19  20
HETATM   20  C   UNL     1      28.447  47.303  54.898  1.00  0.00     0.235 C 
BRANCH  20  21
HETATM   21  N   UNL     1      27.198  48.109  54.588  1.00  0.00    -0.079 N 
HETATM   22  C   UNL     1      26.403  48.516  55.810  1.00  0.00     0.269 C 
HETATM   23  H   UNL     1      27.463  48.982  54.110  1.00  0.00     0.278 HD
HETATM   24  C   UNL     1      26.293  47.386  53.608  1.00  0.00     0.269 C 
ENDBRANCH  20  21
ENDBRANCH  19  20
ENDBRANCH  18  19
ENDBRANCH   1  18
BRANCH  11  25
HETATM   25  C   UNL     1      26.257  43.724  51.637  1.00  0.00    -0.045 A 
HETATM   26  C   UNL     1      24.899  44.066  51.776  1.00  0.00     0.010 A 
HETATM   27  C   UNL     1      24.377  45.186  51.126  1.00  0.00     0.024 A 
HETATM   28  C   UNL     1      25.201  45.963  50.314  1.00  0.00     0.034 A 
HETATM   29 CL   UNL     1      24.565  47.354  49.530  1.00  0.00    -0.084 Cl
HETATM   30  C   UNL     1      26.537  45.620  50.134  1.00  0.00     0.024 A 
HETATM   31  C   UNL     1      27.064  44.504  50.789  1.00  0.00     0.010 A 
ENDBRANCH  11  25
BRANCH  13  32
HETATM   32  O   UNL     1      27.762  38.247  48.738  1.00  0.00    -0.361 OA
HETATM   33  H   UNL     1      27.086  37.562  48.866  1.00  0.00     0.217 HD
ENDBRANCH  13  32
TORSDOF 6
ENDMDL
MODEL 10
REMARK VINA RESULT:      -7.3      3.661      7.642
REMARK  6 active torsions:
REMARK  status: ('A' for Active; 'I' for Inactive)
REMARK    1  A    between atoms: N_2  and  C_4 
REMARK    2  A    between atoms: C_4  and  C_5 
REMARK    3  A    between atoms: C_5  and  C_6 
REMARK    4  A    between atoms: C_6  and  N_7 
REMARK    5  A    between atoms: C_17  and  C_18 
REMARK    6  A    between atoms: C_26  and  O_27 
ROOT
HETATM    1  N   UNL     1      27.768  43.625  53.986  1.00  0.00    -0.327 N 
HETATM    2  C   UNL     1      26.699  43.765  53.194  1.00  0.00     0.113 C 
HETATM    3  N   UNL     1      25.638  44.487  53.501  1.00  0.00    -0.385 N 
HETATM    4  H   UNL     1      24.849  44.580  52.870  1.00  0.00     0.157 HD
HETATM    5  H   UNL     1      25.484  44.930  54.395  1.00  0.00     0.157 HD
HETATM    6  C   UNL     1      26.748  43.081  51.860  1.00  0.00     0.052 C 
HETATM    7  C   UNL     1      27.807  42.293  51.587  1.00  0.00     0.182 C 
HETATM    8  O   UNL     1      27.959  41.624  50.384  1.00  0.00    -0.291 OA
HETATM    9  C   UNL     1      26.915  41.567  49.498  1.00  0.00     0.087 A 
HETATM   10  C   UNL     1      25.751  42.318  49.670  1.00  0.00    -0.011 A 
HETATM   11  C   UNL     1      25.634  43.260  50.846  1.00  0.00     0.095 C 
HETATM   12  C   UNL     1      27.067  40.709  48.407  1.00  0.00     0.074 A 
HETATM   13  C   UNL     1      26.033  40.593  47.488  1.00  0.00     0.068 A 
HETATM   14  C   UNL     1      24.858  41.319  47.645  1.00  0.00     0.037 A 
HETATM   15  C   UNL     1      24.714  42.180  48.733  1.00  0.00     0.014 A 
HETATM   16  N   UNL     1      28.814  42.071  52.481  1.00  0.00    -0.219 NA
HETATM   17  C   UNL     1      28.777  42.668  53.612  1.00  0.00     0.214 C 
ENDROOT
BRANCH   1  18
HETATM   18  C   UNL     1      27.938  44.288  55.301  1.00  0.00     0.133 C 
BRANCH  18  19
HETATM   19  C   UNL     1      28.702  45.622  55.213  1.00  0.00     0.048 C 
BRANCH  19  20
HETATM   20  C   UNL     1      28.072  46.753  56.028  1.00  0.00     0.235 C 
BRANCH  20  21
HETATM   21  N   UNL     1      26.853  47.324  55.325  1.00  0.00    -0.079 N 
HETATM   22  C   UNL     1      27.044  47.554  53.841  1.00  0.00     0.269 C 
HETATM   23  H   UNL     1      26.065  46.667  55.417  1.00  0.00     0.278 HD
HETATM   24  C   UNL     1      26.375  48.605  55.982  1.00  0.00     0.269 C 
ENDBRANCH  20  21
ENDBRANCH  19  20
ENDBRANCH  18  19
ENDBRANCH   1  18
BRANCH  11  25
HETATM   25  C   UNL     1      25.518  44.715  50.388  1.00  0.00    -0.045 A 
HETATM   26  C   UNL     1      24.256  45.329  50.290  1.00  0.00     0.010 A 
HETATM   27  C   UNL     1      24.142  46.660  49.883  1.00  0.00     0.024 A 
HETATM   28  C   UNL     1      25.285  47.384  49.550  1.00  0.00     0.034 A 
HETATM   29 CL   UNL     1      25.147  49.028  49.069  1.00  0.00    -0.084 Cl
HETATM   30  C   UNL     1      26.539  46.784  49.605  1.00  0.00     0.024 A 
HETATM   31  C   UNL     1      26.657  45.454  50.018  1.00  0.00     0.010 A 
ENDBRANCH  11  25
BRANCH  13  32
HETATM   32  O   UNL     1      26.123  39.770  46.407  1.00  0.00    -0.361 OA
HETATM   33  H   UNL     1      25.615  40.138  45.665  1.00  0.00     0.217 HD
ENDBRANCH  13  32
TORSDOF 6
ENDMDL
