MODEL 1
REMARK VINA RESULT:      -8.4      0.000      0.000
REMARK  4 active torsions:
REMARK  status: ('A' for Active; 'I' for Inactive)
REMARK    1  A    between atoms: C_4  and  N_5 
REMARK    2  A    between atoms: C_9  and  N_10 
REMARK    3  A    between atoms: C_13  and  C_14 
REMARK    4  A    between atoms: C_22  and  C_23 
ROOT
HETATM    1  N   UNL     1      28.293  38.531  49.760  1.00  0.00    -0.258 N 
HETATM    2  C   UNL     1      29.436  38.308  50.585  1.00  0.00     0.333 A 
HETATM    3  O   UNL     1      30.257  37.413  50.597  1.00  0.00    -0.246 OA
HETATM    4  N   UNL     1      29.489  39.409  51.447  1.00  0.00    -0.292 N 
HETATM    5  C   UNL     1      28.457  40.265  51.173  1.00  0.00     0.146 A 
HETATM    6  C   UNL     1      27.720  39.734  50.175  1.00  0.00     0.126 A 
HETATM    7  H   UNL     1      30.244  39.518  52.109  1.00  0.00     0.172 HD
ENDROOT
BRANCH   5   8
HETATM    8  N   UNL     1      28.232  41.427  51.918  1.00  0.00    -0.317 N 
HETATM    9  C   UNL     1      28.015  42.599  51.273  1.00  0.00     0.099 A 
HETATM   10  C   UNL     1      27.814  43.785  51.977  1.00  0.00     0.030 A 
HETATM   11  C   UNL     1      27.814  43.787  53.373  1.00  0.00    -0.023 A 
HETATM   12  C   UNL     1      27.992  42.560  54.014  1.00  0.00     0.030 A 
HETATM   13  C   UNL     1      28.192  41.397  53.274  1.00  0.00     0.099 A 
BRANCH  11  14
HETATM   14  C   UNL     1      27.654  45.034  54.138  1.00  0.00    -0.023 A 
HETATM   15  C   UNL     1      26.739  46.020  53.747  1.00  0.00     0.031 A 
HETATM   16  C   UNL     1      26.638  47.183  54.497  1.00  0.00     0.117 A 
HETATM   17  N   UNL     1      27.377  47.428  55.595  1.00  0.00    -0.273 NA
HETATM   18  C   UNL     1      28.254  46.476  55.967  1.00  0.00     0.117 A 
HETATM   19  C   UNL     1      28.426  45.283  55.282  1.00  0.00     0.031 A 
ENDBRANCH  11  14
ENDBRANCH   5   8
BRANCH   6  20
HETATM   20  C   UNL     1      26.383  40.205  49.767  1.00  0.00     0.292 C 
HETATM   21  O   UNL     1      26.164  40.654  48.649  1.00  0.00    -0.300 OA
ENDBRANCH   6  20
BRANCH   1  22
HETATM   22  C   UNL     1      27.916  37.658  48.703  1.00  0.00     0.044 A 
HETATM   23  C   UNL     1      26.906  36.702  48.890  1.00  0.00     0.030 A 
HETATM   24  C   UNL     1      26.512  35.856  47.848  1.00  0.00     0.002 A 
HETATM   25  C   UNL     1      27.131  35.941  46.605  1.00  0.00     0.000 A 
HETATM   26  C   UNL     1      28.153  36.863  46.409  1.00  0.00     0.002 A 
HETATM   27  C   UNL     1      28.546  37.710  47.450  1.00  0.00     0.030 A 
ENDBRANCH   1  22
TORSDOF 4
ENDMDL
MODEL 2
REMARK VINA RESULT:      -8.3      3.381      4.857
REMARK  4 active torsions:
REMARK  status: ('A' for Active; 'I' for Inactive)
REMARK    1  A    between atoms: C_4  and  N_5 
REMARK    2  A    between atoms: C_9  and  N_10 
REMARK    3  A    between atoms: C_13  and  C_14 
REMARK    4  A    between atoms: C_22  and  C_23 
ROOT
HETATM    1  N   UNL     1      25.589  42.887  49.723  1.00  0.00    -0.258 N 
HETATM    2  C   UNL     1      25.582  44.309  49.613  1.00  0.00     0.333 A 
HETATM    3  O   UNL     1      25.042  45.052  48.817  1.00  0.00    -0.246 OA
HETATM    4  N   UNL     1      26.347  44.768  50.692  1.00  0.00    -0.292 N 
HETATM    5  C   UNL     1      26.792  43.706  51.431  1.00  0.00     0.146 A 
HETATM    6  C   UNL     1      26.361  42.570  50.843  1.00  0.00     0.126 A 
HETATM    7  H   UNL     1      26.458  45.756  50.871  1.00  0.00     0.172 HD
ENDROOT
BRANCH   5   8
HETATM    8  N   UNL     1      27.626  43.866  52.542  1.00  0.00    -0.317 N 
HETATM    9  C   UNL     1      28.856  43.297  52.538  1.00  0.00     0.099 A 
HETATM   10  C   UNL     1      29.708  43.409  53.634  1.00  0.00     0.030 A 
HETATM   11  C   UNL     1      29.315  44.130  54.763  1.00  0.00    -0.023 A 
HETATM   12  C   UNL     1      28.064  44.747  54.725  1.00  0.00     0.030 A 
HETATM   13  C   UNL     1      27.241  44.609  53.610  1.00  0.00     0.099 A 
BRANCH  11  14
HETATM   14  C   UNL     1      30.177  44.220  55.954  1.00  0.00    -0.023 A 
HETATM   15  C   UNL     1      31.184  43.278  56.201  1.00  0.00     0.031 A 
HETATM   16  C   UNL     1      31.959  43.403  57.344  1.00  0.00     0.117 A 
HETATM   17  N   UNL     1      31.800  44.388  58.249  1.00  0.00    -0.273 NA
HETATM   18  C   UNL     1      30.831  45.290  58.006  1.00  0.00     0.117 A 
HETATM   19  C   UNL     1      30.008  45.249  56.890  1.00  0.00     0.031 A 
ENDBRANCH  11  14
ENDBRANCH   5   8
BRANCH   6  20
HETATM   20  C   UNL     1      26.840  41.214  51.168  1.00  0.00     0.292 C 
HETATM   21  O   UNL     1      27.761  40.684  50.558  1.00  0.00    -0.300 OA
ENDBRANCH   6  20
BRANCH   1  22
HETATM   22  C   UNL     1      24.874  42.035  48.838  1.00  0.00     0.044 A 
HETATM   23  C   UNL     1      23.482  41.899  48.943  1.00  0.00     0.030 A 
HETATM   24  C   UNL     1      22.769  41.082  48.060  1.00  0.00     0.002 A 
HETATM   25  C   UNL     1      23.437  40.374  47.066  1.00  0.00     0.000 A 
HETATM   26  C   UNL     1      24.820  40.474  46.963  1.00  0.00     0.002 A 
HETATM   27  C   UNL     1      25.533  41.293  47.845  1.00  0.00     0.030 A 
ENDBRANCH   1  22
TORSDOF 4
ENDMDL
MODEL 3
REMARK VINA RESULT:      -8.3      2.430      2.901
REMARK  4 active torsions:
REMARK  status: ('A' for Active; 'I' for Inactive)
REMARK    1  A    between atoms: C_4  and  N_5 
REMARK    2  A    between atoms: C_9  and  N_10 
REMARK    3  A    between atoms: C_13  and  C_14 
REMARK    4  A    between atoms: C_22  and  C_23 
ROOT
HETATM    1  N   UNL     1      27.660  40.414  49.419  1.00  0.00    -0.258 N 
HETATM    2  C   UNL     1      28.421  39.379  50.038  1.00  0.00     0.333 A 
HETATM    3  O   UNL     1      28.674  38.244  49.685  1.00  0.00    -0.246 OA
HETATM    4  N   UNL     1      28.910  39.939  51.224  1.00  0.00    -0.292 N 
HETATM    5  C   UNL     1      28.491  41.237  51.333  1.00  0.00     0.146 A 
HETATM    6  C   UNL     1      27.720  41.524  50.264  1.00  0.00     0.126 A 
HETATM    7  H   UNL     1      29.528  39.419  51.831  1.00  0.00     0.172 HD
ENDROOT
BRANCH   5   8
HETATM    8  N   UNL     1      28.788  42.027  52.448  1.00  0.00    -0.317 N 
HETATM    9  C   UNL     1      30.082  42.295  52.749  1.00  0.00     0.099 A 
HETATM   10  C   UNL     1      30.423  43.055  53.866  1.00  0.00     0.030 A 
HETATM   11  C   UNL     1      29.428  43.574  54.696  1.00  0.00    -0.023 A 
HETATM   12  C   UNL     1      28.102  43.325  54.340  1.00  0.00     0.030 A 
HETATM   13  C   UNL     1      27.803  42.559  53.215  1.00  0.00     0.099 A 
BRANCH  11  14
HETATM   14  C   UNL     1      29.763  44.337  55.910  1.00  0.00    -0.023 A 
HETATM   15  C   UNL     1      29.031  45.470  56.288  1.00  0.00     0.031 A 
HETATM   16  C   UNL     1      29.398  46.160  57.434  1.00  0.00     0.117 A 
HETATM   17  N   UNL     1      30.432  45.804  58.219  1.00  0.00    -0.273 NA
HETATM   18  C   UNL     1      31.131  44.714  57.852  1.00  0.00     0.117 A 
HETATM   19  C   UNL     1      30.840  43.960  56.724  1.00  0.00     0.031 A 
ENDBRANCH  11  14
ENDBRANCH   5   8
BRANCH   6  20
HETATM   20  C   UNL     1      26.864  42.718  50.133  1.00  0.00     0.292 C 
HETATM   21  O   UNL     1      27.214  43.705  49.498  1.00  0.00    -0.300 OA
ENDBRANCH   6  20
BRANCH   1  22
HETATM   22  C   UNL     1      27.032  40.265  48.152  1.00  0.00     0.044 A 
HETATM   23  C   UNL     1      25.815  39.578  48.032  1.00  0.00     0.030 A 
HETATM   24  C   UNL     1      25.179  39.449  46.793  1.00  0.00     0.002 A 
HETATM   25  C   UNL     1      25.756  39.991  45.650  1.00  0.00     0.000 A 
HETATM   26  C   UNL     1      26.975  40.652  45.744  1.00  0.00     0.002 A 
HETATM   27  C   UNL     1      27.611  40.783  46.983  1.00  0.00     0.030 A 
ENDBRANCH   1  22
TORSDOF 4
ENDMDL
MODEL 4
REMARK VINA RESULT:      -8.1      6.190      8.621
REMARK  4 active torsions:
REMARK  status: ('A' for Active; 'I' for Inactive)
REMARK    1  A    between atoms: C_4  and  N_5 
REMARK    2  A    between atoms: C_9  and  N_10 
REMARK    3  A    between atoms: C_13  and  C_14 
REMARK    4  A    between atoms: C_22  and  C_23 
ROOT
HETATM    1  N   UNL     1      26.547  44.480  51.130  1.00  0.00    -0.258 N 
HETATM    2  C   UNL     1      26.568  44.004  49.785  1.00  0.00     0.333 A 
HETATM    3  O   UNL     1      27.204  43.113  49.256  1.00  0.00    -0.246 OA
HETATM    4  N   UNL     1      25.622  44.779  49.104  1.00  0.00    -0.292 N 
HETATM    5  C   UNL     1      25.044  45.670  49.966  1.00  0.00     0.146 A 
HETATM    6  C   UNL     1      25.610  45.513  51.181  1.00  0.00     0.126 A 
HETATM    7  H   UNL     1      25.408  44.606  48.132  1.00  0.00     0.172 HD
ENDROOT
BRANCH   5   8
HETATM    8  N   UNL     1      24.098  46.611  49.545  1.00  0.00    -0.317 N 
HETATM    9  C   UNL     1      24.389  47.932  49.633  1.00  0.00     0.099 A 
HETATM   10  C   UNL     1      23.465  48.902  49.250  1.00  0.00     0.030 A 
HETATM   11  C   UNL     1      22.217  48.530  48.748  1.00  0.00    -0.023 A 
HETATM   12  C   UNL     1      21.959  47.164  48.622  1.00  0.00     0.030 A 
HETATM   13  C   UNL     1      22.909  46.225  49.018  1.00  0.00     0.099 A 
BRANCH  11  14
HETATM   14  C   UNL     1      21.205  49.536  48.384  1.00  0.00    -0.023 A 
HETATM   15  C   UNL     1      21.196  50.809  48.970  1.00  0.00     0.031 A 
HETATM   16  C   UNL     1      20.213  51.715  48.600  1.00  0.00     0.117 A 
HETATM   17  N   UNL     1      19.249  51.442  47.701  1.00  0.00    -0.273 NA
HETATM   18  C   UNL     1      19.263  50.218  47.141  1.00  0.00     0.117 A 
HETATM   19  C   UNL     1      20.205  49.247  47.445  1.00  0.00     0.031 A 
ENDBRANCH  11  14
ENDBRANCH   5   8
BRANCH   6  20
HETATM   20  C   UNL     1      25.462  46.448  52.311  1.00  0.00     0.292 C 
HETATM   21  O   UNL     1      26.135  47.468  52.407  1.00  0.00    -0.300 OA
ENDBRANCH   6  20
BRANCH   1  22
HETATM   22  C   UNL     1      27.335  43.911  52.168  1.00  0.00     0.044 A 
HETATM   23  C   UNL     1      26.748  43.512  53.377  1.00  0.00     0.030 A 
HETATM   24  C   UNL     1      27.513  42.930  54.393  1.00  0.00     0.002 A 
HETATM   25  C   UNL     1      28.882  42.751  54.224  1.00  0.00     0.000 A 
HETATM   26  C   UNL     1      29.487  43.166  53.043  1.00  0.00     0.002 A 
HETATM   27  C   UNL     1      28.722  43.746  52.026  1.00  0.00     0.030 A 
ENDBRANCH   1  22
TORSDOF 4
ENDMDL
MODEL 5
REMARK VINA RESULT:      -8.0      5.150      8.260
REMARK  4 active torsions:
REMARK  status: ('A' for Active; 'I' for Inactive)
REMARK    1  A    between atoms: C_4  and  N_5 
REMARK    2  A    between atoms: C_9  and  N_10 
REMARK    3  A    between atoms: C_13  and  C_14 
REMARK    4  A    between atoms: C_22  and  C_23 
ROOT
HETATM    1  N   UNL     1      29.145  44.102  54.157  1.00  0.00    -0.258 N 
HETATM    2  C   UNL     1      29.630  43.295  53.085  1.00  0.00     0.333 A 
HETATM    3  O   UNL     1      30.643  42.633  52.971  1.00  0.00    -0.246 OA
HETATM    4  N   UNL     1      28.644  43.365  52.095  1.00  0.00    -0.292 N 
HETATM    5  C   UNL     1      27.610  44.153  52.522  1.00  0.00     0.146 A 
HETATM    6  C   UNL     1      27.913  44.619  53.752  1.00  0.00     0.126 A 
HETATM    7  H   UNL     1      28.725  42.835  51.239  1.00  0.00     0.172 HD
ENDROOT
BRANCH   5   8
HETATM    8  N   UNL     1      26.508  44.443  51.713  1.00  0.00    -0.317 N 
HETATM    9  C   UNL     1      26.616  45.401  50.759  1.00  0.00     0.099 A 
HETATM   10  C   UNL     1      25.534  45.740  49.950  1.00  0.00     0.030 A 
HETATM   11  C   UNL     1      24.311  45.083  50.093  1.00  0.00    -0.023 A 
HETATM   12  C   UNL     1      24.238  44.068  51.048  1.00  0.00     0.030 A 
HETATM   13  C   UNL     1      25.342  43.760  51.839  1.00  0.00     0.099 A 
BRANCH  11  14
HETATM   14  C   UNL     1      23.139  45.458  49.284  1.00  0.00    -0.023 A 
HETATM   15  C   UNL     1      22.958  46.769  48.824  1.00  0.00     0.031 A 
HETATM   16  C   UNL     1      21.829  47.071  48.076  1.00  0.00     0.117 A 
HETATM   17  N   UNL     1      20.880  46.170  47.761  1.00  0.00    -0.273 NA
HETATM   18  C   UNL     1      21.060  44.912  48.206  1.00  0.00     0.117 A 
HETATM   19  C   UNL     1      22.156  44.514  48.958  1.00  0.00     0.031 A 
ENDBRANCH  11  14
ENDBRANCH   5   8
BRANCH   6  20
HETATM   20  C   UNL     1      27.195  45.702  54.448  1.00  0.00     0.292 C 
HETATM   21  O   UNL     1      27.258  46.869  54.078  1.00  0.00    -0.300 OA
ENDBRANCH   6  20
BRANCH   1  22
HETATM   22  C   UNL     1      29.836  44.252  55.391  1.00  0.00     0.044 A 
HETATM   23  C   UNL     1      30.670  43.234  55.874  1.00  0.00     0.030 A 
HETATM   24  C   UNL     1      31.372  43.385  57.074  1.00  0.00     0.002 A 
HETATM   25  C   UNL     1      31.240  44.552  57.821  1.00  0.00     0.000 A 
HETATM   26  C   UNL     1      30.396  45.561  57.372  1.00  0.00     0.002 A 
HETATM   27  C   UNL     1      29.695  45.411  56.171  1.00  0.00     0.030 A 
ENDBRANCH   1  22
TORSDOF 4
ENDMDL
MODEL 6
REMARK VINA RESULT:      -7.9     16.418     18.082
REMARK  4 active torsions:
REMARK  status: ('A' for Active; 'I' for Inactive)
REMARK    1  A    between atoms: C_4  and  N_5 
REMARK    2  A    between atoms: C_9  and  N_10 
REMARK    3  A    between atoms: C_13  and  C_14 
REMARK    4  A    between atoms: C_22  and  C_23 
ROOT
HETATM    1  N   UNL     1      37.746  42.610  64.760  1.00  0.00    -0.258 N 
HETATM    2  C   UNL     1      36.418  42.552  65.279  1.00  0.00     0.333 A 
HETATM    3  O   UNL     1      35.615  41.641  65.335  1.00  0.00    -0.246 OA
HETATM    4  N   UNL     1      36.167  43.828  65.795  1.00  0.00    -0.292 N 
HETATM    5  C   UNL     1      37.265  44.625  65.620  1.00  0.00     0.146 A 
HETATM    6  C   UNL     1      38.211  43.908  64.977  1.00  0.00     0.126 A 
HETATM    7  H   UNL     1      35.300  44.038  66.269  1.00  0.00     0.172 HD
ENDROOT
BRANCH   5   8
HETATM    8  N   UNL     1      37.278  45.972  65.994  1.00  0.00    -0.317 N 
HETATM    9  C   UNL     1      36.697  46.893  65.186  1.00  0.00     0.099 A 
HETATM   10  C   UNL     1      36.711  48.248  65.508  1.00  0.00     0.030 A 
HETATM   11  C   UNL     1      37.314  48.688  66.687  1.00  0.00    -0.023 A 
HETATM   12  C   UNL     1      37.863  47.717  67.526  1.00  0.00     0.030 A 
HETATM   13  C   UNL     1      37.830  46.372  67.167  1.00  0.00     0.099 A 
BRANCH  11  14
HETATM   14  C   UNL     1      37.386  50.120  67.024  1.00  0.00    -0.023 A 
HETATM   15  C   UNL     1      37.768  51.076  66.075  1.00  0.00     0.031 A 
HETATM   16  C   UNL     1      37.832  52.411  66.449  1.00  0.00     0.117 A 
HETATM   17  N   UNL     1      37.547  52.852  67.689  1.00  0.00    -0.273 NA
HETATM   18  C   UNL     1      37.180  51.928  68.597  1.00  0.00     0.117 A 
HETATM   19  C   UNL     1      37.087  50.573  68.317  1.00  0.00     0.031 A 
ENDBRANCH  11  14
ENDBRANCH   5   8
BRANCH   6  20
HETATM   20  C   UNL     1      39.430  44.469  64.367  1.00  0.00     0.292 C 
HETATM   21  O   UNL     1      39.489  44.765  63.180  1.00  0.00    -0.300 OA
ENDBRANCH   6  20
BRANCH   1  22
HETATM   22  C   UNL     1      38.406  41.488  64.188  1.00  0.00     0.044 A 
HETATM   23  C   UNL     1      38.864  40.437  64.997  1.00  0.00     0.030 A 
HETATM   24  C   UNL     1      39.493  39.319  64.440  1.00  0.00     0.002 A 
HETATM   25  C   UNL     1      39.690  39.240  63.065  1.00  0.00     0.000 A 
HETATM   26  C   UNL     1      39.268  40.284  62.249  1.00  0.00     0.002 A 
HETATM   27  C   UNL     1      38.637  41.401  62.806  1.00  0.00     0.030 A 
ENDBRANCH   1  22
TORSDOF 4
ENDMDL
MODEL 7
REMARK VINA RESULT:      -7.8      1.528      2.622
REMARK  4 active torsions:
REMARK  status: ('A' for Active; 'I' for Inactive)
REMARK    1  A    between atoms: C_4  and  N_5 
REMARK    2  A    between atoms: C_9  and  N_10 
REMARK    3  A    between atoms: C_13  and  C_14 
REMARK    4  A    between atoms: C_22  and  C_23 
ROOT
HETATM    1  N   UNL     1      27.060  39.241  48.895  1.00  0.00    -0.258 N 
HETATM    2  C   UNL     1      26.001  40.190  48.780  1.00  0.00     0.333 A 
HETATM    3  O   UNL     1      25.060  40.256  48.013  1.00  0.00    -0.246 OA
HETATM    4  N   UNL     1      26.217  41.111  49.811  1.00  0.00    -0.292 N 
HETATM    5  C   UNL     1      27.327  40.757  50.527  1.00  0.00     0.146 A 
HETATM    6  C   UNL     1      27.854  39.647  49.969  1.00  0.00     0.126 A 
HETATM    7  H   UNL     1      25.568  41.867  49.979  1.00  0.00     0.172 HD
ENDROOT
BRANCH   5   8
HETATM    8  N   UNL     1      27.811  41.530  51.587  1.00  0.00    -0.317 N 
HETATM    9  C   UNL     1      27.999  42.861  51.409  1.00  0.00     0.099 A 
HETATM   10  C   UNL     1      28.504  43.662  52.430  1.00  0.00     0.030 A 
HETATM   11  C   UNL     1      28.814  43.110  53.674  1.00  0.00    -0.023 A 
HETATM   12  C   UNL     1      28.566  41.748  53.849  1.00  0.00     0.030 A 
HETATM   13  C   UNL     1      28.061  40.980  52.802  1.00  0.00     0.099 A 
BRANCH  11  14
HETATM   14  C   UNL     1      29.396  43.927  54.752  1.00  0.00    -0.023 A 
HETATM   15  C   UNL     1      28.836  45.156  55.123  1.00  0.00     0.031 A 
HETATM   16  C   UNL     1      29.432  45.891  56.137  1.00  0.00     0.117 A 
HETATM   17  N   UNL     1      30.536  45.492  56.797  1.00  0.00    -0.273 NA
HETATM   18  C   UNL     1      31.070  44.310  56.436  1.00  0.00     0.117 A 
HETATM   19  C   UNL     1      30.545  43.505  55.436  1.00  0.00     0.031 A 
ENDBRANCH  11  14
ENDBRANCH   5   8
BRANCH   6  20
HETATM   20  C   UNL     1      29.190  39.100  50.271  1.00  0.00     0.292 C 
HETATM   21  O   UNL     1      29.347  37.970  50.717  1.00  0.00    -0.300 OA
ENDBRANCH   6  20
BRANCH   1  22
HETATM   22  C   UNL     1      27.176  38.099  48.056  1.00  0.00     0.044 A 
HETATM   23  C   UNL     1      26.512  36.905  48.374  1.00  0.00     0.030 A 
HETATM   24  C   UNL     1      26.601  35.786  47.541  1.00  0.00     0.002 A 
HETATM   25  C   UNL     1      27.369  35.835  46.382  1.00  0.00     0.000 A 
HETATM   26  C   UNL     1      28.057  37.000  46.064  1.00  0.00     0.002 A 
HETATM   27  C   UNL     1      27.967  38.121  46.896  1.00  0.00     0.030 A 
ENDBRANCH   1  22
TORSDOF 4
ENDMDL
MODEL 8
REMARK VINA RESULT:      -7.8      3.903      8.921
REMARK  4 active torsions:
REMARK  status: ('A' for Active; 'I' for Inactive)
REMARK    1  A    between atoms: C_4  and  N_5 
REMARK    2  A    between atoms: C_9  and  N_10 
REMARK    3  A    between atoms: C_13  and  C_14 
REMARK    4  A    between atoms: C_22  and  C_23 
ROOT
HETATM    1  N   UNL     1      28.669  45.052  54.932  1.00  0.00    -0.258 N 
HETATM    2  C   UNL     1      27.985  46.277  54.672  1.00  0.00     0.333 A 
HETATM    3  O   UNL     1      28.026  47.355  55.231  1.00  0.00    -0.246 OA
HETATM    4  N   UNL     1      27.200  46.029  53.540  1.00  0.00    -0.292 N 
HETATM    5  C   UNL     1      27.390  44.742  53.116  1.00  0.00     0.146 A 
HETATM    6  C   UNL     1      28.253  44.140  53.960  1.00  0.00     0.126 A 
HETATM    7  H   UNL     1      26.648  46.761  53.117  1.00  0.00     0.172 HD
ENDROOT
BRANCH   5   8
HETATM    8  N   UNL     1      26.690  44.203  52.032  1.00  0.00    -0.317 N 
HETATM    9  C   UNL     1      25.398  43.827  52.194  1.00  0.00     0.099 A 
HETATM   10  C   UNL     1      24.673  43.260  51.148  1.00  0.00     0.030 A 
HETATM   11  C   UNL     1      25.262  43.082  49.895  1.00  0.00    -0.023 A 
HETATM   12  C   UNL     1      26.578  43.520  49.739  1.00  0.00     0.030 A 
HETATM   13  C   UNL     1      27.269  44.081  50.811  1.00  0.00     0.099 A 
BRANCH  11  14
HETATM   14  C   UNL     1      24.534  42.439  48.789  1.00  0.00    -0.023 A 
HETATM   15  C   UNL     1      24.741  41.092  48.461  1.00  0.00     0.031 A 
HETATM   16  C   UNL     1      24.037  40.540  47.401  1.00  0.00     0.117 A 
HETATM   17  N   UNL     1      23.154  41.228  46.653  1.00  0.00    -0.273 NA
HETATM   18  C   UNL     1      22.959  42.521  46.973  1.00  0.00     0.117 A 
HETATM   19  C   UNL     1      23.614  43.160  48.015  1.00  0.00     0.031 A 
ENDBRANCH  11  14
ENDBRANCH   5   8
BRANCH   6  20
HETATM   20  C   UNL     1      28.514  42.690  54.013  1.00  0.00     0.292 C 
HETATM   21  O   UNL     1      29.235  42.127  53.198  1.00  0.00    -0.300 OA
ENDBRANCH   6  20
BRANCH   1  22
HETATM   22  C   UNL     1      29.616  44.898  55.981  1.00  0.00     0.044 A 
HETATM   23  C   UNL     1      29.511  45.653  57.158  1.00  0.00     0.030 A 
HETATM   24  C   UNL     1      30.425  45.489  58.204  1.00  0.00     0.002 A 
HETATM   25  C   UNL     1      31.470  44.579  58.084  1.00  0.00     0.000 A 
HETATM   26  C   UNL     1      31.608  43.841  56.914  1.00  0.00     0.002 A 
HETATM   27  C   UNL     1      30.693  44.003  55.869  1.00  0.00     0.030 A 
ENDBRANCH   1  22
TORSDOF 4
ENDMDL
MODEL 9
REMARK VINA RESULT:      -7.5     14.677     15.591
REMARK  4 active torsions:
REMARK  status: ('A' for Active; 'I' for Inactive)
REMARK    1  A    between atoms: C_4  and  N_5 
REMARK    2  A    between atoms: C_9  and  N_10 
REMARK    3  A    between atoms: C_13  and  C_14 
REMARK    4  A    between atoms: C_22  and  C_23 
ROOT
HETATM    1  N   UNL     1      31.915  49.409  41.098  1.00  0.00    -0.258 N 
HETATM    2  C   UNL     1      32.887  48.378  41.262  1.00  0.00     0.333 A 
HETATM    3  O   UNL     1      32.843  47.185  41.030  1.00  0.00    -0.246 OA
HETATM    4  N   UNL     1      34.029  49.022  41.752  1.00  0.00    -0.292 N 
HETATM    5  C   UNL     1      33.790  50.363  41.876  1.00  0.00     0.146 A 
HETATM    6  C   UNL     1      32.514  50.602  41.507  1.00  0.00     0.126 A 
HETATM    7  H   UNL     1      34.888  48.514  41.909  1.00  0.00     0.172 HD
ENDROOT
BRANCH   5   8
HETATM    8  N   UNL     1      34.741  51.247  42.394  1.00  0.00    -0.317 N 
HETATM    9  C   UNL     1      34.616  51.686  43.671  1.00  0.00     0.099 A 
HETATM   10  C   UNL     1      35.526  52.588  44.218  1.00  0.00     0.030 A 
HETATM   11  C   UNL     1      36.605  53.049  43.461  1.00  0.00    -0.023 A 
HETATM   12  C   UNL     1      36.740  52.546  42.166  1.00  0.00     0.030 A 
HETATM   13  C   UNL     1      35.807  51.647  41.656  1.00  0.00     0.099 A 
BRANCH  11  14
HETATM   14  C   UNL     1      37.551  54.041  43.999  1.00  0.00    -0.023 A 
HETATM   15  C   UNL     1      37.679  54.257  45.378  1.00  0.00     0.031 A 
HETATM   16  C   UNL     1      38.576  55.212  45.831  1.00  0.00     0.117 A 
HETATM   17  N   UNL     1      39.344  55.960  45.015  1.00  0.00    -0.273 NA
HETATM   18  C   UNL     1      39.217  55.747  43.692  1.00  0.00     0.117 A 
HETATM   19  C   UNL     1      38.349  54.815  43.145  1.00  0.00     0.031 A 
ENDBRANCH  11  14
ENDBRANCH   5   8
BRANCH   6  20
HETATM   20  C   UNL     1      31.785  51.861  41.745  1.00  0.00     0.292 C 
HETATM   21  O   UNL     1      32.018  52.880  41.106  1.00  0.00    -0.300 OA
ENDBRANCH   6  20
BRANCH   1  22
HETATM   22  C   UNL     1      30.617  49.176  40.565  1.00  0.00     0.044 A 
HETATM   23  C   UNL     1      30.336  49.452  39.219  1.00  0.00     0.030 A 
HETATM   24  C   UNL     1      29.069  49.203  38.681  1.00  0.00     0.002 A 
HETATM   25  C   UNL     1      28.057  48.686  39.484  1.00  0.00     0.000 A 
HETATM   26  C   UNL     1      28.309  48.432  40.827  1.00  0.00     0.002 A 
HETATM   27  C   UNL     1      29.576  48.679  41.365  1.00  0.00     0.030 A 
ENDBRANCH   1  22
TORSDOF 4
ENDMDL
MODEL 10
REMARK VINA RESULT:      -7.5      5.296      8.554
REMARK  4 active torsions:
REMARK  status: ('A' for Active; 'I' for Inactive)
REMARK    1  A    between atoms: C_4  and  N_5 
REMARK    2  A    between atoms: C_9  and  N_10 
REMARK    3  A    between atoms: C_13  and  C_14 
REMARK    4  A    between atoms: C_22  and  C_23 
ROOT
HETATM    1  N   UNL     1      26.991  44.141  53.669  1.00  0.00    -0.258 N 
HETATM    2  C   UNL     1      25.745  43.887  54.316  1.00  0.00     0.333 A 
HETATM    3  O   UNL     1      25.483  43.563  55.458  1.00  0.00    -0.246 OA
HETATM    4  N   UNL     1      24.768  44.123  53.342  1.00  0.00    -0.292 N 
HETATM    5  C   UNL     1      25.362  44.507  52.171  1.00  0.00     0.146 A 
HETATM    6  C   UNL     1      26.700  44.498  52.351  1.00  0.00     0.126 A 
HETATM    7  H   UNL     1      23.785  44.059  53.563  1.00  0.00     0.172 HD
ENDROOT
BRANCH   5   8
HETATM    8  N   UNL     1      24.628  44.758  51.008  1.00  0.00    -0.317 N 
HETATM    9  C   UNL     1      24.515  46.029  50.552  1.00  0.00     0.099 A 
HETATM   10  C   UNL     1      23.771  46.326  49.413  1.00  0.00     0.030 A 
HETATM   11  C   UNL     1      23.134  45.308  48.700  1.00  0.00    -0.023 A 
HETATM   12  C   UNL     1      23.304  44.002  49.161  1.00  0.00     0.030 A 
HETATM   13  C   UNL     1      24.055  43.747  50.306  1.00  0.00     0.099 A 
BRANCH  11  14
HETATM   14  C   UNL     1      22.300  45.602  47.523  1.00  0.00    -0.023 A 
HETATM   15  C   UNL     1      22.362  44.813  46.367  1.00  0.00     0.031 A 
HETATM   16  C   UNL     1      21.564  45.142  45.282  1.00  0.00     0.117 A 
HETATM   17  N   UNL     1      20.720  46.191  45.268  1.00  0.00    -0.273 NA
HETATM   18  C   UNL     1      20.664  46.945  46.382  1.00  0.00     0.117 A 
HETATM   19  C   UNL     1      21.422  46.695  47.515  1.00  0.00     0.031 A 
ENDBRANCH  11  14
ENDBRANCH   5   8
BRANCH   6  20
HETATM   20  C   UNL     1      27.700  44.590  51.272  1.00  0.00     0.292 C 
HETATM   21  O   UNL     1      27.604  43.942  50.236  1.00  0.00    -0.300 OA
ENDBRANCH   6  20
BRANCH   1  22
HETATM   22  C   UNL     1      28.244  44.064  54.337  1.00  0.00     0.044 A 
HETATM   23  C   UNL     1      29.064  42.935  54.195  1.00  0.00     0.030 A 
HETATM   24  C   UNL     1      30.309  42.863  54.829  1.00  0.00     0.002 A 
HETATM   25  C   UNL     1      30.748  43.913  55.630  1.00  0.00     0.000 A 
HETATM   26  C   UNL     1      29.937  45.028  55.806  1.00  0.00     0.002 A 
HETATM   27  C   UNL     1      28.693  45.101  55.170  1.00  0.00     0.030 A 
ENDBRANCH   1  22
TORSDOF 4
ENDMDL
