MODEL 1
REMARK VINA RESULT:      -8.3      0.000      0.000
REMARK  3 active torsions:
REMARK  status: ('A' for Active; 'I' for Inactive)
REMARK    1  A    between atoms: C_2  and  C_3 
REMARK    2  A    between atoms: C_10  and  C_12 
REMARK    3  A    between atoms: C_10  and  O_11 
ROOT
HETATM    1  C   UNL     1      29.037  43.342  54.382  1.00  0.00    -0.058 A 
HETATM    2  C   UNL     1      27.778  43.830  53.997  1.00  0.00     0.020 A 
HETATM    3  C   UNL     1      27.415  45.110  54.388  1.00  0.00     0.018 A 
HETATM    4  C   UNL     1      28.278  45.881  55.169  1.00  0.00     0.045 A 
HETATM    5  N   UNL     1      27.719  47.124  55.427  1.00  0.00    -0.323 N 
HETATM    6  C   UNL     1      26.467  47.258  54.824  1.00  0.00     0.266 A 
HETATM    7  O   UNL     1      25.768  48.256  54.909  1.00  0.00    -0.269 OA
HETATM    8  C   UNL     1      26.146  45.890  54.119  1.00  0.00     0.198 A 
HETATM    9  C   UNL     1      29.514  45.428  55.575  1.00  0.00     0.031 A 
HETATM   10  C   UNL     1      29.894  44.145  55.168  1.00  0.00     0.009 A 
HETATM   11  H   UNL     1      28.148  47.871  55.952  1.00  0.00     0.169 HD
ENDROOT
BRANCH   8  12
HETATM   12  C   UNL     1      25.991  46.012  52.624  1.00  0.00     0.018 A 
HETATM   13  C   UNL     1      25.499  45.039  51.677  1.00  0.00     0.002 A 
HETATM   14  C   UNL     1      25.528  45.630  50.412  1.00  0.00     0.043 A 
HETATM   15  C   UNL     1      25.018  43.714  51.770  1.00  0.00     0.014 A 
HETATM   16  C   UNL     1      25.100  44.974  49.250  1.00  0.00     0.030 A 
HETATM   17  N   UNL     1      26.037  46.896  50.565  1.00  0.00    -0.365 N 
HETATM   18  C   UNL     1      24.623  43.668  49.378  1.00  0.00     0.002 A 
HETATM   19  C   UNL     1      24.583  43.044  50.620  1.00  0.00     0.001 A 
HETATM   20  H   UNL     1      26.184  47.550  49.809  1.00  0.00     0.165 HD
HETATM   21  C   UNL     1      26.311  47.138  51.879  1.00  0.00     0.100 A 
ENDBRANCH   8  12
BRANCH   8  22
HETATM   22  O   UNL     1      25.050  45.217  54.735  1.00  0.00    -0.371 OA
HETATM   23  H   UNL     1      24.566  45.889  55.243  1.00  0.00     0.212 HD
ENDBRANCH   8  22
BRANCH   1  24
HETATM   24  C   UNL     1      29.489  41.979  53.916  1.00  0.00     0.034 C 
HETATM   25  C   UNL     1      28.339  41.179  53.324  1.00  0.00     0.010 C 
ENDBRANCH   1  24
TORSDOF 3
ENDMDL
MODEL 2
REMARK VINA RESULT:      -8.0     12.635     14.663
REMARK  3 active torsions:
REMARK  status: ('A' for Active; 'I' for Inactive)
REMARK    1  A    between atoms: C_2  and  C_3 
REMARK    2  A    between atoms: C_10  and  C_12 
REMARK    3  A    between atoms: C_10  and  O_11 
ROOT
HETATM    1  C   UNL     1      32.936  51.565  42.080  1.00  0.00    -0.058 A 
HETATM    2  C   UNL     1      31.567  51.738  41.821  1.00  0.00     0.020 A 
HETATM    3  C   UNL     1      31.140  51.771  40.502  1.00  0.00     0.018 A 
HETATM    4  C   UNL     1      32.061  51.656  39.459  1.00  0.00     0.045 A 
HETATM    5  N   UNL     1      31.414  51.699  38.233  1.00  0.00    -0.323 N 
HETATM    6  C   UNL     1      30.032  51.827  38.388  1.00  0.00     0.266 A 
HETATM    7  O   UNL     1      29.241  51.895  37.459  1.00  0.00    -0.269 OA
HETATM    8  C   UNL     1      29.748  51.935  39.930  1.00  0.00     0.198 A 
HETATM    9  C   UNL     1      33.412  51.498  39.677  1.00  0.00     0.031 A 
HETATM   10  C   UNL     1      33.847  51.446  41.005  1.00  0.00     0.009 A 
HETATM   11  H   UNL     1      31.851  51.619  37.327  1.00  0.00     0.169 HD
ENDROOT
BRANCH   8  12
HETATM   12  C   UNL     1      28.898  50.809  40.460  1.00  0.00     0.018 A 
HETATM   13  C   UNL     1      29.022  49.388  40.232  1.00  0.00     0.002 A 
HETATM   14  C   UNL     1      28.009  48.755  40.956  1.00  0.00     0.043 A 
HETATM   15  C   UNL     1      29.906  48.573  39.491  1.00  0.00     0.014 A 
HETATM   16  C   UNL     1      27.841  47.364  40.981  1.00  0.00     0.030 A 
HETATM   17  N   UNL     1      27.279  49.736  41.579  1.00  0.00    -0.365 N 
HETATM   18  C   UNL     1      28.736  46.587  40.243  1.00  0.00     0.002 A 
HETATM   19  C   UNL     1      29.755  47.180  39.506  1.00  0.00     0.001 A 
HETATM   20  H   UNL     1      26.471  49.567  42.162  1.00  0.00     0.165 HD
HETATM   21  C   UNL     1      27.801  50.964  41.296  1.00  0.00     0.100 A 
ENDBRANCH   8  12
BRANCH   8  22
HETATM   22  O   UNL     1      29.249  53.222  40.291  1.00  0.00    -0.371 OA
HETATM   23  H   UNL     1      28.935  53.635  39.471  1.00  0.00     0.212 HD
ENDBRANCH   8  22
BRANCH   1  24
HETATM   24  C   UNL     1      33.424  51.458  43.504  1.00  0.00     0.034 C 
HETATM   25  C   UNL     1      32.372  51.935  44.494  1.00  0.00     0.010 C 
ENDBRANCH   1  24
TORSDOF 3
ENDMDL
MODEL 3
REMARK VINA RESULT:      -7.7      1.902      3.842
REMARK  3 active torsions:
REMARK  status: ('A' for Active; 'I' for Inactive)
REMARK    1  A    between atoms: C_2  and  C_3 
REMARK    2  A    between atoms: C_10  and  C_12 
REMARK    3  A    between atoms: C_10  and  O_11 
ROOT
HETATM    1  C   UNL     1      28.414  45.851  55.136  1.00  0.00    -0.058 A 
HETATM    2  C   UNL     1      27.637  44.869  54.501  1.00  0.00     0.020 A 
HETATM    3  C   UNL     1      26.655  45.274  53.609  1.00  0.00     0.018 A 
HETATM    4  C   UNL     1      26.434  46.632  53.371  1.00  0.00     0.045 A 
HETATM    5  N   UNL     1      25.422  46.803  52.439  1.00  0.00    -0.323 N 
HETATM    6  C   UNL     1      24.924  45.577  51.992  1.00  0.00     0.266 A 
HETATM    7  O   UNL     1      24.023  45.459  51.176  1.00  0.00    -0.269 OA
HETATM    8  C   UNL     1      25.685  44.454  52.785  1.00  0.00     0.198 A 
HETATM    9  C   UNL     1      27.170  47.621  53.987  1.00  0.00     0.031 A 
HETATM   10  C   UNL     1      28.173  47.219  54.873  1.00  0.00     0.009 A 
HETATM   11  H   UNL     1      25.085  47.685  52.082  1.00  0.00     0.169 HD
ENDROOT
BRANCH   8  12
HETATM   12  C   UNL     1      26.493  43.541  51.899  1.00  0.00     0.018 A 
HETATM   13  C   UNL     1      27.323  42.416  52.263  1.00  0.00     0.002 A 
HETATM   14  C   UNL     1      27.848  41.880  51.085  1.00  0.00     0.043 A 
HETATM   15  C   UNL     1      27.671  41.790  53.480  1.00  0.00     0.014 A 
HETATM   16  C   UNL     1      28.687  40.759  51.062  1.00  0.00     0.030 A 
HETATM   17  N   UNL     1      27.387  42.650  50.046  1.00  0.00    -0.365 N 
HETATM   18  C   UNL     1      29.006  40.159  52.282  1.00  0.00     0.002 A 
HETATM   19  C   UNL     1      28.507  40.666  53.477  1.00  0.00     0.001 A 
HETATM   20  H   UNL     1      27.620  42.500  49.074  1.00  0.00     0.165 HD
HETATM   21  C   UNL     1      26.575  43.640  50.517  1.00  0.00     0.100 A 
ENDBRANCH   8  12
BRANCH   8  22
HETATM   22  O   UNL     1      24.818  43.742  53.666  1.00  0.00    -0.371 OA
HETATM   23  H   UNL     1      25.278  43.686  54.519  1.00  0.00     0.212 HD
ENDBRANCH   8  22
BRANCH   1  24
HETATM   24  C   UNL     1      29.535  45.442  56.060  1.00  0.00     0.034 C 
HETATM   25  C   UNL     1      30.234  44.183  55.569  1.00  0.00     0.010 C 
ENDBRANCH   1  24
TORSDOF 3
ENDMDL
MODEL 4
REMARK VINA RESULT:      -7.7     13.483     15.480
REMARK  3 active torsions:
REMARK  status: ('A' for Active; 'I' for Inactive)
REMARK    1  A    between atoms: C_2  and  C_3 
REMARK    2  A    between atoms: C_10  and  C_12 
REMARK    3  A    between atoms: C_10  and  O_11 
ROOT
HETATM    1  C   UNL     1      28.553  47.975  39.180  1.00  0.00    -0.058 A 
HETATM    2  C   UNL     1      29.426  48.964  38.700  1.00  0.00     0.020 A 
HETATM    3  C   UNL     1      29.150  50.291  38.990  1.00  0.00     0.018 A 
HETATM    4  C   UNL     1      28.012  50.630  39.726  1.00  0.00     0.045 A 
HETATM    5  N   UNL     1      27.944  52.003  39.909  1.00  0.00    -0.323 N 
HETATM    6  C   UNL     1      29.033  52.652  39.325  1.00  0.00     0.266 A 
HETATM    7  O   UNL     1      29.200  53.863  39.342  1.00  0.00    -0.269 OA
HETATM    8  C   UNL     1      29.902  51.550  38.619  1.00  0.00     0.198 A 
HETATM    9  C   UNL     1      27.128  49.686  40.200  1.00  0.00     0.031 A 
HETATM   10  C   UNL     1      27.411  48.344  39.926  1.00  0.00     0.009 A 
HETATM   11  H   UNL     1      27.230  52.499  40.421  1.00  0.00     0.169 HD
ENDROOT
BRANCH   8  12
HETATM   12  C   UNL     1      31.295  51.436  39.184  1.00  0.00     0.018 A 
HETATM   13  C   UNL     1      31.719  51.412  40.565  1.00  0.00     0.002 A 
HETATM   14  C   UNL     1      33.109  51.274  40.577  1.00  0.00     0.043 A 
HETATM   15  C   UNL     1      31.056  51.482  41.810  1.00  0.00     0.014 A 
HETATM   16  C   UNL     1      33.860  51.196  41.757  1.00  0.00     0.030 A 
HETATM   17  N   UNL     1      33.527  51.240  39.270  1.00  0.00    -0.365 N 
HETATM   18  C   UNL     1      33.173  51.260  42.972  1.00  0.00     0.002 A 
HETATM   19  C   UNL     1      31.790  51.402  43.001  1.00  0.00     0.001 A 
HETATM   20  H   UNL     1      34.490  51.160  38.978  1.00  0.00     0.165 HD
HETATM   21  C   UNL     1      32.456  51.331  38.430  1.00  0.00     0.100 A 
ENDBRANCH   8  12
BRANCH   8  22
HETATM   22  O   UNL     1      29.893  51.692  37.199  1.00  0.00    -0.371 OA
HETATM   23  H   UNL     1      28.962  51.778  36.938  1.00  0.00     0.212 HD
ENDBRANCH   8  22
BRANCH   1  24
HETATM   24  C   UNL     1      28.863  46.517  38.938  1.00  0.00     0.034 C 
HETATM   25  C   UNL     1      28.337  45.638  40.064  1.00  0.00     0.010 C 
ENDBRANCH   1  24
TORSDOF 3
ENDMDL
MODEL 5
REMARK VINA RESULT:      -7.5     12.858     14.484
REMARK  3 active torsions:
REMARK  status: ('A' for Active; 'I' for Inactive)
REMARK    1  A    between atoms: C_2  and  C_3 
REMARK    2  A    between atoms: C_10  and  C_12 
REMARK    3  A    between atoms: C_10  and  O_11 
ROOT
HETATM    1  C   UNL     1      30.792  52.127  42.080  1.00  0.00    -0.058 A 
HETATM    2  C   UNL     1      29.940  51.082  41.689  1.00  0.00     0.020 A 
HETATM    3  C   UNL     1      29.152  51.255  40.561  1.00  0.00     0.018 A 
HETATM    4  C   UNL     1      29.195  52.454  39.847  1.00  0.00     0.045 A 
HETATM    5  N   UNL     1      28.343  52.399  38.755  1.00  0.00    -0.323 N 
HETATM    6  C   UNL     1      27.699  51.163  38.669  1.00  0.00     0.266 A 
HETATM    7  O   UNL     1      26.893  50.869  37.799  1.00  0.00    -0.269 OA
HETATM    8  C   UNL     1      28.160  50.316  39.909  1.00  0.00     0.198 A 
HETATM    9  C   UNL     1      30.011  53.503  40.210  1.00  0.00     0.031 A 
HETATM   10  C   UNL     1      30.821  53.328  41.336  1.00  0.00     0.009 A 
HETATM   11  H   UNL     1      28.205  53.129  38.072  1.00  0.00     0.169 HD
ENDROOT
BRANCH   8  12
HETATM   12  C   UNL     1      28.899  49.058  39.531  1.00  0.00     0.018 A 
HETATM   13  C   UNL     1      28.524  47.680  39.749  1.00  0.00     0.002 A 
HETATM   14  C   UNL     1      29.527  46.878  39.201  1.00  0.00     0.043 A 
HETATM   15  C   UNL     1      27.422  47.032  40.349  1.00  0.00     0.014 A 
HETATM   16  C   UNL     1      29.482  45.478  39.216  1.00  0.00     0.030 A 
HETATM   17  N   UNL     1      30.488  47.717  38.691  1.00  0.00    -0.365 N 
HETATM   18  C   UNL     1      28.375  44.868  39.810  1.00  0.00     0.002 A 
HETATM   19  C   UNL     1      27.358  45.633  40.371  1.00  0.00     0.001 A 
HETATM   20  H   UNL     1      31.340  47.409  38.245  1.00  0.00     0.165 HD
HETATM   21  C   UNL     1      30.122  49.018  38.877  1.00  0.00     0.100 A 
ENDBRANCH   8  12
BRANCH   8  22
HETATM   22  O   UNL     1      27.087  50.074  40.818  1.00  0.00    -0.371 OA
HETATM   23  H   UNL     1      26.778  50.944  41.117  1.00  0.00     0.212 HD
ENDBRANCH   8  22
BRANCH   1  24
HETATM   24  C   UNL     1      31.711  51.944  43.263  1.00  0.00     0.034 C 
HETATM   25  C   UNL     1      32.286  50.536  43.315  1.00  0.00     0.010 C 
ENDBRANCH   1  24
TORSDOF 3
ENDMDL
MODEL 6
REMARK VINA RESULT:      -7.4     12.696     14.435
REMARK  3 active torsions:
REMARK  status: ('A' for Active; 'I' for Inactive)
REMARK    1  A    between atoms: C_2  and  C_3 
REMARK    2  A    between atoms: C_10  and  C_12 
REMARK    3  A    between atoms: C_10  and  O_11 
ROOT
HETATM    1  C   UNL     1      30.259  52.349  40.182  1.00  0.00    -0.058 A 
HETATM    2  C   UNL     1      30.137  51.002  39.803  1.00  0.00     0.020 A 
HETATM    3  C   UNL     1      31.037  50.083  40.321  1.00  0.00     0.018 A 
HETATM    4  C   UNL     1      32.054  50.499  41.182  1.00  0.00     0.045 A 
HETATM    5  N   UNL     1      32.821  49.417  41.586  1.00  0.00    -0.323 N 
HETATM    6  C   UNL     1      32.352  48.223  41.035  1.00  0.00     0.266 A 
HETATM    7  O   UNL     1      32.862  47.130  41.232  1.00  0.00    -0.269 OA
HETATM    8  C   UNL     1      31.143  48.589  40.100  1.00  0.00     0.198 A 
HETATM    9  C   UNL     1      32.210  51.814  41.564  1.00  0.00     0.031 A 
HETATM   10  C   UNL     1      31.295  52.743  41.060  1.00  0.00     0.009 A 
HETATM   11  H   UNL     1      33.604  49.448  42.222  1.00  0.00     0.169 HD
ENDROOT
BRANCH   8  12
HETATM   12  C   UNL     1      29.842  47.967  40.537  1.00  0.00     0.018 A 
HETATM   13  C   UNL     1      29.233  46.730  40.105  1.00  0.00     0.002 A 
HETATM   14  C   UNL     1      28.039  46.578  40.815  1.00  0.00     0.043 A 
HETATM   15  C   UNL     1      29.583  45.716  39.187  1.00  0.00     0.014 A 
HETATM   16  C   UNL     1      27.193  45.472  40.660  1.00  0.00     0.030 A 
HETATM   17  N   UNL     1      27.904  47.677  41.627  1.00  0.00    -0.365 N 
HETATM   18  C   UNL     1      27.573  44.483  39.750  1.00  0.00     0.002 A 
HETATM   19  C   UNL     1      28.751  44.602  39.022  1.00  0.00     0.001 A 
HETATM   20  H   UNL     1      27.122  47.840  42.245  1.00  0.00     0.165 HD
HETATM   21  C   UNL     1      28.974  48.509  41.475  1.00  0.00     0.100 A 
ENDBRANCH   8  12
BRANCH   8  22
HETATM   22  O   UNL     1      31.438  48.345  38.726  1.00  0.00    -0.371 OA
HETATM   23  H   UNL     1      30.749  47.745  38.400  1.00  0.00     0.212 HD
ENDBRANCH   8  22
BRANCH   1  24
HETATM   24  C   UNL     1      29.255  53.362  39.689  1.00  0.00     0.034 C 
HETATM   25  C   UNL     1      28.759  53.026  38.290  1.00  0.00     0.010 C 
ENDBRANCH   1  24
TORSDOF 3
ENDMDL
MODEL 7
REMARK VINA RESULT:      -7.4     15.574     17.272
REMARK  3 active torsions:
REMARK  status: ('A' for Active; 'I' for Inactive)
REMARK    1  A    between atoms: C_2  and  C_3 
REMARK    2  A    between atoms: C_10  and  C_12 
REMARK    3  A    between atoms: C_10  and  O_11 
ROOT
HETATM    1  C   UNL     1      35.872  44.330  65.512  1.00  0.00    -0.058 A 
HETATM    2  C   UNL     1      36.945  43.870  64.733  1.00  0.00     0.020 A 
HETATM    3  C   UNL     1      38.051  44.692  64.575  1.00  0.00     0.018 A 
HETATM    4  C   UNL     1      38.078  45.959  65.163  1.00  0.00     0.045 A 
HETATM    5  N   UNL     1      39.279  46.595  64.889  1.00  0.00    -0.323 N 
HETATM    6  C   UNL     1      40.122  45.789  64.120  1.00  0.00     0.266 A 
HETATM    7  O   UNL     1      41.234  46.126  63.740  1.00  0.00    -0.269 OA
HETATM    8  C   UNL     1      39.336  44.465  63.810  1.00  0.00     0.198 A 
HETATM    9  C   UNL     1      37.037  46.445  65.923  1.00  0.00     0.031 A 
HETATM   10  C   UNL     1      35.927  45.614  66.101  1.00  0.00     0.009 A 
HETATM   11  H   UNL     1      39.554  47.510  65.213  1.00  0.00     0.169 HD
ENDROOT
BRANCH   8  12
HETATM   12  C   UNL     1      39.996  43.233  64.377  1.00  0.00     0.018 A 
HETATM   13  C   UNL     1      39.913  41.864  63.924  1.00  0.00     0.002 A 
HETATM   14  C   UNL     1      40.718  41.092  64.765  1.00  0.00     0.043 A 
HETATM   15  C   UNL     1      39.241  41.203  62.872  1.00  0.00     0.014 A 
HETATM   16  C   UNL     1      40.888  39.711  64.605  1.00  0.00     0.030 A 
HETATM   17  N   UNL     1      41.252  41.937  65.707  1.00  0.00    -0.365 N 
HETATM   18  C   UNL     1      40.216  39.090  63.551  1.00  0.00     0.002 A 
HETATM   19  C   UNL     1      39.402  39.823  62.695  1.00  0.00     0.001 A 
HETATM   20  H   UNL     1      41.866  41.647  66.455  1.00  0.00     0.165 HD
HETATM   21  C   UNL     1      40.834  43.216  65.483  1.00  0.00     0.100 A 
ENDBRANCH   8  12
BRANCH   8  22
HETATM   22  O   UNL     1      39.032  44.338  62.421  1.00  0.00    -0.371 OA
HETATM   23  H   UNL     1      39.351  43.463  62.149  1.00  0.00     0.212 HD
ENDBRANCH   8  22
BRANCH   1  24
HETATM   24  C   UNL     1      34.683  43.432  65.758  1.00  0.00     0.034 C 
HETATM   25  C   UNL     1      35.010  41.976  65.463  1.00  0.00     0.010 C 
ENDBRANCH   1  24
TORSDOF 3
ENDMDL
MODEL 8
REMARK VINA RESULT:      -7.4      2.167      5.366
REMARK  3 active torsions:
REMARK  status: ('A' for Active; 'I' for Inactive)
REMARK    1  A    between atoms: C_2  and  C_3 
REMARK    2  A    between atoms: C_10  and  C_12 
REMARK    3  A    between atoms: C_10  and  O_11 
ROOT
HETATM    1  C   UNL     1      25.254  41.742  49.835  1.00  0.00    -0.058 A 
HETATM    2  C   UNL     1      26.085  42.761  50.327  1.00  0.00     0.020 A 
HETATM    3  C   UNL     1      25.544  44.023  50.522  1.00  0.00     0.018 A 
HETATM    4  C   UNL     1      24.206  44.273  50.212  1.00  0.00     0.045 A 
HETATM    5  N   UNL     1      23.879  45.589  50.499  1.00  0.00    -0.323 N 
HETATM    6  C   UNL     1      24.968  46.283  51.030  1.00  0.00     0.266 A 
HETATM    7  O   UNL     1      24.937  47.460  51.357  1.00  0.00    -0.269 OA
HETATM    8  C   UNL     1      26.187  45.292  51.039  1.00  0.00     0.198 A 
HETATM    9  C   UNL     1      23.367  43.299  49.715  1.00  0.00     0.031 A 
HETATM   10  C   UNL     1      23.902  42.021  49.533  1.00  0.00     0.009 A 
HETATM   11  H   UNL     1      22.972  46.015  50.382  1.00  0.00     0.169 HD
ENDROOT
BRANCH   8  12
HETATM   12  C   UNL     1      26.715  45.009  52.423  1.00  0.00     0.018 A 
HETATM   13  C   UNL     1      27.890  44.267  52.816  1.00  0.00     0.002 A 
HETATM   14  C   UNL     1      27.963  44.301  54.210  1.00  0.00     0.043 A 
HETATM   15  C   UNL     1      28.909  43.577  52.122  1.00  0.00     0.014 A 
HETATM   16  C   UNL     1      28.996  43.694  54.937  1.00  0.00     0.030 A 
HETATM   17  N   UNL     1      26.875  45.007  54.659  1.00  0.00    -0.365 N 
HETATM   18  C   UNL     1      29.992  43.027  54.221  1.00  0.00     0.002 A 
HETATM   19  C   UNL     1      29.950  42.966  52.832  1.00  0.00     0.001 A 
HETATM   20  H   UNL     1      26.664  45.179  55.632  1.00  0.00     0.165 HD
HETATM   21  C   UNL     1      26.126  45.439  53.604  1.00  0.00     0.100 A 
ENDBRANCH   8  12
BRANCH   8  22
HETATM   22  O   UNL     1      27.209  45.696  50.130  1.00  0.00    -0.371 OA
HETATM   23  H   UNL     1      26.821  45.650  49.241  1.00  0.00     0.212 HD
ENDBRANCH   8  22
BRANCH   1  24
HETATM   24  C   UNL     1      25.795  40.342  49.675  1.00  0.00     0.034 C 
HETATM   25  C   UNL     1      27.308  40.304  49.839  1.00  0.00     0.010 C 
ENDBRANCH   1  24
TORSDOF 3
ENDMDL
MODEL 9
REMARK VINA RESULT:      -7.3     13.410     15.279
REMARK  3 active torsions:
REMARK  status: ('A' for Active; 'I' for Inactive)
REMARK    1  A    between atoms: C_2  and  C_3 
REMARK    2  A    between atoms: C_10  and  C_12 
REMARK    3  A    between atoms: C_10  and  O_11 
ROOT
HETATM    1  C   UNL     1      35.281  51.586  40.430  1.00  0.00    -0.058 A 
HETATM    2  C   UNL     1      34.245  50.709  40.070  1.00  0.00     0.020 A 
HETATM    3  C   UNL     1      33.409  50.226  41.065  1.00  0.00     0.018 A 
HETATM    4  C   UNL     1      33.614  50.591  42.398  1.00  0.00     0.045 A 
HETATM    5  N   UNL     1      32.656  50.006  43.213  1.00  0.00    -0.323 N 
HETATM    6  C   UNL     1      31.754  49.237  42.474  1.00  0.00     0.266 A 
HETATM    7  O   UNL     1      30.823  48.615  42.963  1.00  0.00    -0.269 OA
HETATM    8  C   UNL     1      32.224  49.288  40.976  1.00  0.00     0.198 A 
HETATM    9  C   UNL     1      34.628  51.438  42.786  1.00  0.00     0.031 A 
HETATM   10  C   UNL     1      35.463  51.943  41.786  1.00  0.00     0.009 A 
HETATM   11  H   UNL     1      32.573  50.126  44.211  1.00  0.00     0.169 HD
ENDROOT
BRANCH   8  12
HETATM   12  C   UNL     1      31.210  49.916  40.054  1.00  0.00     0.018 A 
HETATM   13  C   UNL     1      30.639  51.243  40.095  1.00  0.00     0.002 A 
HETATM   14  C   UNL     1      29.760  51.357  39.016  1.00  0.00     0.043 A 
HETATM   15  C   UNL     1      30.790  52.365  40.939  1.00  0.00     0.014 A 
HETATM   16  C   UNL     1      29.040  52.525  38.736  1.00  0.00     0.030 A 
HETATM   17  N   UNL     1      29.768  50.154  38.354  1.00  0.00    -0.365 N 
HETATM   18  C   UNL     1      29.219  53.620  39.584  1.00  0.00     0.002 A 
HETATM   19  C   UNL     1      30.081  53.543  40.673  1.00  0.00     0.001 A 
HETATM   20  H   UNL     1      29.212  49.945  37.537  1.00  0.00     0.165 HD
HETATM   21  C   UNL     1      30.631  49.289  38.960  1.00  0.00     0.100 A 
ENDBRANCH   8  12
BRANCH   8  22
HETATM   22  O   UNL     1      32.676  48.016  40.515  1.00  0.00    -0.371 OA
HETATM   23  H   UNL     1      31.907  47.423  40.548  1.00  0.00     0.212 HD
ENDBRANCH   8  22
BRANCH   1  24
HETATM   24  C   UNL     1      36.166  52.182  39.363  1.00  0.00     0.034 C 
HETATM   25  C   UNL     1      36.478  53.645  39.645  1.00  0.00     0.010 C 
ENDBRANCH   1  24
TORSDOF 3
ENDMDL
MODEL 10
REMARK VINA RESULT:      -7.3     15.089     17.666
REMARK  3 active torsions:
REMARK  status: ('A' for Active; 'I' for Inactive)
REMARK    1  A    between atoms: C_2  and  C_3 
REMARK    2  A    between atoms: C_10  and  C_12 
REMARK    3  A    between atoms: C_10  and  O_11 
ROOT
HETATM    1  C   UNL     1      39.502  40.956  64.572  1.00  0.00    -0.058 A 
HETATM    2  C   UNL     1      39.660  42.281  64.135  1.00  0.00     0.020 A 
HETATM    3  C   UNL     1      38.544  43.103  64.091  1.00  0.00     0.018 A 
HETATM    4  C   UNL     1      37.289  42.609  64.455  1.00  0.00     0.045 A 
HETATM    5  N   UNL     1      36.328  43.603  64.351  1.00  0.00    -0.323 N 
HETATM    6  C   UNL     1      36.885  44.813  63.931  1.00  0.00     0.266 A 
HETATM    7  O   UNL     1      36.245  45.839  63.755  1.00  0.00    -0.269 OA
HETATM    8  C   UNL     1      38.414  44.553  63.676  1.00  0.00     0.198 A 
HETATM    9  C   UNL     1      37.097  41.312  64.876  1.00  0.00     0.031 A 
HETATM   10  C   UNL     1      38.222  40.483  64.939  1.00  0.00     0.009 A 
HETATM   11  H   UNL     1      35.348  43.508  64.573  1.00  0.00     0.169 HD
ENDROOT
BRANCH   8  12
HETATM   12  C   UNL     1      39.314  45.368  64.569  1.00  0.00     0.018 A 
HETATM   13  C   UNL     1      40.745  45.550  64.500  1.00  0.00     0.002 A 
HETATM   14  C   UNL     1      41.112  46.411  65.537  1.00  0.00     0.043 A 
HETATM   15  C   UNL     1      41.768  45.076  63.649  1.00  0.00     0.014 A 
HETATM   16  C   UNL     1      42.432  46.823  65.758  1.00  0.00     0.030 A 
HETATM   17  N   UNL     1      39.968  46.726  66.228  1.00  0.00    -0.365 N 
HETATM   18  C   UNL     1      43.418  46.343  64.894  1.00  0.00     0.002 A 
HETATM   19  C   UNL     1      43.093  45.479  63.854  1.00  0.00     0.001 A 
HETATM   20  H   UNL     1      39.937  47.325  67.041  1.00  0.00     0.165 HD
HETATM   21  C   UNL     1      38.889  46.116  65.659  1.00  0.00     0.100 A 
ENDBRANCH   8  12
BRANCH   8  22
HETATM   22  O   UNL     1      38.752  44.671  62.295  1.00  0.00    -0.371 OA
HETATM   23  H   UNL     1      38.020  45.147  61.873  1.00  0.00     0.212 HD
ENDBRANCH   8  22
BRANCH   1  24
HETATM   24  C   UNL     1      40.708  40.057  64.694  1.00  0.00     0.034 C 
HETATM   25  C   UNL     1      40.549  38.791  63.864  1.00  0.00     0.010 C 
ENDBRANCH   1  24
TORSDOF 3
ENDMDL
