MODEL 1
REMARK VINA RESULT:      -8.5      0.000      0.000
REMARK  5 active torsions:
REMARK  status: ('A' for Active; 'I' for Inactive)
REMARK    1  A    between atoms: C_8  and  C_9 
REMARK    2  A    between atoms: C_9  and  N_10 
REMARK       I    between atoms: N_10  and  C_11 
REMARK       I    between atoms: C_11  and  N_12 
REMARK    3  A    between atoms: C_13  and  C_14 
REMARK    4  A    between atoms: C_14  and  C_15 
REMARK    5  A    between atoms: C_15  and  C_16 
ROOT
HETATM    1  N   UNL     1      26.155  43.588  51.241  1.00  0.00    -0.339 N 
HETATM    2  C   UNL     1      26.219  42.333  50.706  1.00  0.00     0.318 C 
HETATM    3  N   UNL     1      27.517  41.988  50.315  1.00  0.00    -0.330 N 
HETATM    4  C   UNL     1      28.631  41.841  51.298  1.00  0.00     0.089 C 
HETATM    5  C   UNL     1      28.658  40.389  51.827  1.00  0.00     0.025 C 
HETATM    6  C   UNL     1      28.718  39.369  50.687  1.00  0.00     0.004 C 
HETATM    7  C   UNL     1      27.589  39.593  49.689  1.00  0.00     0.020 C 
HETATM    8  C   UNL     1      27.588  41.040  49.205  1.00  0.00     0.128 C 
HETATM    9  O   UNL     1      25.230  41.642  50.491  1.00  0.00    -0.247 OA
HETATM   10  H   UNL     1      26.895  44.199  50.931  1.00  0.00     0.164 HD
ENDROOT
BRANCH   4  11
HETATM   11  C   UNL     1      28.639  42.861  52.457  1.00  0.00     0.030 C 
BRANCH  11  12
HETATM   12  C   UNL     1      29.093  42.299  53.809  1.00  0.00     0.040 C 
BRANCH  12  13
HETATM   13  C   UNL     1      29.576  43.414  54.709  1.00  0.00    -0.058 A 
HETATM   14  C   UNL     1      30.679  43.212  55.551  1.00  0.00     0.007 A 
HETATM   15  C   UNL     1      31.101  44.221  56.417  1.00  0.00     0.001 A 
HETATM   16  C   UNL     1      30.422  45.437  56.455  1.00  0.00     0.000 A 
HETATM   17  C   UNL     1      29.321  45.646  55.627  1.00  0.00     0.001 A 
HETATM   18  C   UNL     1      28.898  44.639  54.757  1.00  0.00     0.007 A 
ENDBRANCH  12  13
ENDBRANCH  11  12
ENDBRANCH   4  11
BRANCH   1  19
HETATM   19  C   UNL     1      24.911  44.213  51.620  1.00  0.00     0.167 C 
BRANCH  19  20
HETATM   20  C   UNL     1      25.235  45.331  52.548  1.00  0.00     0.009 A 
HETATM   21  C   UNL     1      25.492  46.653  52.225  1.00  0.00     0.034 A 
HETATM   22  C   UNL     1      25.513  47.356  50.922  1.00  0.00     0.070 C 
HETATM   23  N   UNL     1      25.762  47.282  53.406  1.00  0.00    -0.282 N 
HETATM   24  H   UNL     1      25.993  48.257  53.557  1.00  0.00     0.189 HD
HETATM   25  N   UNL     1      25.720  46.470  54.471  1.00  0.00    -0.179 NA
HETATM   26  C   UNL     1      25.398  45.275  53.961  1.00  0.00     0.060 A 
HETATM   27  C   UNL     1      25.275  44.092  54.849  1.00  0.00     0.073 C 
ENDBRANCH  19  20
ENDBRANCH   1  19
TORSDOF 5
ENDMDL
MODEL 2
REMARK VINA RESULT:      -8.4      1.509      2.116
REMARK  5 active torsions:
REMARK  status: ('A' for Active; 'I' for Inactive)
REMARK    1  A    between atoms: C_8  and  C_9 
REMARK    2  A    between atoms: C_9  and  N_10 
REMARK       I    between atoms: N_10  and  C_11 
REMARK       I    between atoms: C_11  and  N_12 
REMARK    3  A    between atoms: C_13  and  C_14 
REMARK    4  A    between atoms: C_14  and  C_15 
REMARK    5  A    between atoms: C_15  and  C_16 
ROOT
HETATM    1  N   UNL     1      26.029  43.872  51.946  1.00  0.00    -0.339 N 
HETATM    2  C   UNL     1      26.385  42.666  51.413  1.00  0.00     0.318 C 
HETATM    3  N   UNL     1      27.767  42.452  51.459  1.00  0.00    -0.330 N 
HETATM    4  C   UNL     1      28.509  42.325  52.749  1.00  0.00     0.089 C 
HETATM    5  C   UNL     1      28.503  40.847  53.199  1.00  0.00     0.025 C 
HETATM    6  C   UNL     1      29.029  39.916  52.104  1.00  0.00     0.004 C 
HETATM    7  C   UNL     1      28.270  40.119  50.799  1.00  0.00     0.020 C 
HETATM    8  C   UNL     1      28.286  41.591  50.399  1.00  0.00     0.128 C 
HETATM    9  O   UNL     1      25.592  41.917  50.856  1.00  0.00    -0.247 OA
HETATM   10  H   UNL     1      26.767  44.559  51.922  1.00  0.00     0.164 HD
ENDROOT
BRANCH   4  11
HETATM   11  C   UNL     1      28.041  43.260  53.885  1.00  0.00     0.030 C 
BRANCH  11  12
HETATM   12  C   UNL     1      28.871  44.537  54.056  1.00  0.00     0.040 C 
BRANCH  12  13
HETATM   13  C   UNL     1      29.743  44.439  55.287  1.00  0.00    -0.058 A 
HETATM   14  C   UNL     1      30.568  43.321  55.479  1.00  0.00     0.007 A 
HETATM   15  C   UNL     1      31.340  43.202  56.635  1.00  0.00     0.001 A 
HETATM   16  C   UNL     1      31.291  44.195  57.611  1.00  0.00     0.000 A 
HETATM   17  C   UNL     1      30.470  45.307  57.433  1.00  0.00     0.001 A 
HETATM   18  C   UNL     1      29.698  45.430  56.276  1.00  0.00     0.007 A 
ENDBRANCH  12  13
ENDBRANCH  11  12
ENDBRANCH   4  11
BRANCH   1  19
HETATM   19  C   UNL     1      24.676  44.370  51.917  1.00  0.00     0.167 C 
BRANCH  19  20
HETATM   20  C   UNL     1      24.695  45.679  51.208  1.00  0.00     0.009 A 
HETATM   21  C   UNL     1      24.217  45.964  49.940  1.00  0.00     0.034 A 
HETATM   22  C   UNL     1      23.551  45.110  48.930  1.00  0.00     0.070 C 
HETATM   23  N   UNL     1      24.484  47.286  49.726  1.00  0.00    -0.282 N 
HETATM   24  H   UNL     1      24.274  47.842  48.905  1.00  0.00     0.189 HD
HETATM   25  N   UNL     1      25.116  47.880  50.748  1.00  0.00    -0.179 NA
HETATM   26  C   UNL     1      25.250  46.910  51.660  1.00  0.00     0.060 A 
HETATM   27  C   UNL     1      25.935  47.186  52.948  1.00  0.00     0.073 C 
ENDBRANCH  19  20
ENDBRANCH   1  19
TORSDOF 5
ENDMDL
MODEL 3
REMARK VINA RESULT:      -8.3      2.272      5.883
REMARK  5 active torsions:
REMARK  status: ('A' for Active; 'I' for Inactive)
REMARK    1  A    between atoms: C_8  and  C_9 
REMARK    2  A    between atoms: C_9  and  N_10 
REMARK       I    between atoms: N_10  and  C_11 
REMARK       I    between atoms: C_11  and  N_12 
REMARK    3  A    between atoms: C_13  and  C_14 
REMARK    4  A    between atoms: C_14  and  C_15 
REMARK    5  A    between atoms: C_15  and  C_16 
ROOT
HETATM    1  N   UNL     1      28.015  40.885  50.079  1.00  0.00    -0.339 N 
HETATM    2  C   UNL     1      27.224  41.863  49.547  1.00  0.00     0.318 C 
HETATM    3  N   UNL     1      26.478  42.532  50.524  1.00  0.00    -0.330 N 
HETATM    4  C   UNL     1      27.122  43.356  51.589  1.00  0.00     0.089 C 
HETATM    5  C   UNL     1      27.306  44.803  51.075  1.00  0.00     0.025 C 
HETATM    6  C   UNL     1      25.992  45.396  50.562  1.00  0.00     0.004 C 
HETATM    7  C   UNL     1      25.354  44.493  49.513  1.00  0.00     0.020 C 
HETATM    8  C   UNL     1      25.206  43.075  50.054  1.00  0.00     0.128 C 
HETATM    9  O   UNL     1      27.101  42.047  48.342  1.00  0.00    -0.247 OA
HETATM   10  H   UNL     1      27.681  40.528  50.961  1.00  0.00     0.164 HD
ENDROOT
BRANCH   4  11
HETATM   11  C   UNL     1      28.439  42.794  52.166  1.00  0.00     0.030 C 
BRANCH  11  12
HETATM   12  C   UNL     1      28.384  42.413  53.650  1.00  0.00     0.040 C 
BRANCH  12  13
HETATM   13  C   UNL     1      29.089  43.455  54.488  1.00  0.00    -0.058 A 
HETATM   14  C   UNL     1      30.313  43.155  55.104  1.00  0.00     0.007 A 
HETATM   15  C   UNL     1      30.946  44.096  55.917  1.00  0.00     0.001 A 
HETATM   16  C   UNL     1      30.360  45.342  56.128  1.00  0.00     0.000 A 
HETATM   17  C   UNL     1      29.140  45.649  55.526  1.00  0.00     0.001 A 
HETATM   18  C   UNL     1      28.506  44.710  54.709  1.00  0.00     0.007 A 
ENDBRANCH  12  13
ENDBRANCH  11  12
ENDBRANCH   4  11
BRANCH   1  19
HETATM   19  C   UNL     1      28.796  39.985  49.266  1.00  0.00     0.167 C 
BRANCH  19  20
HETATM   20  C   UNL     1      28.273  38.609  49.492  1.00  0.00     0.009 A 
HETATM   21  C   UNL     1      28.809  37.620  50.299  1.00  0.00     0.034 A 
HETATM   22  C   UNL     1      30.008  37.608  51.169  1.00  0.00     0.070 C 
HETATM   23  N   UNL     1      27.993  36.535  50.156  1.00  0.00    -0.282 N 
HETATM   24  H   UNL     1      28.076  35.627  50.599  1.00  0.00     0.189 HD
HETATM   25  N   UNL     1      26.978  36.734  49.305  1.00  0.00    -0.179 NA
HETATM   26  C   UNL     1      27.136  37.997  48.892  1.00  0.00     0.060 A 
HETATM   27  C   UNL     1      26.195  38.585  47.906  1.00  0.00     0.073 C 
ENDBRANCH  19  20
ENDBRANCH   1  19
TORSDOF 5
ENDMDL
MODEL 4
REMARK VINA RESULT:      -8.3     12.902     14.554
REMARK  5 active torsions:
REMARK  status: ('A' for Active; 'I' for Inactive)
REMARK    1  A    between atoms: C_8  and  C_9 
REMARK    2  A    between atoms: C_9  and  N_10 
REMARK       I    between atoms: N_10  and  C_11 
REMARK       I    between atoms: C_11  and  N_12 
REMARK    3  A    between atoms: C_13  and  C_14 
REMARK    4  A    between atoms: C_14  and  C_15 
REMARK    5  A    between atoms: C_15  and  C_16 
ROOT
HETATM    1  N   UNL     1      30.186  50.111  38.589  1.00  0.00    -0.339 N 
HETATM    2  C   UNL     1      28.950  49.555  38.762  1.00  0.00     0.318 C 
HETATM    3  N   UNL     1      29.021  48.202  39.111  1.00  0.00    -0.330 N 
HETATM    4  C   UNL     1      29.626  47.744  40.396  1.00  0.00     0.089 C 
HETATM    5  C   UNL     1      28.540  47.727  41.496  1.00  0.00     0.025 C 
HETATM    6  C   UNL     1      27.317  46.908  41.076  1.00  0.00     0.004 C 
HETATM    7  C   UNL     1      26.768  47.386  39.738  1.00  0.00     0.020 C 
HETATM    8  C   UNL     1      27.874  47.403  38.687  1.00  0.00     0.128 C 
HETATM    9  O   UNL     1      27.906  50.151  38.524  1.00  0.00    -0.247 OA
HETATM   10  H   UNL     1      30.901  49.442  38.348  1.00  0.00     0.164 HD
ENDROOT
BRANCH   4  11
HETATM   11  C   UNL     1      30.881  48.515  40.858  1.00  0.00     0.030 C 
BRANCH  11  12
HETATM   12  C   UNL     1      30.772  49.155  42.247  1.00  0.00     0.040 C 
BRANCH  12  13
HETATM   13  C   UNL     1      32.027  49.934  42.569  1.00  0.00    -0.058 A 
HETATM   14  C   UNL     1      32.000  50.941  43.545  1.00  0.00     0.007 A 
HETATM   15  C   UNL     1      33.143  51.695  43.815  1.00  0.00     0.001 A 
HETATM   16  C   UNL     1      34.319  51.456  43.107  1.00  0.00     0.000 A 
HETATM   17  C   UNL     1      34.354  50.463  42.130  1.00  0.00     0.001 A 
HETATM   18  C   UNL     1      33.213  49.704  41.861  1.00  0.00     0.007 A 
ENDBRANCH  12  13
ENDBRANCH  11  12
ENDBRANCH   4  11
BRANCH   1  19
HETATM   19  C   UNL     1      30.376  51.463  38.123  1.00  0.00     0.167 C 
BRANCH  19  20
HETATM   20  C   UNL     1      30.973  52.243  39.242  1.00  0.00     0.009 A 
HETATM   21  C   UNL     1      32.315  52.409  39.538  1.00  0.00     0.034 A 
HETATM   22  C   UNL     1      33.536  51.904  38.867  1.00  0.00     0.070 C 
HETATM   23  N   UNL     1      32.360  53.180  40.664  1.00  0.00    -0.282 N 
HETATM   24  H   UNL     1      33.177  53.504  41.168  1.00  0.00     0.189 HD
HETATM   25  N   UNL     1      31.151  53.513  41.136  1.00  0.00    -0.179 NA
HETATM   26  C   UNL     1      30.295  52.948  40.276  1.00  0.00     0.060 A 
HETATM   27  C   UNL     1      28.831  53.082  40.483  1.00  0.00     0.073 C 
ENDBRANCH  19  20
ENDBRANCH   1  19
TORSDOF 5
ENDMDL
MODEL 5
REMARK VINA RESULT:      -8.2     12.922     14.586
REMARK  5 active torsions:
REMARK  status: ('A' for Active; 'I' for Inactive)
REMARK    1  A    between atoms: C_8  and  C_9 
REMARK    2  A    between atoms: C_9  and  N_10 
REMARK       I    between atoms: N_10  and  C_11 
REMARK       I    between atoms: C_11  and  N_12 
REMARK    3  A    between atoms: C_13  and  C_14 
REMARK    4  A    between atoms: C_14  and  C_15 
REMARK    5  A    between atoms: C_15  and  C_16 
ROOT
HETATM    1  N   UNL     1      30.116  50.059  38.548  1.00  0.00    -0.339 N 
HETATM    2  C   UNL     1      28.867  49.540  38.739  1.00  0.00     0.318 C 
HETATM    3  N   UNL     1      28.902  48.183  39.077  1.00  0.00    -0.330 N 
HETATM    4  C   UNL     1      29.515  47.697  40.349  1.00  0.00     0.089 C 
HETATM    5  C   UNL     1      28.448  47.705  41.467  1.00  0.00     0.025 C 
HETATM    6  C   UNL     1      27.194  46.928  41.064  1.00  0.00     0.004 C 
HETATM    7  C   UNL     1      26.637  47.433  39.738  1.00  0.00     0.020 C 
HETATM    8  C   UNL     1      27.723  47.423  38.668  1.00  0.00     0.128 C 
HETATM    9  O   UNL     1      27.838  50.169  38.524  1.00  0.00    -0.247 OA
HETATM   10  H   UNL     1      30.806  49.370  38.290  1.00  0.00     0.164 HD
ENDROOT
BRANCH   4  11
HETATM   11  C   UNL     1      30.801  48.425  40.794  1.00  0.00     0.030 C 
BRANCH  11  12
HETATM   12  C   UNL     1      30.746  49.034  42.199  1.00  0.00     0.040 C 
BRANCH  12  13
HETATM   13  C   UNL     1      31.979  49.869  42.462  1.00  0.00    -0.058 A 
HETATM   14  C   UNL     1      33.167  49.610  41.763  1.00  0.00     0.007 A 
HETATM   15  C   UNL     1      34.321  50.346  42.033  1.00  0.00     0.001 A 
HETATM   16  C   UNL     1      34.301  51.341  43.007  1.00  0.00     0.000 A 
HETATM   17  C   UNL     1      33.128  51.603  43.712  1.00  0.00     0.001 A 
HETATM   18  C   UNL     1      31.970  50.870  43.441  1.00  0.00     0.007 A 
ENDBRANCH  12  13
ENDBRANCH  11  12
ENDBRANCH   4  11
BRANCH   1  19
HETATM   19  C   UNL     1      30.340  51.408  38.088  1.00  0.00     0.167 C 
BRANCH  19  20
HETATM   20  C   UNL     1      30.957  52.168  39.210  1.00  0.00     0.009 A 
HETATM   21  C   UNL     1      30.315  52.910  40.186  1.00  0.00     0.034 A 
HETATM   22  C   UNL     1      28.877  53.168  40.433  1.00  0.00     0.070 C 
HETATM   23  N   UNL     1      31.302  53.436  40.969  1.00  0.00    -0.282 N 
HETATM   24  H   UNL     1      31.204  54.032  41.782  1.00  0.00     0.189 HD
HETATM   25  N   UNL     1      32.538  53.110  40.568  1.00  0.00    -0.179 NA
HETATM   26  C   UNL     1      32.342  52.335  39.495  1.00  0.00     0.060 A 
HETATM   27  C   UNL     1      33.502  51.785  38.748  1.00  0.00     0.073 C 
ENDBRANCH  19  20
ENDBRANCH   1  19
TORSDOF 5
ENDMDL
MODEL 6
REMARK VINA RESULT:      -8.0      1.476      2.116
REMARK  5 active torsions:
REMARK  status: ('A' for Active; 'I' for Inactive)
REMARK    1  A    between atoms: C_8  and  C_9 
REMARK    2  A    between atoms: C_9  and  N_10 
REMARK       I    between atoms: N_10  and  C_11 
REMARK       I    between atoms: C_11  and  N_12 
REMARK    3  A    between atoms: C_13  and  C_14 
REMARK    4  A    between atoms: C_14  and  C_15 
REMARK    5  A    between atoms: C_15  and  C_16 
ROOT
HETATM    1  N   UNL     1      25.929  43.618  51.200  1.00  0.00    -0.339 N 
HETATM    2  C   UNL     1      26.016  42.447  50.505  1.00  0.00     0.318 C 
HETATM    3  N   UNL     1      27.333  42.139  50.146  1.00  0.00    -0.330 N 
HETATM    4  C   UNL     1      28.385  41.844  51.163  1.00  0.00     0.089 C 
HETATM    5  C   UNL     1      28.372  40.333  51.490  1.00  0.00     0.025 C 
HETATM    6  C   UNL     1      28.492  39.477  50.228  1.00  0.00     0.004 C 
HETATM    7  C   UNL     1      27.426  39.850  49.206  1.00  0.00     0.020 C 
HETATM    8  C   UNL     1      27.463  41.348  48.924  1.00  0.00     0.128 C 
HETATM    9  O   UNL     1      25.037  41.806  50.142  1.00  0.00    -0.247 OA
HETATM   10  H   UNL     1      26.690  44.255  51.019  1.00  0.00     0.164 HD
ENDROOT
BRANCH   4  11
HETATM   11  C   UNL     1      28.332  42.698  52.448  1.00  0.00     0.030 C 
BRANCH  11  12
HETATM   12  C   UNL     1      29.300  42.262  53.554  1.00  0.00     0.040 C 
BRANCH  12  13
HETATM   13  C   UNL     1      29.601  43.421  54.478  1.00  0.00    -0.058 A 
HETATM   14  C   UNL     1      30.677  43.346  55.375  1.00  0.00     0.007 A 
HETATM   15  C   UNL     1      30.932  44.392  56.262  1.00  0.00     0.001 A 
HETATM   16  C   UNL     1      30.112  45.518  56.267  1.00  0.00     0.000 A 
HETATM   17  C   UNL     1      29.036  45.600  55.385  1.00  0.00     0.001 A 
HETATM   18  C   UNL     1      28.780  44.556  54.493  1.00  0.00     0.007 A 
ENDBRANCH  12  13
ENDBRANCH  11  12
ENDBRANCH   4  11
BRANCH   1  19
HETATM   19  C   UNL     1      24.669  44.205  51.588  1.00  0.00     0.167 C 
BRANCH  19  20
HETATM   20  C   UNL     1      24.552  45.516  50.892  1.00  0.00     0.009 A 
HETATM   21  C   UNL     1      25.075  46.735  51.288  1.00  0.00     0.034 A 
HETATM   22  C   UNL     1      25.893  47.115  52.463  1.00  0.00     0.070 C 
HETATM   23  N   UNL     1      24.680  47.638  50.344  1.00  0.00    -0.282 N 
HETATM   24  H   UNL     1      24.879  48.631  50.305  1.00  0.00     0.189 HD
HETATM   25  N   UNL     1      23.923  47.106  49.374  1.00  0.00    -0.179 NA
HETATM   26  C   UNL     1      23.838  45.811  49.696  1.00  0.00     0.060 A 
HETATM   27  C   UNL     1      23.047  44.881  48.852  1.00  0.00     0.073 C 
ENDBRANCH  19  20
ENDBRANCH   1  19
TORSDOF 5
ENDMDL
MODEL 7
REMARK VINA RESULT:      -7.8      6.708     10.030
REMARK  5 active torsions:
REMARK  status: ('A' for Active; 'I' for Inactive)
REMARK    1  A    between atoms: C_8  and  C_9 
REMARK    2  A    between atoms: C_9  and  N_10 
REMARK       I    between atoms: N_10  and  C_11 
REMARK       I    between atoms: C_11  and  N_12 
REMARK    3  A    between atoms: C_13  and  C_14 
REMARK    4  A    between atoms: C_14  and  C_15 
REMARK    5  A    between atoms: C_15  and  C_16 
ROOT
HETATM    1  N   UNL     1      20.244  47.147  49.220  1.00  0.00    -0.339 N 
HETATM    2  C   UNL     1      19.378  48.196  49.092  1.00  0.00     0.318 C 
HETATM    3  N   UNL     1      19.809  49.328  49.791  1.00  0.00    -0.330 N 
HETATM    4  C   UNL     1      21.059  50.059  49.427  1.00  0.00     0.089 C 
HETATM    5  C   UNL     1      20.733  51.131  48.361  1.00  0.00     0.025 C 
HETATM    6  C   UNL     1      19.601  52.056  48.812  1.00  0.00     0.004 C 
HETATM    7  C   UNL     1      18.367  51.258  49.216  1.00  0.00     0.020 C 
HETATM    8  C   UNL     1      18.734  50.204  50.255  1.00  0.00     0.128 C 
HETATM    9  O   UNL     1      18.296  48.108  48.525  1.00  0.00    -0.247 OA
HETATM   10  H   UNL     1      20.808  47.187  50.056  1.00  0.00     0.164 HD
ENDROOT
BRANCH   4  11
HETATM   11  C   UNL     1      22.247  49.176  48.990  1.00  0.00     0.030 C 
BRANCH  11  12
HETATM   12  C   UNL     1      23.299  49.886  48.129  1.00  0.00     0.040 C 
BRANCH  12  13
HETATM   13  C   UNL     1      24.690  49.453  48.532  1.00  0.00    -0.058 A 
HETATM   14  C   UNL     1      24.866  48.366  49.401  1.00  0.00     0.007 A 
HETATM   15  C   UNL     1      26.145  47.989  49.813  1.00  0.00     0.001 A 
HETATM   16  C   UNL     1      27.258  48.699  49.368  1.00  0.00     0.000 A 
HETATM   17  C   UNL     1      27.094  49.785  48.509  1.00  0.00     0.001 A 
HETATM   18  C   UNL     1      25.816  50.162  48.092  1.00  0.00     0.007 A 
ENDBRANCH  12  13
ENDBRANCH  11  12
ENDBRANCH   4  11
BRANCH   1  19
HETATM   19  C   UNL     1      19.969  45.837  48.682  1.00  0.00     0.167 C 
BRANCH  19  20
HETATM   20  C   UNL     1      20.945  45.590  47.585  1.00  0.00     0.009 A 
HETATM   21  C   UNL     1      22.156  44.922  47.661  1.00  0.00     0.034 A 
HETATM   22  C   UNL     1      22.837  44.257  48.796  1.00  0.00     0.070 C 
HETATM   23  N   UNL     1      22.695  44.979  46.409  1.00  0.00    -0.282 N 
HETATM   24  H   UNL     1      23.577  44.594  46.089  1.00  0.00     0.189 HD
HETATM   25  N   UNL     1      21.940  45.647  45.527  1.00  0.00    -0.179 NA
HETATM   26  C   UNL     1      20.867  46.025  46.232  1.00  0.00     0.060 A 
HETATM   27  C   UNL     1      19.793  46.822  45.588  1.00  0.00     0.073 C 
ENDBRANCH  19  20
ENDBRANCH   1  19
TORSDOF 5
ENDMDL
MODEL 8
REMARK VINA RESULT:      -7.8      2.923      4.332
REMARK  5 active torsions:
REMARK  status: ('A' for Active; 'I' for Inactive)
REMARK    1  A    between atoms: C_8  and  C_9 
REMARK    2  A    between atoms: C_9  and  N_10 
REMARK       I    between atoms: N_10  and  C_11 
REMARK       I    between atoms: C_11  and  N_12 
REMARK    3  A    between atoms: C_13  and  C_14 
REMARK    4  A    between atoms: C_14  and  C_15 
REMARK    5  A    between atoms: C_15  and  C_16 
ROOT
HETATM    1  N   UNL     1      25.664  46.287  49.911  1.00  0.00    -0.339 N 
HETATM    2  C   UNL     1      24.705  45.350  49.650  1.00  0.00     0.318 C 
HETATM    3  N   UNL     1      25.218  44.240  48.970  1.00  0.00    -0.330 N 
HETATM    4  C   UNL     1      26.224  43.326  49.587  1.00  0.00     0.089 C 
HETATM    5  C   UNL     1      25.491  42.212  50.370  1.00  0.00     0.025 C 
HETATM    6  C   UNL     1      24.466  41.484  49.498  1.00  0.00     0.004 C 
HETATM    7  C   UNL     1      23.494  42.466  48.856  1.00  0.00     0.020 C 
HETATM    8  C   UNL     1      24.256  43.555  48.109  1.00  0.00     0.128 C 
HETATM    9  O   UNL     1      23.515  45.524  49.885  1.00  0.00    -0.247 OA
HETATM   10  H   UNL     1      26.448  46.251  49.276  1.00  0.00     0.164 HD
ENDROOT
BRANCH   4  11
HETATM   11  C   UNL     1      27.302  44.006  50.457  1.00  0.00     0.030 C 
BRANCH  11  12
HETATM   12  C   UNL     1      27.808  43.167  51.635  1.00  0.00     0.040 C 
BRANCH  12  13
HETATM   13  C   UNL     1      27.967  44.028  52.867  1.00  0.00    -0.058 A 
HETATM   14  C   UNL     1      29.027  43.797  53.757  1.00  0.00     0.007 A 
HETATM   15  C   UNL     1      29.153  44.558  54.919  1.00  0.00     0.001 A 
HETATM   16  C   UNL     1      28.218  45.550  55.208  1.00  0.00     0.000 A 
HETATM   17  C   UNL     1      27.157  45.783  54.335  1.00  0.00     0.001 A 
HETATM   18  C   UNL     1      27.031  45.025  53.169  1.00  0.00     0.007 A 
ENDBRANCH  12  13
ENDBRANCH  11  12
ENDBRANCH   4  11
BRANCH   1  19
HETATM   19  C   UNL     1      25.365  47.567  50.505  1.00  0.00     0.167 C 
BRANCH  19  20
HETATM   20  C   UNL     1      25.368  48.579  49.413  1.00  0.00     0.009 A 
HETATM   21  C   UNL     1      24.279  49.092  48.729  1.00  0.00     0.034 A 
HETATM   22  C   UNL     1      22.828  48.827  48.859  1.00  0.00     0.070 C 
HETATM   23  N   UNL     1      24.789  49.963  47.810  1.00  0.00    -0.282 N 
HETATM   24  H   UNL     1      24.284  50.525  47.133  1.00  0.00     0.189 HD
HETATM   25  N   UNL     1      26.126  50.045  47.829  1.00  0.00    -0.179 NA
HETATM   26  C   UNL     1      26.493  49.205  48.804  1.00  0.00     0.060 A 
HETATM   27  C   UNL     1      27.930  49.006  49.117  1.00  0.00     0.073 C 
ENDBRANCH  19  20
ENDBRANCH   1  19
TORSDOF 5
ENDMDL
MODEL 9
REMARK VINA RESULT:      -7.6     12.536     14.952
REMARK  5 active torsions:
REMARK  status: ('A' for Active; 'I' for Inactive)
REMARK    1  A    between atoms: C_8  and  C_9 
REMARK    2  A    between atoms: C_9  and  N_10 
REMARK       I    between atoms: N_10  and  C_11 
REMARK       I    between atoms: C_11  and  N_12 
REMARK    3  A    between atoms: C_13  and  C_14 
REMARK    4  A    between atoms: C_14  and  C_15 
REMARK    5  A    between atoms: C_15  and  C_16 
ROOT
HETATM    1  N   UNL     1      29.757  48.287  39.684  1.00  0.00    -0.339 N 
HETATM    2  C   UNL     1      29.103  47.102  39.867  1.00  0.00     0.318 C 
HETATM    3  N   UNL     1      27.729  47.278  40.060  1.00  0.00    -0.330 N 
HETATM    4  C   UNL     1      26.842  47.832  38.994  1.00  0.00     0.089 C 
HETATM    5  C   UNL     1      26.329  46.677  38.104  1.00  0.00     0.025 C 
HETATM    6  C   UNL     1      25.666  45.573  38.930  1.00  0.00     0.004 C 
HETATM    7  C   UNL     1      26.595  45.077  40.031  1.00  0.00     0.020 C 
HETATM    8  C   UNL     1      27.090  46.247  40.874  1.00  0.00     0.128 C 
HETATM    9  O   UNL     1      29.679  46.025  39.965  1.00  0.00    -0.247 OA
HETATM   10  H   UNL     1      29.281  49.079  40.089  1.00  0.00     0.164 HD
ENDROOT
BRANCH   4  11
HETATM   11  C   UNL     1      27.446  48.970  38.144  1.00  0.00     0.030 C 
BRANCH  11  12
HETATM   12  C   UNL     1      26.762  50.332  38.306  1.00  0.00     0.040 C 
BRANCH  12  13
HETATM   13  C   UNL     1      27.630  51.266  39.118  1.00  0.00    -0.058 A 
HETATM   14  C   UNL     1      27.631  51.187  40.519  1.00  0.00     0.007 A 
HETATM   15  C   UNL     1      28.395  52.076  41.277  1.00  0.00     0.001 A 
HETATM   16  C   UNL     1      29.158  53.054  40.644  1.00  0.00     0.000 A 
HETATM   17  C   UNL     1      29.159  53.145  39.253  1.00  0.00     0.001 A 
HETATM   18  C   UNL     1      28.399  52.255  38.492  1.00  0.00     0.007 A 
ENDBRANCH  12  13
ENDBRANCH  11  12
ENDBRANCH   4  11
BRANCH   1  19
HETATM   19  C   UNL     1      31.193  48.377  39.573  1.00  0.00     0.167 C 
BRANCH  19  20
HETATM   20  C   UNL     1      31.608  49.674  40.176  1.00  0.00     0.009 A 
HETATM   21  C   UNL     1      32.012  50.824  39.519  1.00  0.00     0.034 A 
HETATM   22  C   UNL     1      32.142  51.133  38.077  1.00  0.00     0.070 C 
HETATM   23  N   UNL     1      32.314  51.728  40.496  1.00  0.00    -0.282 N 
HETATM   24  H   UNL     1      32.642  52.681  40.387  1.00  0.00     0.189 HD
HETATM   25  N   UNL     1      32.157  51.251  41.739  1.00  0.00    -0.179 NA
HETATM   26  C   UNL     1      31.726  49.998  41.558  1.00  0.00     0.060 A 
HETATM   27  C   UNL     1      31.455  49.124  42.727  1.00  0.00     0.073 C 
ENDBRANCH  19  20
ENDBRANCH   1  19
TORSDOF 5
ENDMDL
MODEL 10
REMARK VINA RESULT:      -7.4     12.720     14.505
REMARK  5 active torsions:
REMARK  status: ('A' for Active; 'I' for Inactive)
REMARK    1  A    between atoms: C_8  and  C_9 
REMARK    2  A    between atoms: C_9  and  N_10 
REMARK       I    between atoms: N_10  and  C_11 
REMARK       I    between atoms: C_11  and  N_12 
REMARK    3  A    between atoms: C_13  and  C_14 
REMARK    4  A    between atoms: C_14  and  C_15 
REMARK    5  A    between atoms: C_15  and  C_16 
ROOT
HETATM    1  N   UNL     1      28.107  49.496  39.964  1.00  0.00    -0.339 N 
HETATM    2  C   UNL     1      28.217  50.834  39.716  1.00  0.00     0.318 C 
HETATM    3  N   UNL     1      28.794  51.527  40.785  1.00  0.00    -0.330 N 
HETATM    4  C   UNL     1      30.204  51.290  41.216  1.00  0.00     0.089 C 
HETATM    5  C   UNL     1      31.147  52.216  40.414  1.00  0.00     0.025 C 
HETATM    6  C   UNL     1      30.723  53.683  40.511  1.00  0.00     0.004 C 
HETATM    7  C   UNL     1      29.265  53.862  40.105  1.00  0.00     0.020 C 
HETATM    8  C   UNL     1      28.372  52.921  40.907  1.00  0.00     0.128 C 
HETATM    9  O   UNL     1      27.754  51.373  38.717  1.00  0.00    -0.247 OA
HETATM   10  H   UNL     1      28.073  49.268  40.946  1.00  0.00     0.164 HD
ENDROOT
BRANCH   4  11
HETATM   11  C   UNL     1      30.682  49.823  41.167  1.00  0.00     0.030 C 
BRANCH  11  12
HETATM   12  C   UNL     1      31.382  49.328  42.437  1.00  0.00     0.040 C 
BRANCH  12  13
HETATM   13  C   UNL     1      32.501  50.267  42.823  1.00  0.00    -0.058 A 
HETATM   14  C   UNL     1      33.716  50.243  42.122  1.00  0.00     0.007 A 
HETATM   15  C   UNL     1      34.769  51.075  42.502  1.00  0.00     0.001 A 
HETATM   16  C   UNL     1      34.622  51.933  43.590  1.00  0.00     0.000 A 
HETATM   17  C   UNL     1      33.422  51.960  44.299  1.00  0.00     0.001 A 
HETATM   18  C   UNL     1      32.365  51.131  43.918  1.00  0.00     0.007 A 
ENDBRANCH  12  13
ENDBRANCH  11  12
ENDBRANCH   4  11
BRANCH   1  19
HETATM   19  C   UNL     1      27.447  48.585  39.062  1.00  0.00     0.167 C 
BRANCH  19  20
HETATM   20  C   UNL     1      27.796  47.201  39.486  1.00  0.00     0.009 A 
HETATM   21  C   UNL     1      26.997  46.296  40.164  1.00  0.00     0.034 A 
HETATM   22  C   UNL     1      25.602  46.393  40.651  1.00  0.00     0.070 C 
HETATM   23  N   UNL     1      27.765  45.182  40.347  1.00  0.00    -0.282 N 
HETATM   24  H   UNL     1      27.510  44.314  40.805  1.00  0.00     0.189 HD
HETATM   25  N   UNL     1      29.007  45.298  39.859  1.00  0.00    -0.179 NA
HETATM   26  C   UNL     1      29.039  46.526  39.329  1.00  0.00     0.060 A 
HETATM   27  C   UNL     1      30.283  47.036  38.698  1.00  0.00     0.073 C 
ENDBRANCH  19  20
ENDBRANCH   1  19
TORSDOF 5
ENDMDL
