MODEL 1
REMARK VINA RESULT:      -9.6      0.000      0.000
REMARK  5 active torsions:
REMARK  status: ('A' for Active; 'I' for Inactive)
REMARK    1  A    between atoms: C_9  and  C_10 
REMARK    2  A    between atoms: C_10  and  N_11 
REMARK    3  A    between atoms: N_11  and  C_14 
REMARK    4  A    between atoms: C_14  and  C_15 
REMARK    5  A    between atoms: C_16  and  C_17 
ROOT
HETATM    1  C   UNL     1      28.287  44.641  54.175  1.00  0.00    -0.036 A 
HETATM    2  C   UNL     1      28.991  43.443  53.999  1.00  0.00     0.013 A 
HETATM    3  C   UNL     1      30.048  43.113  54.852  1.00  0.00     0.023 A 
HETATM    4  C   UNL     1      30.412  43.979  55.889  1.00  0.00     0.044 A 
HETATM    5  C   UNL     1      31.492  43.638  56.770  1.00  0.00     0.099 C 
HETATM    6  N   UNL     1      32.360  43.360  57.486  1.00  0.00    -0.191 NA
HETATM    7  C   UNL     1      29.717  45.180  56.060  1.00  0.00     0.023 A 
HETATM    8  C   UNL     1      28.663  45.512  55.203  1.00  0.00     0.013 A 
ENDROOT
BRANCH   1   9
HETATM    9  C   UNL     1      27.179  45.010  53.288  1.00  0.00     0.009 C 
HETATM   10  C   UNL     1      26.205  44.141  52.974  1.00  0.00     0.001 C 
BRANCH  10  11
HETATM   11  C   UNL     1      25.059  44.454  52.075  1.00  0.00     0.259 C 
BRANCH  11  12
HETATM   12  N   UNL     1      25.001  45.916  51.801  1.00  0.00    -0.071 N 
HETATM   13  H   UNL     1      25.848  46.346  52.202  1.00  0.00     0.277 HD
HETATM   14  H   UNL     1      24.217  46.308  52.337  1.00  0.00     0.277 HD
BRANCH  12  15
HETATM   15  C   UNL     1      24.878  46.273  50.348  1.00  0.00     0.242 C 
BRANCH  15  16
HETATM   16  C   UNL     1      25.312  47.728  50.069  1.00  0.00     0.055 C 
HETATM   17  C   UNL     1      24.341  48.544  49.232  1.00  0.00    -0.025 A 
HETATM   18  C   UNL     1      22.949  48.368  49.292  1.00  0.00     0.010 A 
HETATM   19  C   UNL     1      24.841  49.611  48.468  1.00  0.00     0.041 A 
HETATM   20  C   UNL     1      22.094  49.193  48.556  1.00  0.00     0.001 A 
HETATM   21  C   UNL     1      22.612  50.223  47.778  1.00  0.00     0.002 A 
HETATM   22  C   UNL     1      23.986  50.444  47.744  1.00  0.00     0.030 A 
HETATM   23  N   UNL     1      26.208  49.896  48.467  1.00  0.00    -0.327 N 
HETATM   24  C   UNL     1      27.165  49.112  49.040  1.00  0.00     0.222 C 
HETATM   25  H   UNL     1      26.543  50.764  48.060  1.00  0.00     0.169 HD
HETATM   26  O   UNL     1      28.341  49.453  49.087  1.00  0.00    -0.273 OA
HETATM   27  C   UNL     1      26.719  47.738  49.463  1.00  0.00     0.114 C 
ENDBRANCH  15  16
ENDBRANCH  12  15
ENDBRANCH  11  12
ENDBRANCH  10  11
ENDBRANCH   1   9
TORSDOF 5
ENDMDL
MODEL 2
REMARK VINA RESULT:      -9.1      2.155      8.760
REMARK  5 active torsions:
REMARK  status: ('A' for Active; 'I' for Inactive)
REMARK    1  A    between atoms: C_9  and  C_10 
REMARK    2  A    between atoms: C_10  and  N_11 
REMARK    3  A    between atoms: N_11  and  C_14 
REMARK    4  A    between atoms: C_14  and  C_15 
REMARK    5  A    between atoms: C_16  and  C_17 
ROOT
HETATM    1  C   UNL     1      25.465  46.333  50.195  1.00  0.00    -0.036 A 
HETATM    2  C   UNL     1      24.119  46.526  49.858  1.00  0.00     0.013 A 
HETATM    3  C   UNL     1      23.714  47.696  49.208  1.00  0.00     0.023 A 
HETATM    4  C   UNL     1      24.651  48.685  48.891  1.00  0.00     0.044 A 
HETATM    5  C   UNL     1      24.238  49.882  48.217  1.00  0.00     0.099 C 
HETATM    6  N   UNL     1      23.906  50.848  47.667  1.00  0.00    -0.191 NA
HETATM    7  C   UNL     1      25.993  48.499  49.234  1.00  0.00     0.023 A 
HETATM    8  C   UNL     1      26.398  47.331  49.889  1.00  0.00     0.013 A 
ENDROOT
BRANCH   1   9
HETATM    9  C   UNL     1      25.911  45.117  50.882  1.00  0.00     0.009 C 
HETATM   10  C   UNL     1      27.003  44.442  50.488  1.00  0.00     0.001 C 
BRANCH  10  11
HETATM   11  C   UNL     1      27.502  43.200  51.141  1.00  0.00     0.259 C 
BRANCH  11  12
HETATM   12  N   UNL     1      26.717  42.912  52.373  1.00  0.00    -0.071 N 
HETATM   13  H   UNL     1      26.233  42.012  52.236  1.00  0.00     0.277 HD
HETATM   14  H   UNL     1      25.970  43.614  52.444  1.00  0.00     0.277 HD
BRANCH  12  15
HETATM   15  C   UNL     1      27.529  42.876  53.635  1.00  0.00     0.242 C 
BRANCH  15  16
HETATM   16  C   UNL     1      28.157  44.248  53.959  1.00  0.00     0.055 C 
HETATM   17  C   UNL     1      29.237  44.229  55.028  1.00  0.00    -0.025 A 
HETATM   18  C   UNL     1      30.114  43.146  55.206  1.00  0.00     0.010 A 
HETATM   19  C   UNL     1      29.461  45.393  55.782  1.00  0.00     0.041 A 
HETATM   20  C   UNL     1      31.138  43.207  56.155  1.00  0.00     0.001 A 
HETATM   21  C   UNL     1      31.322  44.356  56.916  1.00  0.00     0.002 A 
HETATM   22  C   UNL     1      30.493  45.458  56.720  1.00  0.00     0.030 A 
HETATM   23  N   UNL     1      28.688  46.534  55.561  1.00  0.00    -0.327 N 
HETATM   24  C   UNL     1      27.589  46.583  54.756  1.00  0.00     0.222 C 
HETATM   25  H   UNL     1      28.963  47.419  55.977  1.00  0.00     0.169 HD
HETATM   26  O   UNL     1      26.997  47.632  54.528  1.00  0.00    -0.273 OA
HETATM   27  C   UNL     1      27.051  45.253  54.300  1.00  0.00     0.114 C 
ENDBRANCH  15  16
ENDBRANCH  12  15
ENDBRANCH  11  12
ENDBRANCH  10  11
ENDBRANCH   1   9
TORSDOF 5
ENDMDL
MODEL 3
REMARK VINA RESULT:      -9.0     11.786     13.042
REMARK  5 active torsions:
REMARK  status: ('A' for Active; 'I' for Inactive)
REMARK    1  A    between atoms: C_9  and  C_10 
REMARK    2  A    between atoms: C_10  and  N_11 
REMARK    3  A    between atoms: N_11  and  C_14 
REMARK    4  A    between atoms: C_14  and  C_15 
REMARK    5  A    between atoms: C_16  and  C_17 
ROOT
HETATM    1  C   UNL     1      32.159  49.753  42.249  1.00  0.00    -0.036 A 
HETATM    2  C   UNL     1      31.974  50.702  43.263  1.00  0.00     0.013 A 
HETATM    3  C   UNL     1      33.036  51.510  43.677  1.00  0.00     0.023 A 
HETATM    4  C   UNL     1      34.296  51.376  43.083  1.00  0.00     0.044 A 
HETATM    5  C   UNL     1      35.385  52.210  43.501  1.00  0.00     0.099 C 
HETATM    6  N   UNL     1      36.265  52.888  43.835  1.00  0.00    -0.191 NA
HETATM    7  C   UNL     1      34.485  50.424  42.077  1.00  0.00     0.023 A 
HETATM    8  C   UNL     1      33.423  49.612  41.666  1.00  0.00     0.013 A 
ENDROOT
BRANCH   1   9
HETATM    9  C   UNL     1      31.060  48.891  41.804  1.00  0.00     0.009 C 
HETATM   10  C   UNL     1      31.198  48.049  40.767  1.00  0.00     0.001 C 
BRANCH  10  11
HETATM   11  C   UNL     1      30.118  47.153  40.265  1.00  0.00     0.259 C 
BRANCH  11  12
HETATM   12  N   UNL     1      28.899  47.944  39.941  1.00  0.00    -0.071 N 
HETATM   13  H   UNL     1      28.665  48.516  40.765  1.00  0.00     0.277 HD
HETATM   14  H   UNL     1      28.115  47.288  39.834  1.00  0.00     0.277 HD
BRANCH  12  15
HETATM   15  C   UNL     1      29.028  48.815  38.725  1.00  0.00     0.242 C 
BRANCH  15  16
HETATM   16  C   UNL     1      28.969  50.317  39.079  1.00  0.00     0.055 C 
HETATM   17  C   UNL     1      30.318  51.002  39.218  1.00  0.00    -0.025 A 
HETATM   18  C   UNL     1      31.438  50.643  38.450  1.00  0.00     0.010 A 
HETATM   19  C   UNL     1      30.419  52.132  40.048  1.00  0.00     0.041 A 
HETATM   20  C   UNL     1      32.637  51.353  38.563  1.00  0.00     0.001 A 
HETATM   21  C   UNL     1      32.726  52.447  39.417  1.00  0.00     0.002 A 
HETATM   22  C   UNL     1      31.612  52.848  40.149  1.00  0.00     0.030 A 
HETATM   23  N   UNL     1      29.301  52.595  40.744  1.00  0.00    -0.327 N 
HETATM   24  C   UNL     1      28.107  51.941  40.819  1.00  0.00     0.222 C 
HETATM   25  H   UNL     1      29.330  53.503  41.199  1.00  0.00     0.169 HD
HETATM   26  O   UNL     1      27.130  52.435  41.371  1.00  0.00    -0.273 OA
HETATM   27  C   UNL     1      28.108  50.517  40.331  1.00  0.00     0.114 C 
ENDBRANCH  15  16
ENDBRANCH  12  15
ENDBRANCH  11  12
ENDBRANCH  10  11
ENDBRANCH   1   9
TORSDOF 5
ENDMDL
MODEL 4
REMARK VINA RESULT:      -9.0      2.849      7.807
REMARK  5 active torsions:
REMARK  status: ('A' for Active; 'I' for Inactive)
REMARK    1  A    between atoms: C_9  and  C_10 
REMARK    2  A    between atoms: C_10  and  N_11 
REMARK    3  A    between atoms: N_11  and  C_14 
REMARK    4  A    between atoms: C_14  and  C_15 
REMARK    5  A    between atoms: C_16  and  C_17 
ROOT
HETATM    1  C   UNL     1      26.183  45.533  50.050  1.00  0.00    -0.036 A 
HETATM    2  C   UNL     1      24.844  45.209  49.798  1.00  0.00     0.013 A 
HETATM    3  C   UNL     1      23.903  46.218  49.571  1.00  0.00     0.023 A 
HETATM    4  C   UNL     1      24.293  47.562  49.596  1.00  0.00     0.044 A 
HETATM    5  C   UNL     1      23.330  48.598  49.356  1.00  0.00     0.099 C 
HETATM    6  N   UNL     1      22.554  49.436  49.156  1.00  0.00    -0.191 NA
HETATM    7  C   UNL     1      25.627  47.888  49.857  1.00  0.00     0.023 A 
HETATM    8  C   UNL     1      26.567  46.878  50.089  1.00  0.00     0.013 A 
ENDROOT
BRANCH   1   9
HETATM    9  C   UNL     1      27.184  44.491  50.296  1.00  0.00     0.009 C 
HETATM   10  C   UNL     1      26.833  43.230  50.599  1.00  0.00     0.001 C 
BRANCH  10  11
HETATM   11  C   UNL     1      27.803  42.131  50.865  1.00  0.00     0.259 C 
BRANCH  11  12
HETATM   12  N   UNL     1      28.575  42.412  52.106  1.00  0.00    -0.071 N 
HETATM   13  H   UNL     1      28.922  43.380  52.050  1.00  0.00     0.277 HD
HETATM   14  H   UNL     1      29.415  41.820  52.097  1.00  0.00     0.277 HD
BRANCH  12  15
HETATM   15  C   UNL     1      27.803  42.211  53.379  1.00  0.00     0.242 C 
BRANCH  15  16
HETATM   16  C   UNL     1      28.218  43.218  54.473  1.00  0.00     0.055 C 
HETATM   17  C   UNL     1      27.636  44.614  54.322  1.00  0.00    -0.025 A 
HETATM   18  C   UNL     1      26.362  44.854  53.781  1.00  0.00     0.010 A 
HETATM   19  C   UNL     1      28.339  45.701  54.868  1.00  0.00     0.041 A 
HETATM   20  C   UNL     1      25.842  46.150  53.731  1.00  0.00     0.001 A 
HETATM   21  C   UNL     1      26.569  47.218  54.245  1.00  0.00     0.002 A 
HETATM   22  C   UNL     1      27.813  46.993  54.829  1.00  0.00     0.030 A 
HETATM   23  N   UNL     1      29.558  45.495  55.516  1.00  0.00    -0.327 N 
HETATM   24  C   UNL     1      30.236  44.313  55.540  1.00  0.00     0.222 C 
HETATM   25  H   UNL     1      29.975  46.247  56.058  1.00  0.00     0.169 HD
HETATM   26  O   UNL     1      31.259  44.164  56.198  1.00  0.00    -0.273 OA
HETATM   27  C   UNL     1      29.745  43.258  54.584  1.00  0.00     0.114 C 
ENDBRANCH  15  16
ENDBRANCH  12  15
ENDBRANCH  11  12
ENDBRANCH  10  11
ENDBRANCH   1   9
TORSDOF 5
ENDMDL
MODEL 5
REMARK VINA RESULT:      -8.7     11.340     14.031
REMARK  5 active torsions:
REMARK  status: ('A' for Active; 'I' for Inactive)
REMARK    1  A    between atoms: C_9  and  C_10 
REMARK    2  A    between atoms: C_10  and  N_11 
REMARK    3  A    between atoms: N_11  and  C_14 
REMARK    4  A    between atoms: C_14  and  C_15 
REMARK    5  A    between atoms: C_16  and  C_17 
ROOT
HETATM    1  C   UNL     1      27.917  50.978  40.210  1.00  0.00    -0.036 A 
HETATM    2  C   UNL     1      27.641  50.723  38.861  1.00  0.00     0.013 A 
HETATM    3  C   UNL     1      27.063  49.509  38.475  1.00  0.00     0.023 A 
HETATM    4  C   UNL     1      26.759  48.538  39.435  1.00  0.00     0.044 A 
HETATM    5  C   UNL     1      26.160  47.296  39.041  1.00  0.00     0.099 C 
HETATM    6  N   UNL     1      25.669  46.294  38.724  1.00  0.00    -0.191 NA
HETATM    7  C   UNL     1      27.043  48.787  40.781  1.00  0.00     0.023 A 
HETATM    8  C   UNL     1      27.625  49.999  41.166  1.00  0.00     0.013 A 
ENDROOT
BRANCH   1   9
HETATM    9  C   UNL     1      28.528  52.241  40.636  1.00  0.00     0.009 C 
HETATM   10  C   UNL     1      29.316  52.957  39.817  1.00  0.00     0.001 C 
BRANCH  10  11
HETATM   11  C   UNL     1      29.969  54.242  40.194  1.00  0.00     0.259 C 
BRANCH  11  12
HETATM   12  N   UNL     1      31.333  53.991  40.732  1.00  0.00    -0.071 N 
HETATM   13  H   UNL     1      31.246  53.807  41.742  1.00  0.00     0.277 HD
HETATM   14  H   UNL     1      31.868  54.865  40.660  1.00  0.00     0.277 HD
BRANCH  12  15
HETATM   15  C   UNL     1      32.069  52.866  40.063  1.00  0.00     0.242 C 
BRANCH  15  16
HETATM   16  C   UNL     1      32.314  51.681  41.023  1.00  0.00     0.055 C 
HETATM   17  C   UNL     1      31.643  50.377  40.625  1.00  0.00    -0.025 A 
HETATM   18  C   UNL     1      31.454  49.995  39.286  1.00  0.00     0.010 A 
HETATM   19  C   UNL     1      31.320  49.450  41.630  1.00  0.00     0.041 A 
HETATM   20  C   UNL     1      30.897  48.752  38.972  1.00  0.00     0.001 A 
HETATM   21  C   UNL     1      30.552  47.862  39.983  1.00  0.00     0.002 A 
HETATM   22  C   UNL     1      30.777  48.203  41.314  1.00  0.00     0.030 A 
HETATM   23  N   UNL     1      31.594  49.739  42.968  1.00  0.00    -0.327 N 
HETATM   24  C   UNL     1      32.024  50.948  43.428  1.00  0.00     0.222 C 
HETATM   25  H   UNL     1      31.524  49.006  43.667  1.00  0.00     0.169 HD
HETATM   26  O   UNL     1      32.335  51.123  44.601  1.00  0.00    -0.273 OA
HETATM   27  C   UNL     1      31.939  52.090  42.451  1.00  0.00     0.114 C 
ENDBRANCH  15  16
ENDBRANCH  12  15
ENDBRANCH  11  12
ENDBRANCH  10  11
ENDBRANCH   1   9
TORSDOF 5
ENDMDL
MODEL 6
REMARK VINA RESULT:      -8.7      2.554      9.473
REMARK  5 active torsions:
REMARK  status: ('A' for Active; 'I' for Inactive)
REMARK    1  A    between atoms: C_9  and  C_10 
REMARK    2  A    between atoms: C_10  and  N_11 
REMARK    3  A    between atoms: N_11  and  C_14 
REMARK    4  A    between atoms: C_14  and  C_15 
REMARK    5  A    between atoms: C_16  and  C_17 
ROOT
HETATM    1  C   UNL     1      23.549  48.989  49.150  1.00  0.00    -0.036 A 
HETATM    2  C   UNL     1      23.785  50.338  48.855  1.00  0.00     0.013 A 
HETATM    3  C   UNL     1      22.716  51.217  48.660  1.00  0.00     0.023 A 
HETATM    4  C   UNL     1      21.399  50.754  48.755  1.00  0.00     0.044 A 
HETATM    5  C   UNL     1      20.301  51.657  48.562  1.00  0.00     0.099 C 
HETATM    6  N   UNL     1      19.412  52.387  48.413  1.00  0.00    -0.191 NA
HETATM    7  C   UNL     1      21.160  49.407  49.039  1.00  0.00     0.023 A 
HETATM    8  C   UNL     1      22.230  48.526  49.229  1.00  0.00     0.013 A 
ENDROOT
BRANCH   1   9
HETATM    9  C   UNL     1      24.655  48.049  49.352  1.00  0.00     0.009 C 
HETATM   10  C   UNL     1      24.831  47.404  50.517  1.00  0.00     0.001 C 
BRANCH  10  11
HETATM   11  C   UNL     1      25.938  46.443  50.784  1.00  0.00     0.259 C 
BRANCH  11  12
HETATM   12  N   UNL     1      25.388  45.126  51.206  1.00  0.00    -0.071 N 
HETATM   13  H   UNL     1      25.849  44.396  50.642  1.00  0.00     0.277 HD
HETATM   14  H   UNL     1      24.397  45.094  50.934  1.00  0.00     0.277 HD
BRANCH  12  15
HETATM   15  C   UNL     1      25.544  44.825  52.668  1.00  0.00     0.242 C 
BRANCH  15  16
HETATM   16  C   UNL     1      26.630  45.702  53.328  1.00  0.00     0.055 C 
HETATM   17  C   UNL     1      27.794  44.939  53.940  1.00  0.00    -0.025 A 
HETATM   18  C   UNL     1      28.281  43.736  53.405  1.00  0.00     0.010 A 
HETATM   19  C   UNL     1      28.501  45.527  55.003  1.00  0.00     0.041 A 
HETATM   20  C   UNL     1      29.400  43.110  53.962  1.00  0.00     0.001 A 
HETATM   21  C   UNL     1      30.066  43.691  55.037  1.00  0.00     0.002 A 
HETATM   22  C   UNL     1      29.626  44.908  55.549  1.00  0.00     0.030 A 
HETATM   23  N   UNL     1      28.122  46.777  55.494  1.00  0.00    -0.327 N 
HETATM   24  C   UNL     1      26.991  47.445  55.128  1.00  0.00     0.222 C 
HETATM   25  H   UNL     1      28.732  47.274  56.135  1.00  0.00     0.169 HD
HETATM   26  O   UNL     1      26.750  48.580  55.524  1.00  0.00    -0.273 OA
HETATM   27  C   UNL     1      25.983  46.646  54.346  1.00  0.00     0.114 C 
ENDBRANCH  15  16
ENDBRANCH  12  15
ENDBRANCH  11  12
ENDBRANCH  10  11
ENDBRANCH   1   9
TORSDOF 5
ENDMDL
MODEL 7
REMARK VINA RESULT:      -8.6      3.711      4.709
REMARK  5 active torsions:
REMARK  status: ('A' for Active; 'I' for Inactive)
REMARK    1  A    between atoms: C_9  and  C_10 
REMARK    2  A    between atoms: C_10  and  N_11 
REMARK    3  A    between atoms: N_11  and  C_14 
REMARK    4  A    between atoms: C_14  and  C_15 
REMARK    5  A    between atoms: C_16  and  C_17 
ROOT
HETATM    1  C   UNL     1      29.257  43.506  53.872  1.00  0.00    -0.036 A 
HETATM    2  C   UNL     1      30.339  43.073  54.649  1.00  0.00     0.013 A 
HETATM    3  C   UNL     1      30.729  43.795  55.781  1.00  0.00     0.023 A 
HETATM    4  C   UNL     1      30.043  44.959  56.145  1.00  0.00     0.044 A 
HETATM    5  C   UNL     1      30.438  45.695  57.311  1.00  0.00     0.099 C 
HETATM    6  N   UNL     1      30.752  46.289  58.256  1.00  0.00    -0.191 NA
HETATM    7  C   UNL     1      28.969  45.398  55.365  1.00  0.00     0.023 A 
HETATM    8  C   UNL     1      28.582  44.678  54.230  1.00  0.00     0.013 A 
ENDROOT
BRANCH   1   9
HETATM    9  C   UNL     1      28.835  42.768  52.678  1.00  0.00     0.009 C 
HETATM   10  C   UNL     1      28.561  41.454  52.719  1.00  0.00     0.001 C 
BRANCH  10  11
HETATM   11  C   UNL     1      28.133  40.650  51.540  1.00  0.00     0.259 C 
BRANCH  11  12
HETATM   12  N   UNL     1      26.648  40.571  51.478  1.00  0.00    -0.071 N 
HETATM   13  H   UNL     1      26.275  40.955  52.359  1.00  0.00     0.277 HD
HETATM   14  H   UNL     1      26.384  39.578  51.480  1.00  0.00     0.277 HD
BRANCH  12  15
HETATM   15  C   UNL     1      26.035  41.277  50.304  1.00  0.00     0.242 C 
BRANCH  15  16
HETATM   16  C   UNL     1      24.997  42.334  50.741  1.00  0.00     0.055 C 
HETATM   17  C   UNL     1      24.034  42.781  49.654  1.00  0.00    -0.025 A 
HETATM   18  C   UNL     1      23.580  41.924  48.637  1.00  0.00     0.010 A 
HETATM   19  C   UNL     1      23.464  44.063  49.743  1.00  0.00     0.041 A 
HETATM   20  C   UNL     1      22.637  42.363  47.704  1.00  0.00     0.001 A 
HETATM   21  C   UNL     1      22.111  43.648  47.789  1.00  0.00     0.002 A 
HETATM   22  C   UNL     1      22.512  44.495  48.819  1.00  0.00     0.030 A 
HETATM   23  N   UNL     1      23.799  44.909  50.802  1.00  0.00    -0.327 N 
HETATM   24  C   UNL     1      24.782  44.661  51.713  1.00  0.00     0.222 C 
HETATM   25  H   UNL     1      23.261  45.756  50.961  1.00  0.00     0.169 HD
HETATM   26  O   UNL     1      24.976  45.396  52.675  1.00  0.00    -0.273 OA
HETATM   27  C   UNL     1      25.715  43.528  51.378  1.00  0.00     0.114 C 
ENDBRANCH  15  16
ENDBRANCH  12  15
ENDBRANCH  11  12
ENDBRANCH  10  11
ENDBRANCH   1   9
TORSDOF 5
ENDMDL
MODEL 8
REMARK VINA RESULT:      -8.3      2.993      4.190
REMARK  5 active torsions:
REMARK  status: ('A' for Active; 'I' for Inactive)
REMARK    1  A    between atoms: C_9  and  C_10 
REMARK    2  A    between atoms: C_10  and  N_11 
REMARK    3  A    between atoms: N_11  and  C_14 
REMARK    4  A    between atoms: C_14  and  C_15 
REMARK    5  A    between atoms: C_16  and  C_17 
ROOT
HETATM    1  C   UNL     1      28.979  43.772  53.609  1.00  0.00    -0.036 A 
HETATM    2  C   UNL     1      30.087  43.295  54.320  1.00  0.00     0.013 A 
HETATM    3  C   UNL     1      30.498  43.929  55.497  1.00  0.00     0.023 A 
HETATM    4  C   UNL     1      29.807  45.048  55.971  1.00  0.00     0.044 A 
HETATM    5  C   UNL     1      30.223  45.695  57.182  1.00  0.00     0.099 C 
HETATM    6  N   UNL     1      30.555  46.215  58.164  1.00  0.00    -0.191 NA
HETATM    7  C   UNL     1      28.706  45.533  55.258  1.00  0.00     0.023 A 
HETATM    8  C   UNL     1      28.298  44.901  54.079  1.00  0.00     0.013 A 
ENDROOT
BRANCH   1   9
HETATM    9  C   UNL     1      28.534  43.127  52.370  1.00  0.00     0.009 C 
HETATM   10  C   UNL     1      27.887  41.950  52.379  1.00  0.00     0.001 C 
BRANCH  10  11
HETATM   11  C   UNL     1      27.416  41.243  51.155  1.00  0.00     0.259 C 
BRANCH  11  12
HETATM   12  N   UNL     1      25.935  41.336  51.042  1.00  0.00    -0.071 N 
HETATM   13  H   UNL     1      25.526  40.576  51.604  1.00  0.00     0.277 HD
HETATM   14  H   UNL     1      25.678  41.125  50.069  1.00  0.00     0.277 HD
BRANCH  12  15
HETATM   15  C   UNL     1      25.361  42.658  51.463  1.00  0.00     0.242 C 
BRANCH  15  16
HETATM   16  C   UNL     1      24.786  43.449  50.268  1.00  0.00     0.055 C 
HETATM   17  C   UNL     1      24.939  44.958  50.357  1.00  0.00    -0.025 A 
HETATM   18  C   UNL     1      26.039  45.578  50.973  1.00  0.00     0.010 A 
HETATM   19  C   UNL     1      24.015  45.771  49.679  1.00  0.00     0.041 A 
HETATM   20  C   UNL     1      26.169  46.969  50.965  1.00  0.00     0.001 A 
HETATM   21  C   UNL     1      25.224  47.758  50.318  1.00  0.00     0.002 A 
HETATM   22  C   UNL     1      24.153  47.159  49.660  1.00  0.00     0.030 A 
HETATM   23  N   UNL     1      22.968  45.194  48.957  1.00  0.00    -0.327 N 
HETATM   24  C   UNL     1      22.653  43.868  48.971  1.00  0.00     0.222 C 
HETATM   25  H   UNL     1      22.411  45.767  48.330  1.00  0.00     0.169 HD
HETATM   26  O   UNL     1      21.779  43.401  48.250  1.00  0.00    -0.273 OA
HETATM   27  C   UNL     1      23.326  43.047  50.038  1.00  0.00     0.114 C 
ENDBRANCH  15  16
ENDBRANCH  12  15
ENDBRANCH  11  12
ENDBRANCH  10  11
ENDBRANCH   1   9
TORSDOF 5
ENDMDL
MODEL 9
REMARK VINA RESULT:      -8.2     11.652     13.242
REMARK  5 active torsions:
REMARK  status: ('A' for Active; 'I' for Inactive)
REMARK    1  A    between atoms: C_9  and  C_10 
REMARK    2  A    between atoms: C_10  and  N_11 
REMARK    3  A    between atoms: N_11  and  C_14 
REMARK    4  A    between atoms: C_14  and  C_15 
REMARK    5  A    between atoms: C_16  and  C_17 
ROOT
HETATM    1  C   UNL     1      30.228  48.000  40.982  1.00  0.00    -0.036 A 
HETATM    2  C   UNL     1      28.945  48.067  41.539  1.00  0.00     0.013 A 
HETATM    3  C   UNL     1      27.916  47.261  41.043  1.00  0.00     0.023 A 
HETATM    4  C   UNL     1      28.160  46.381  39.983  1.00  0.00     0.044 A 
HETATM    5  C   UNL     1      27.107  45.548  39.478  1.00  0.00     0.099 C 
HETATM    6  N   UNL     1      26.258  44.869  39.073  1.00  0.00    -0.191 NA
HETATM    7  C   UNL     1      29.438  46.319  39.419  1.00  0.00     0.023 A 
HETATM    8  C   UNL     1      30.466  47.129  39.912  1.00  0.00     0.013 A 
ENDROOT
BRANCH   1   9
HETATM    9  C   UNL     1      31.320  48.840  41.482  1.00  0.00     0.009 C 
HETATM   10  C   UNL     1      31.202  49.552  42.615  1.00  0.00     0.001 C 
BRANCH  10  11
HETATM   11  C   UNL     1      32.272  50.427  43.171  1.00  0.00     0.259 C 
BRANCH  11  12
HETATM   12  N   UNL     1      32.692  51.436  42.160  1.00  0.00    -0.071 N 
HETATM   13  H   UNL     1      32.938  50.933  41.295  1.00  0.00     0.277 HD
HETATM   14  H   UNL     1      33.568  51.864  42.485  1.00  0.00     0.277 HD
BRANCH  12  15
HETATM   15  C   UNL     1      31.665  52.492  41.871  1.00  0.00     0.242 C 
BRANCH  15  16
HETATM   16  C   UNL     1      31.088  52.363  40.444  1.00  0.00     0.055 C 
HETATM   17  C   UNL     1      29.686  51.783  40.363  1.00  0.00    -0.025 A 
HETATM   18  C   UNL     1      28.713  52.000  41.353  1.00  0.00     0.010 A 
HETATM   19  C   UNL     1      29.298  51.115  39.190  1.00  0.00     0.041 A 
HETATM   20  C   UNL     1      27.415  51.504  41.197  1.00  0.00     0.001 A 
HETATM   21  C   UNL     1      27.061  50.815  40.042  1.00  0.00     0.002 A 
HETATM   22  C   UNL     1      27.998  50.633  39.029  1.00  0.00     0.030 A 
HETATM   23  N   UNL     1      30.198  50.974  38.131  1.00  0.00    -0.327 N 
HETATM   24  C   UNL     1      31.520  51.302  38.187  1.00  0.00     0.222 C 
HETATM   25  H   UNL     1      29.867  50.651  37.227  1.00  0.00     0.169 HD
HETATM   26  O   UNL     1      32.246  51.241  37.201  1.00  0.00    -0.273 OA
HETATM   27  C   UNL     1      32.067  51.584  39.561  1.00  0.00     0.114 C 
ENDBRANCH  15  16
ENDBRANCH  12  15
ENDBRANCH  11  12
ENDBRANCH  10  11
ENDBRANCH   1   9
TORSDOF 5
ENDMDL
MODEL 10
REMARK VINA RESULT:      -8.2      2.295      2.814
REMARK  5 active torsions:
REMARK  status: ('A' for Active; 'I' for Inactive)
REMARK    1  A    between atoms: C_9  and  C_10 
REMARK    2  A    between atoms: C_10  and  N_11 
REMARK    3  A    between atoms: N_11  and  C_14 
REMARK    4  A    between atoms: C_14  and  C_15 
REMARK    5  A    between atoms: C_16  and  C_17 
ROOT
HETATM    1  C   UNL     1      28.260  43.431  52.671  1.00  0.00    -0.036 A 
HETATM    2  C   UNL     1      29.429  42.659  52.691  1.00  0.00     0.013 A 
HETATM    3  C   UNL     1      30.316  42.746  53.768  1.00  0.00     0.023 A 
HETATM    4  C   UNL     1      30.044  43.609  54.835  1.00  0.00     0.044 A 
HETATM    5  C   UNL     1      30.949  43.693  55.945  1.00  0.00     0.099 C 
HETATM    6  N   UNL     1      31.678  43.758  56.845  1.00  0.00    -0.191 NA
HETATM    7  C   UNL     1      28.883  44.388  54.814  1.00  0.00     0.023 A 
HETATM    8  C   UNL     1      27.998  44.304  53.734  1.00  0.00     0.013 A 
ENDROOT
BRANCH   1   9
HETATM    9  C   UNL     1      27.320  43.360  51.549  1.00  0.00     0.009 C 
HETATM   10  C   UNL     1      27.379  42.374  50.639  1.00  0.00     0.001 C 
BRANCH  10  11
HETATM   11  C   UNL     1      26.456  42.252  49.475  1.00  0.00     0.259 C 
BRANCH  11  12
HETATM   12  N   UNL     1      26.053  43.600  48.990  1.00  0.00    -0.071 N 
HETATM   13  H   UNL     1      26.553  43.781  48.108  1.00  0.00     0.277 HD
HETATM   14  H   UNL     1      26.413  44.296  49.655  1.00  0.00     0.277 HD
BRANCH  12  15
HETATM   15  C   UNL     1      24.575  43.774  48.793  1.00  0.00     0.242 C 
BRANCH  15  16
HETATM   16  C   UNL     1      24.031  45.007  49.546  1.00  0.00     0.055 C 
HETATM   17  C   UNL     1      23.135  45.922  48.727  1.00  0.00    -0.025 A 
HETATM   18  C   UNL     1      22.279  45.447  47.720  1.00  0.00     0.010 A 
HETATM   19  C   UNL     1      23.054  47.279  49.079  1.00  0.00     0.041 A 
HETATM   20  C   UNL     1      21.420  46.320  47.045  1.00  0.00     0.001 A 
HETATM   21  C   UNL     1      21.381  47.668  47.385  1.00  0.00     0.002 A 
HETATM   22  C   UNL     1      22.187  48.147  48.414  1.00  0.00     0.030 A 
HETATM   23  N   UNL     1      23.803  47.774  50.149  1.00  0.00    -0.327 N 
HETATM   24  C   UNL     1      24.760  47.071  50.818  1.00  0.00     0.222 C 
HETATM   25  H   UNL     1      23.613  48.704  50.511  1.00  0.00     0.169 HD
HETATM   26  O   UNL     1      25.326  47.524  51.807  1.00  0.00    -0.273 OA
HETATM   27  C   UNL     1      25.194  45.781  50.175  1.00  0.00     0.114 C 
ENDBRANCH  15  16
ENDBRANCH  12  15
ENDBRANCH  11  12
ENDBRANCH  10  11
ENDBRANCH   1   9
TORSDOF 5
ENDMDL
