MODEL 1
REMARK VINA RESULT:      -8.7      0.000      0.000
REMARK  10 active torsions:
REMARK  status: ('A' for Active; 'I' for Inactive)
REMARK    1  A    between atoms: C_3  and  N_4 
REMARK    2  A    between atoms: C_5  and  S_6 
REMARK    3  A    between atoms: S_6  and  C_7 
REMARK    4  A    between atoms: C_7  and  C_8 
REMARK       I    between atoms: C_8  and  N_9 
REMARK    5  A    between atoms: N_9  and  C_10 
REMARK    6  A    between atoms: C_10  and  C_11 
REMARK    7  A    between atoms: C_11  and  C_12 
REMARK    8  A    between atoms: C_14  and  O_15 
REMARK    9  A    between atoms: C_17  and  O_18 
REMARK   10  A    between atoms: C_26  and  N_27 
ROOT
HETATM    1  N   UNL     1      26.010  43.773  50.791  1.00  0.00    -0.275 N 
HETATM    2  C   UNL     1      25.731  45.024  50.180  1.00  0.00     0.177 A 
HETATM    3  N   UNL     1      25.048  45.207  49.076  1.00  0.00    -0.204 NA
HETATM    4  C   UNL     1      24.555  44.065  48.548  1.00  0.00     0.162 A 
HETATM    5  C   UNL     1      24.689  42.776  48.988  1.00  0.00     0.081 A 
HETATM    6  C   UNL     1      25.465  42.573  50.174  1.00  0.00     0.124 A 
HETATM    7  N   UNL     1      23.781  43.984  47.429  1.00  0.00    -0.260 N 
HETATM    8  H   UNL     1      23.467  44.743  46.837  1.00  0.00     0.191 HD
HETATM    9  N   UNL     1      23.421  42.717  47.124  1.00  0.00    -0.177 NA
HETATM   10  C   UNL     1      23.974  41.967  48.092  1.00  0.00     0.068 A 
HETATM   11  C   UNL     1      23.770  40.500  48.083  1.00  0.00     0.073 C 
ENDROOT
BRANCH   2  12
HETATM   12  S   UNL     1      26.386  46.513  50.890  1.00  0.00    -0.082 SA
BRANCH  12  13
HETATM   13  C   UNL     1      25.143  47.705  50.322  1.00  0.00     0.185 C 
BRANCH  13  14
HETATM   14  C   UNL     1      25.705  48.683  49.298  1.00  0.00     0.227 C 
HETATM   15  N   UNL     1      24.814  49.486  48.633  1.00  0.00    -0.360 N 
HETATM   16  H   UNL     1      25.245  50.091  47.940  1.00  0.00     0.162 HD
HETATM   17  O   UNL     1      26.908  48.810  49.058  1.00  0.00    -0.273 OA
BRANCH  15  18
HETATM   18  C   UNL     1      23.365  49.503  48.775  1.00  0.00     0.127 C 
BRANCH  18  19
HETATM   19  C   UNL     1      22.738  50.861  48.438  1.00  0.00     0.058 C 
BRANCH  19  20
HETATM   20  C   UNL     1      21.303  51.004  48.894  1.00  0.00    -0.054 A 
HETATM   21  C   UNL     1      20.791  50.218  49.939  1.00  0.00     0.046 A 
HETATM   22  C   UNL     1      19.457  50.341  50.347  1.00  0.00     0.102 A 
HETATM   23  C   UNL     1      18.624  51.291  49.728  1.00  0.00     0.101 A 
HETATM   24  C   UNL     1      19.139  52.092  48.705  1.00  0.00     0.040 A 
HETATM   25  C   UNL     1      20.467  51.949  48.292  1.00  0.00     0.010 A 
BRANCH  22  26
HETATM   26  O   UNL     1      18.885  49.595  51.349  1.00  0.00    -0.353 OA
HETATM   27  C   UNL     1      18.493  48.266  51.037  1.00  0.00     0.210 C 
ENDBRANCH  22  26
BRANCH  23  28
HETATM   28  O   UNL     1      17.332  51.354  50.189  1.00  0.00    -0.353 OA
HETATM   29  C   UNL     1      16.305  51.606  49.241  1.00  0.00     0.210 C 
ENDBRANCH  23  28
ENDBRANCH  19  20
ENDBRANCH  18  19
ENDBRANCH  15  18
ENDBRANCH  13  14
ENDBRANCH  12  13
ENDBRANCH   2  12
BRANCH   1  30
HETATM   30  C   UNL     1      26.721  43.683  52.026  1.00  0.00     0.051 A 
HETATM   31  C   UNL     1      26.124  44.024  53.260  1.00  0.00    -0.035 A 
HETATM   32  C   UNL     1      24.668  44.385  53.389  1.00  0.00     0.050 C 
HETATM   33  C   UNL     1      26.900  43.973  54.431  1.00  0.00     0.011 A 
HETATM   34  C   UNL     1      28.254  43.637  54.379  1.00  0.00     0.024 A 
HETATM   35  C   UNL     1      28.841  43.326  53.159  1.00  0.00     0.036 A 
HETATM   36  C   UNL     1      28.085  43.342  51.988  1.00  0.00     0.054 A 
HETATM   37 CL   UNL     1      30.516  42.945  53.086  1.00  0.00    -0.084 Cl
ENDBRANCH   1  30
BRANCH   6  38
HETATM   38  N   UNL     1      25.686  41.363  50.650  1.00  0.00    -0.384 N 
HETATM   39  H   UNL     1      25.767  41.185  51.639  1.00  0.00     0.157 HD
HETATM   40  H   UNL     1      25.768  40.581  50.012  1.00  0.00     0.157 HD
ENDBRANCH   6  38
TORSDOF 10
ENDMDL
MODEL 2
REMARK VINA RESULT:      -8.5      6.414     10.054
REMARK  10 active torsions:
REMARK  status: ('A' for Active; 'I' for Inactive)
REMARK    1  A    between atoms: C_3  and  N_4 
REMARK    2  A    between atoms: C_5  and  S_6 
REMARK    3  A    between atoms: S_6  and  C_7 
REMARK    4  A    between atoms: C_7  and  C_8 
REMARK       I    between atoms: C_8  and  N_9 
REMARK    5  A    between atoms: N_9  and  C_10 
REMARK    6  A    between atoms: C_10  and  C_11 
REMARK    7  A    between atoms: C_11  and  C_12 
REMARK    8  A    between atoms: C_14  and  O_15 
REMARK    9  A    between atoms: C_17  and  O_18 
REMARK   10  A    between atoms: C_26  and  N_27 
ROOT
HETATM    1  N   UNL     1      17.379  48.016  45.445  1.00  0.00    -0.275 N 
HETATM    2  C   UNL     1      16.528  48.077  46.581  1.00  0.00     0.177 A 
HETATM    3  N   UNL     1      16.536  47.246  47.595  1.00  0.00    -0.204 NA
HETATM    4  C   UNL     1      17.495  46.297  47.510  1.00  0.00     0.162 A 
HETATM    5  C   UNL     1      18.418  46.081  46.524  1.00  0.00     0.081 A 
HETATM    6  C   UNL     1      18.386  46.967  45.399  1.00  0.00     0.124 A 
HETATM    7  N   UNL     1      17.741  45.339  48.448  1.00  0.00    -0.260 N 
HETATM    8  H   UNL     1      17.257  45.193  49.326  1.00  0.00     0.191 HD
HETATM    9  N   UNL     1      18.761  44.519  48.112  1.00  0.00    -0.177 NA
HETATM   10  C   UNL     1      19.189  44.979  46.926  1.00  0.00     0.068 A 
HETATM   11  C   UNL     1      20.329  44.314  46.253  1.00  0.00     0.073 C 
ENDROOT
BRANCH   2  12
HETATM   12  S   UNL     1      15.276  49.332  46.674  1.00  0.00    -0.082 SA
BRANCH  12  13
HETATM   13  C   UNL     1      15.914  50.309  48.062  1.00  0.00     0.185 C 
BRANCH  13  14
HETATM   14  C   UNL     1      16.328  51.713  47.638  1.00  0.00     0.227 C 
HETATM   15  N   UNL     1      17.207  52.385  48.448  1.00  0.00    -0.360 N 
HETATM   16  H   UNL     1      17.419  53.326  48.131  1.00  0.00     0.162 HD
HETATM   17  O   UNL     1      15.943  52.259  46.602  1.00  0.00    -0.273 OA
BRANCH  15  18
HETATM   18  C   UNL     1      17.788  51.920  49.699  1.00  0.00     0.127 C 
BRANCH  18  19
HETATM   19  C   UNL     1      19.314  52.058  49.750  1.00  0.00     0.058 C 
BRANCH  19  20
HETATM   20  C   UNL     1      20.056  50.899  49.122  1.00  0.00    -0.054 A 
HETATM   21  C   UNL     1      21.293  51.088  48.486  1.00  0.00     0.046 A 
HETATM   22  C   UNL     1      21.969  50.016  47.890  1.00  0.00     0.102 A 
HETATM   23  C   UNL     1      21.421  48.722  47.960  1.00  0.00     0.101 A 
HETATM   24  C   UNL     1      20.202  48.528  48.615  1.00  0.00     0.040 A 
HETATM   25  C   UNL     1      19.525  49.607  49.190  1.00  0.00     0.010 A 
BRANCH  22  26
HETATM   26  O   UNL     1      23.173  50.130  47.238  1.00  0.00    -0.353 OA
HETATM   27  C   UNL     1      24.349  50.172  48.032  1.00  0.00     0.210 C 
ENDBRANCH  22  26
BRANCH  23  28
HETATM   28  O   UNL     1      22.148  47.725  47.357  1.00  0.00    -0.353 OA
HETATM   29  C   UNL     1      22.484  46.589  48.140  1.00  0.00     0.210 C 
ENDBRANCH  23  28
ENDBRANCH  19  20
ENDBRANCH  18  19
ENDBRANCH  15  18
ENDBRANCH  13  14
ENDBRANCH  12  13
ENDBRANCH   2  12
BRANCH   1  30
HETATM   30  C   UNL     1      17.326  49.004  44.415  1.00  0.00     0.051 A 
HETATM   31  C   UNL     1      18.030  50.224  44.512  1.00  0.00    -0.035 A 
HETATM   32  C   UNL     1      18.982  50.529  45.636  1.00  0.00     0.050 C 
HETATM   33  C   UNL     1      17.884  51.179  43.490  1.00  0.00     0.011 A 
HETATM   34  C   UNL     1      17.021  50.952  42.416  1.00  0.00     0.024 A 
HETATM   35  C   UNL     1      16.314  49.759  42.339  1.00  0.00     0.036 A 
HETATM   36  C   UNL     1      16.464  48.786  43.325  1.00  0.00     0.054 A 
HETATM   37 CL   UNL     1      15.225  49.490  41.035  1.00  0.00    -0.084 Cl
ENDBRANCH   1  30
BRANCH   6  38
HETATM   38  N   UNL     1      19.207  46.811  44.379  1.00  0.00    -0.384 N 
HETATM   39  H   UNL     1      19.849  46.035  44.326  1.00  0.00     0.157 HD
HETATM   40  H   UNL     1      19.196  47.479  43.619  1.00  0.00     0.157 HD
ENDBRANCH   6  38
TORSDOF 10
ENDMDL
MODEL 3
REMARK VINA RESULT:      -8.4     10.812     14.158
REMARK  10 active torsions:
REMARK  status: ('A' for Active; 'I' for Inactive)
REMARK    1  A    between atoms: C_3  and  N_4 
REMARK    2  A    between atoms: C_5  and  S_6 
REMARK    3  A    between atoms: S_6  and  C_7 
REMARK    4  A    between atoms: C_7  and  C_8 
REMARK       I    between atoms: C_8  and  N_9 
REMARK    5  A    between atoms: N_9  and  C_10 
REMARK    6  A    between atoms: C_10  and  C_11 
REMARK    7  A    between atoms: C_11  and  C_12 
REMARK    8  A    between atoms: C_14  and  O_15 
REMARK    9  A    between atoms: C_17  and  O_18 
REMARK   10  A    between atoms: C_26  and  N_27 
ROOT
HETATM    1  N   UNL     1      27.961  47.936  40.152  1.00  0.00    -0.275 N 
HETATM    2  C   UNL     1      28.998  47.062  39.734  1.00  0.00     0.177 A 
HETATM    3  N   UNL     1      29.025  45.762  39.903  1.00  0.00    -0.204 NA
HETATM    4  C   UNL     1      27.914  45.270  40.496  1.00  0.00     0.162 A 
HETATM    5  C   UNL     1      26.807  45.932  40.950  1.00  0.00     0.081 A 
HETATM    6  C   UNL     1      26.793  47.356  40.796  1.00  0.00     0.124 A 
HETATM    7  N   UNL     1      27.675  43.952  40.751  1.00  0.00    -0.260 N 
HETATM    8  H   UNL     1      28.275  43.162  40.544  1.00  0.00     0.191 HD
HETATM    9  N   UNL     1      26.483  43.737  41.350  1.00  0.00    -0.177 NA
HETATM   10  C   UNL     1      25.937  44.959  41.467  1.00  0.00     0.068 A 
HETATM   11  C   UNL     1      24.596  45.103  42.079  1.00  0.00     0.073 C 
ENDROOT
BRANCH   2  12
HETATM   12  S   UNL     1      30.449  47.727  38.956  1.00  0.00    -0.082 SA
BRANCH  12  13
HETATM   13  C   UNL     1      31.075  48.771  40.300  1.00  0.00     0.185 C 
BRANCH  13  14
HETATM   14  C   UNL     1      32.059  48.028  41.196  1.00  0.00     0.227 C 
HETATM   15  N   UNL     1      32.302  48.553  42.440  1.00  0.00    -0.360 N 
HETATM   16  H   UNL     1      32.991  48.033  42.976  1.00  0.00     0.162 HD
HETATM   17  O   UNL     1      32.621  46.978  40.878  1.00  0.00    -0.273 OA
BRANCH  15  18
HETATM   18  C   UNL     1      31.738  49.767  43.012  1.00  0.00     0.127 C 
BRANCH  18  19
HETATM   19  C   UNL     1      32.785  50.851  43.289  1.00  0.00     0.058 C 
BRANCH  19  20
HETATM   20  C   UNL     1      33.604  51.237  42.077  1.00  0.00    -0.054 A 
HETATM   21  C   UNL     1      32.991  51.520  40.846  1.00  0.00     0.046 A 
HETATM   22  C   UNL     1      33.754  51.860  39.721  1.00  0.00     0.102 A 
HETATM   23  C   UNL     1      35.153  51.957  39.832  1.00  0.00     0.101 A 
HETATM   24  C   UNL     1      35.763  51.701  41.063  1.00  0.00     0.040 A 
HETATM   25  C   UNL     1      34.995  51.344  42.176  1.00  0.00     0.010 A 
BRANCH  22  26
HETATM   26  O   UNL     1      33.223  52.132  38.484  1.00  0.00    -0.353 OA
HETATM   27  C   UNL     1      31.977  51.534  38.157  1.00  0.00     0.210 C 
ENDBRANCH  22  26
BRANCH  23  28
HETATM   28  O   UNL     1      35.827  52.301  38.687  1.00  0.00    -0.353 OA
HETATM   29  C   UNL     1      37.189  51.914  38.582  1.00  0.00     0.210 C 
ENDBRANCH  23  28
ENDBRANCH  19  20
ENDBRANCH  18  19
ENDBRANCH  15  18
ENDBRANCH  13  14
ENDBRANCH  12  13
ENDBRANCH   2  12
BRANCH   1  30
HETATM   30  C   UNL     1      28.002  49.337  39.872  1.00  0.00     0.051 A 
HETATM   31  C   UNL     1      27.549  49.868  38.645  1.00  0.00    -0.035 A 
HETATM   32  C   UNL     1      26.878  49.028  37.591  1.00  0.00     0.050 C 
HETATM   33  C   UNL     1      27.677  51.248  38.410  1.00  0.00     0.011 A 
HETATM   34  C   UNL     1      28.283  52.082  39.351  1.00  0.00     0.024 A 
HETATM   35  C   UNL     1      28.748  51.548  40.547  1.00  0.00     0.036 A 
HETATM   36  C   UNL     1      28.607  50.189  40.814  1.00  0.00     0.054 A 
HETATM   37 CL   UNL     1      29.526  52.566  41.694  1.00  0.00    -0.084 Cl
ENDBRANCH   1  30
BRANCH   6  38
HETATM   38  N   UNL     1      25.788  48.084  41.242  1.00  0.00    -0.384 N 
HETATM   39  H   UNL     1      25.403  48.846  40.706  1.00  0.00     0.157 HD
HETATM   40  H   UNL     1      25.377  47.874  42.143  1.00  0.00     0.157 HD
ENDBRANCH   6  38
TORSDOF 10
ENDMDL
MODEL 4
REMARK VINA RESULT:      -8.4     10.595     13.221
REMARK  10 active torsions:
REMARK  status: ('A' for Active; 'I' for Inactive)
REMARK    1  A    between atoms: C_3  and  N_4 
REMARK    2  A    between atoms: C_5  and  S_6 
REMARK    3  A    between atoms: S_6  and  C_7 
REMARK    4  A    between atoms: C_7  and  C_8 
REMARK       I    between atoms: C_8  and  N_9 
REMARK    5  A    between atoms: N_9  and  C_10 
REMARK    6  A    between atoms: C_10  and  C_11 
REMARK    7  A    between atoms: C_11  and  C_12 
REMARK    8  A    between atoms: C_14  and  O_15 
REMARK    9  A    between atoms: C_17  and  O_18 
REMARK   10  A    between atoms: C_26  and  N_27 
ROOT
HETATM    1  N   UNL     1      27.407  47.173  40.229  1.00  0.00    -0.275 N 
HETATM    2  C   UNL     1      27.851  47.004  38.891  1.00  0.00     0.177 A 
HETATM    3  N   UNL     1      29.048  47.286  38.435  1.00  0.00    -0.204 NA
HETATM    4  C   UNL     1      29.899  47.730  39.387  1.00  0.00     0.162 A 
HETATM    5  C   UNL     1      29.679  47.939  40.720  1.00  0.00     0.081 A 
HETATM    6  C   UNL     1      28.361  47.665  41.211  1.00  0.00     0.124 A 
HETATM    7  N   UNL     1      31.208  48.053  39.184  1.00  0.00    -0.260 N 
HETATM    8  H   UNL     1      31.729  48.015  38.315  1.00  0.00     0.191 HD
HETATM    9  N   UNL     1      31.832  48.466  40.309  1.00  0.00    -0.177 NA
HETATM   10  C   UNL     1      30.891  48.388  41.265  1.00  0.00     0.068 A 
HETATM   11  C   UNL     1      31.234  48.759  42.657  1.00  0.00     0.073 C 
ENDROOT
BRANCH   2  12
HETATM   12  S   UNL     1      26.718  46.419  37.656  1.00  0.00    -0.082 SA
BRANCH  12  13
HETATM   13  C   UNL     1      26.533  47.924  36.661  1.00  0.00     0.185 C 
BRANCH  13  14
HETATM   14  C   UNL     1      25.331  48.757  37.092  1.00  0.00     0.227 C 
HETATM   15  N   UNL     1      25.581  49.921  37.773  1.00  0.00    -0.360 N 
HETATM   16  H   UNL     1      24.741  50.414  38.062  1.00  0.00     0.162 HD
HETATM   17  O   UNL     1      24.162  48.458  36.840  1.00  0.00    -0.273 OA
BRANCH  15  18
HETATM   18  C   UNL     1      26.877  50.459  38.159  1.00  0.00     0.127 C 
BRANCH  18  19
HETATM   19  C   UNL     1      27.001  50.726  39.663  1.00  0.00     0.058 C 
BRANCH  19  20
HETATM   20  C   UNL     1      28.360  51.238  40.086  1.00  0.00    -0.054 A 
HETATM   21  C   UNL     1      29.363  51.503  39.139  1.00  0.00     0.046 A 
HETATM   22  C   UNL     1      30.626  51.960  39.535  1.00  0.00     0.102 A 
HETATM   23  C   UNL     1      30.886  52.195  40.898  1.00  0.00     0.101 A 
HETATM   24  C   UNL     1      29.880  51.957  41.839  1.00  0.00     0.040 A 
HETATM   25  C   UNL     1      28.628  51.482  41.436  1.00  0.00     0.010 A 
BRANCH  22  26
HETATM   26  O   UNL     1      31.658  52.223  38.667  1.00  0.00    -0.353 OA
HETATM   27  C   UNL     1      32.203  51.129  37.944  1.00  0.00     0.210 C 
ENDBRANCH  22  26
BRANCH  23  28
HETATM   28  O   UNL     1      32.145  52.648  41.204  1.00  0.00    -0.353 OA
HETATM   29  C   UNL     1      33.069  51.714  41.742  1.00  0.00     0.210 C 
ENDBRANCH  23  28
ENDBRANCH  19  20
ENDBRANCH  18  19
ENDBRANCH  15  18
ENDBRANCH  13  14
ENDBRANCH  12  13
ENDBRANCH   2  12
BRANCH   1  30
HETATM   30  C   UNL     1      26.095  46.785  40.638  1.00  0.00     0.051 A 
HETATM   31  C   UNL     1      25.811  45.485  41.110  1.00  0.00    -0.035 A 
HETATM   32  C   UNL     1      26.880  44.449  41.337  1.00  0.00     0.050 C 
HETATM   33  C   UNL     1      24.485  45.151  41.436  1.00  0.00     0.011 A 
HETATM   34  C   UNL     1      23.450  46.070  41.256  1.00  0.00     0.024 A 
HETATM   35  C   UNL     1      23.733  47.340  40.769  1.00  0.00     0.036 A 
HETATM   36  C   UNL     1      25.043  47.703  40.465  1.00  0.00     0.054 A 
HETATM   37 CL   UNL     1      22.456  48.464  40.513  1.00  0.00    -0.084 Cl
ENDBRANCH   1  30
BRANCH   6  38
HETATM   38  N   UNL     1      28.042  47.877  42.473  1.00  0.00    -0.384 N 
HETATM   39  H   UNL     1      28.194  48.769  42.918  1.00  0.00     0.157 HD
HETATM   40  H   UNL     1      27.623  47.133  43.016  1.00  0.00     0.157 HD
ENDBRANCH   6  38
TORSDOF 10
ENDMDL
MODEL 5
REMARK VINA RESULT:      -8.3      2.483      4.668
REMARK  10 active torsions:
REMARK  status: ('A' for Active; 'I' for Inactive)
REMARK    1  A    between atoms: C_3  and  N_4 
REMARK    2  A    between atoms: C_5  and  S_6 
REMARK    3  A    between atoms: S_6  and  C_7 
REMARK    4  A    between atoms: C_7  and  C_8 
REMARK       I    between atoms: C_8  and  N_9 
REMARK    5  A    between atoms: N_9  and  C_10 
REMARK    6  A    between atoms: C_10  and  C_11 
REMARK    7  A    between atoms: C_11  and  C_12 
REMARK    8  A    between atoms: C_14  and  O_15 
REMARK    9  A    between atoms: C_17  and  O_18 
REMARK   10  A    between atoms: C_26  and  N_27 
ROOT
HETATM    1  N   UNL     1      26.009  42.985  50.469  1.00  0.00    -0.275 N 
HETATM    2  C   UNL     1      26.276  44.372  50.615  1.00  0.00     0.177 A 
HETATM    3  N   UNL     1      26.991  44.923  51.566  1.00  0.00    -0.204 NA
HETATM    4  C   UNL     1      27.531  44.029  52.425  1.00  0.00     0.162 A 
HETATM    5  C   UNL     1      27.416  42.667  52.446  1.00  0.00     0.081 A 
HETATM    6  C   UNL     1      26.605  42.068  51.428  1.00  0.00     0.124 A 
HETATM    7  N   UNL     1      28.344  44.338  53.474  1.00  0.00    -0.260 N 
HETATM    8  H   UNL     1      28.659  45.256  53.766  1.00  0.00     0.191 HD
HETATM    9  N   UNL     1      28.747  43.251  54.169  1.00  0.00    -0.177 NA
HETATM   10  C   UNL     1      28.182  42.213  53.531  1.00  0.00     0.068 A 
HETATM   11  C   UNL     1      28.424  40.836  54.021  1.00  0.00     0.073 C 
ENDROOT
BRANCH   2  12
HETATM   12  S   UNL     1      25.558  45.530  49.476  1.00  0.00    -0.082 SA
BRANCH  12  13
HETATM   13  C   UNL     1      26.324  47.065  50.065  1.00  0.00     0.185 C 
BRANCH  13  14
HETATM   14  C   UNL     1      27.435  47.548  49.141  1.00  0.00     0.227 C 
HETATM   15  N   UNL     1      27.364  48.841  48.689  1.00  0.00    -0.360 N 
HETATM   16  H   UNL     1      28.113  49.093  48.050  1.00  0.00     0.162 HD
HETATM   17  O   UNL     1      28.398  46.856  48.805  1.00  0.00    -0.273 OA
BRANCH  15  18
HETATM   18  C   UNL     1      26.326  49.821  48.973  1.00  0.00     0.127 C 
BRANCH  18  19
HETATM   19  C   UNL     1      25.324  49.995  47.826  1.00  0.00     0.058 C 
BRANCH  19  20
HETATM   20  C   UNL     1      23.877  49.874  48.251  1.00  0.00    -0.054 A 
HETATM   21  C   UNL     1      23.233  48.627  48.291  1.00  0.00     0.046 A 
HETATM   22  C   UNL     1      21.889  48.522  48.668  1.00  0.00     0.102 A 
HETATM   23  C   UNL     1      21.180  49.676  49.049  1.00  0.00     0.101 A 
HETATM   24  C   UNL     1      21.826  50.914  49.035  1.00  0.00     0.040 A 
HETATM   25  C   UNL     1      23.163  51.013  48.639  1.00  0.00     0.010 A 
BRANCH  22  26
HETATM   26  O   UNL     1      21.192  47.339  48.713  1.00  0.00    -0.353 OA
HETATM   27  C   UNL     1      21.912  46.141  48.460  1.00  0.00     0.210 C 
ENDBRANCH  22  26
BRANCH  23  28
HETATM   28  O   UNL     1      19.869  49.487  49.411  1.00  0.00    -0.353 OA
HETATM   29  C   UNL     1      18.866  49.973  48.532  1.00  0.00     0.210 C 
ENDBRANCH  23  28
ENDBRANCH  19  20
ENDBRANCH  18  19
ENDBRANCH  15  18
ENDBRANCH  13  14
ENDBRANCH  12  13
ENDBRANCH   2  12
BRANCH   1  30
HETATM   30  C   UNL     1      25.259  42.478  49.364  1.00  0.00     0.051 A 
HETATM   31  C   UNL     1      23.849  42.414  49.384  1.00  0.00    -0.035 A 
HETATM   32  C   UNL     1      23.022  42.985  50.504  1.00  0.00     0.050 C 
HETATM   33  C   UNL     1      23.176  41.845  48.288  1.00  0.00     0.011 A 
HETATM   34  C   UNL     1      23.885  41.305  47.214  1.00  0.00     0.024 A 
HETATM   35  C   UNL     1      25.274  41.350  47.212  1.00  0.00     0.036 A 
HETATM   36  C   UNL     1      25.962  41.935  48.273  1.00  0.00     0.054 A 
HETATM   37 CL   UNL     1      26.153  40.656  45.907  1.00  0.00    -0.084 Cl
ENDBRANCH   1  30
BRANCH   6  38
HETATM   38  N   UNL     1      26.400  40.766  51.393  1.00  0.00    -0.384 N 
HETATM   39  H   UNL     1      25.488  40.374  51.216  1.00  0.00     0.157 HD
HETATM   40  H   UNL     1      27.176  40.132  51.537  1.00  0.00     0.157 HD
ENDBRANCH   6  38
TORSDOF 10
ENDMDL
MODEL 6
REMARK VINA RESULT:      -8.3     11.858     14.609
REMARK  10 active torsions:
REMARK  status: ('A' for Active; 'I' for Inactive)
REMARK    1  A    between atoms: C_3  and  N_4 
REMARK    2  A    between atoms: C_5  and  S_6 
REMARK    3  A    between atoms: S_6  and  C_7 
REMARK    4  A    between atoms: C_7  and  C_8 
REMARK       I    between atoms: C_8  and  N_9 
REMARK    5  A    between atoms: N_9  and  C_10 
REMARK    6  A    between atoms: C_10  and  C_11 
REMARK    7  A    between atoms: C_11  and  C_12 
REMARK    8  A    between atoms: C_14  and  O_15 
REMARK    9  A    between atoms: C_17  and  O_18 
REMARK   10  A    between atoms: C_26  and  N_27 
ROOT
HETATM    1  N   UNL     1      27.852  48.653  39.031  1.00  0.00    -0.275 N 
HETATM    2  C   UNL     1      28.899  47.743  38.730  1.00  0.00     0.177 A 
HETATM    3  N   UNL     1      28.753  46.537  38.237  1.00  0.00    -0.204 NA
HETATM    4  C   UNL     1      27.468  46.211  37.973  1.00  0.00     0.162 A 
HETATM    5  C   UNL     1      26.329  46.943  38.166  1.00  0.00     0.081 A 
HETATM    6  C   UNL     1      26.485  48.248  38.738  1.00  0.00     0.124 A 
HETATM    7  N   UNL     1      27.051  45.036  37.422  1.00  0.00    -0.260 N 
HETATM    8  H   UNL     1      27.620  44.248  37.136  1.00  0.00     0.191 HD
HETATM    9  N   UNL     1      25.710  44.973  37.262  1.00  0.00    -0.177 NA
HETATM   10  C   UNL     1      25.260  46.155  37.714  1.00  0.00     0.068 A 
HETATM   11  C   UNL     1      23.808  46.445  37.676  1.00  0.00     0.073 C 
ENDROOT
BRANCH   2  12
HETATM   12  S   UNL     1      30.580  48.190  39.082  1.00  0.00    -0.082 SA
BRANCH  12  13
HETATM   13  C   UNL     1      30.637  47.824  40.857  1.00  0.00     0.185 C 
BRANCH  13  14
HETATM   14  C   UNL     1      32.062  47.809  41.398  1.00  0.00     0.227 C 
HETATM   15  N   UNL     1      32.361  48.681  42.414  1.00  0.00    -0.360 N 
HETATM   16  H   UNL     1      33.333  48.648  42.708  1.00  0.00     0.162 HD
HETATM   17  O   UNL     1      32.941  47.044  40.997  1.00  0.00    -0.273 OA
BRANCH  15  18
HETATM   18  C   UNL     1      31.473  49.652  43.036  1.00  0.00     0.127 C 
BRANCH  18  19
HETATM   19  C   UNL     1      32.025  51.082  43.015  1.00  0.00     0.058 C 
BRANCH  19  20
HETATM   20  C   UNL     1      33.002  51.346  41.891  1.00  0.00    -0.054 A 
HETATM   21  C   UNL     1      32.557  51.558  40.576  1.00  0.00     0.046 A 
HETATM   22  C   UNL     1      33.466  51.785  39.535  1.00  0.00     0.102 A 
HETATM   23  C   UNL     1      34.845  51.838  39.813  1.00  0.00     0.101 A 
HETATM   24  C   UNL     1      35.287  51.653  41.125  1.00  0.00     0.040 A 
HETATM   25  C   UNL     1      34.374  51.408  42.155  1.00  0.00     0.010 A 
BRANCH  22  26
HETATM   26  O   UNL     1      33.103  51.984  38.224  1.00  0.00    -0.353 OA
HETATM   27  C   UNL     1      31.950  51.304  37.752  1.00  0.00     0.210 C 
ENDBRANCH  22  26
BRANCH  23  28
HETATM   28  O   UNL     1      35.668  52.071  38.739  1.00  0.00    -0.353 OA
HETATM   29  C   UNL     1      36.965  51.494  38.767  1.00  0.00     0.210 C 
ENDBRANCH  23  28
ENDBRANCH  19  20
ENDBRANCH  18  19
ENDBRANCH  15  18
ENDBRANCH  13  14
ENDBRANCH  12  13
ENDBRANCH   2  12
BRANCH   1  30
HETATM   30  C   UNL     1      28.118  49.969  39.517  1.00  0.00     0.051 A 
HETATM   31  C   UNL     1      28.039  50.290  40.890  1.00  0.00    -0.035 A 
HETATM   32  C   UNL     1      27.794  49.255  41.956  1.00  0.00     0.050 C 
HETATM   33  C   UNL     1      28.252  51.619  41.295  1.00  0.00     0.011 A 
HETATM   34  C   UNL     1      28.491  52.624  40.355  1.00  0.00     0.024 A 
HETATM   35  C   UNL     1      28.545  52.306  39.004  1.00  0.00     0.036 A 
HETATM   36  C   UNL     1      28.365  50.990  38.582  1.00  0.00     0.054 A 
HETATM   37 CL   UNL     1      28.805  53.545  37.841  1.00  0.00    -0.084 Cl
ENDBRANCH   1  30
BRANCH   6  38
HETATM   38  N   UNL     1      25.442  49.010  39.002  1.00  0.00    -0.384 N 
HETATM   39  H   UNL     1      24.497  48.683  38.872  1.00  0.00     0.157 HD
HETATM   40  H   UNL     1      25.583  49.948  39.353  1.00  0.00     0.157 HD
ENDBRANCH   6  38
TORSDOF 10
ENDMDL
MODEL 7
REMARK VINA RESULT:      -8.2      4.693     10.041
REMARK  10 active torsions:
REMARK  status: ('A' for Active; 'I' for Inactive)
REMARK    1  A    between atoms: C_3  and  N_4 
REMARK    2  A    between atoms: C_5  and  S_6 
REMARK    3  A    between atoms: S_6  and  C_7 
REMARK    4  A    between atoms: C_7  and  C_8 
REMARK       I    between atoms: C_8  and  N_9 
REMARK    5  A    between atoms: N_9  and  C_10 
REMARK    6  A    between atoms: C_10  and  C_11 
REMARK    7  A    between atoms: C_11  and  C_12 
REMARK    8  A    between atoms: C_14  and  O_15 
REMARK    9  A    between atoms: C_17  and  O_18 
REMARK   10  A    between atoms: C_26  and  N_27 
ROOT
HETATM    1  N   UNL     1      20.871  47.264  47.349  1.00  0.00    -0.275 N 
HETATM    2  C   UNL     1      21.927  46.991  48.258  1.00  0.00     0.177 A 
HETATM    3  N   UNL     1      22.431  47.832  49.128  1.00  0.00    -0.204 NA
HETATM    4  C   UNL     1      21.813  49.034  49.140  1.00  0.00     0.162 A 
HETATM    5  C   UNL     1      20.775  49.485  48.372  1.00  0.00     0.081 A 
HETATM    6  C   UNL     1      20.248  48.578  47.396  1.00  0.00     0.124 A 
HETATM    7  N   UNL     1      22.117  50.068  49.975  1.00  0.00    -0.260 N 
HETATM    8  H   UNL     1      22.832  50.096  50.692  1.00  0.00     0.191 HD
HETATM    9  N   UNL     1      21.339  51.156  49.777  1.00  0.00    -0.177 NA
HETATM   10  C   UNL     1      20.500  50.796  48.791  1.00  0.00     0.068 A 
HETATM   11  C   UNL     1      19.479  51.757  48.316  1.00  0.00     0.073 C 
ENDROOT
BRANCH   2  12
HETATM   12  S   UNL     1      22.726  45.406  48.227  1.00  0.00    -0.082 SA
BRANCH  12  13
HETATM   13  C   UNL     1      23.939  45.640  49.554  1.00  0.00     0.185 C 
BRANCH  13  14
HETATM   14  C   UNL     1      23.885  44.523  50.590  1.00  0.00     0.227 C 
HETATM   15  N   UNL     1      24.830  44.536  51.584  1.00  0.00    -0.360 N 
HETATM   16  H   UNL     1      24.763  43.749  52.223  1.00  0.00     0.162 HD
HETATM   17  O   UNL     1      23.028  43.637  50.599  1.00  0.00    -0.273 OA
BRANCH  15  18
HETATM   18  C   UNL     1      25.912  45.492  51.761  1.00  0.00     0.127 C 
BRANCH  18  19
HETATM   19  C   UNL     1      25.896  46.182  53.130  1.00  0.00     0.058 C 
BRANCH  19  20
HETATM   20  C   UNL     1      27.082  45.839  54.005  1.00  0.00    -0.054 A 
HETATM   21  C   UNL     1      27.763  44.620  53.859  1.00  0.00     0.046 A 
HETATM   22  C   UNL     1      28.850  44.298  54.682  1.00  0.00     0.102 A 
HETATM   23  C   UNL     1      29.292  45.224  55.646  1.00  0.00     0.101 A 
HETATM   24  C   UNL     1      28.631  46.448  55.775  1.00  0.00     0.040 A 
HETATM   25  C   UNL     1      27.535  46.753  54.962  1.00  0.00     0.010 A 
BRANCH  22  26
HETATM   26  O   UNL     1      29.552  43.120  54.607  1.00  0.00    -0.353 OA
HETATM   27  C   UNL     1      30.199  42.818  53.379  1.00  0.00     0.210 C 
ENDBRANCH  22  26
BRANCH  23  28
HETATM   28  O   UNL     1      30.366  44.836  56.408  1.00  0.00    -0.353 OA
HETATM   29  C   UNL     1      30.495  45.403  57.703  1.00  0.00     0.210 C 
ENDBRANCH  23  28
ENDBRANCH  19  20
ENDBRANCH  18  19
ENDBRANCH  15  18
ENDBRANCH  13  14
ENDBRANCH  12  13
ENDBRANCH   2  12
BRANCH   1  30
HETATM   30  C   UNL     1      20.357  46.259  46.474  1.00  0.00     0.051 A 
HETATM   31  C   UNL     1      19.322  45.382  46.867  1.00  0.00    -0.035 A 
HETATM   32  C   UNL     1      18.598  45.513  48.180  1.00  0.00     0.050 C 
HETATM   33  C   UNL     1      18.907  44.375  45.978  1.00  0.00     0.011 A 
HETATM   34  C   UNL     1      19.533  44.207  44.742  1.00  0.00     0.024 A 
HETATM   35  C   UNL     1      20.566  45.060  44.371  1.00  0.00     0.036 A 
HETATM   36  C   UNL     1      20.976  46.083  45.223  1.00  0.00     0.054 A 
HETATM   37 CL   UNL     1      21.363  44.835  42.864  1.00  0.00    -0.084 Cl
ENDBRANCH   1  30
BRANCH   6  38
HETATM   38  N   UNL     1      19.276  48.937  46.581  1.00  0.00    -0.384 N 
HETATM   39  H   UNL     1      19.351  48.828  45.581  1.00  0.00     0.157 HD
HETATM   40  H   UNL     1      18.422  49.327  46.959  1.00  0.00     0.157 HD
ENDBRANCH   6  38
TORSDOF 10
ENDMDL
MODEL 8
REMARK VINA RESULT:      -8.2      5.026      8.763
REMARK  10 active torsions:
REMARK  status: ('A' for Active; 'I' for Inactive)
REMARK    1  A    between atoms: C_3  and  N_4 
REMARK    2  A    between atoms: C_5  and  S_6 
REMARK    3  A    between atoms: S_6  and  C_7 
REMARK    4  A    between atoms: C_7  and  C_8 
REMARK       I    between atoms: C_8  and  N_9 
REMARK    5  A    between atoms: N_9  and  C_10 
REMARK    6  A    between atoms: C_10  and  C_11 
REMARK    7  A    between atoms: C_11  and  C_12 
REMARK    8  A    between atoms: C_14  and  O_15 
REMARK    9  A    between atoms: C_17  and  O_18 
REMARK   10  A    between atoms: C_26  and  N_27 
ROOT
HETATM    1  N   UNL     1      25.438  41.085  47.842  1.00  0.00    -0.275 N 
HETATM    2  C   UNL     1      25.869  40.530  49.076  1.00  0.00     0.177 A 
HETATM    3  N   UNL     1      25.611  41.010  50.268  1.00  0.00    -0.204 NA
HETATM    4  C   UNL     1      24.821  42.107  50.251  1.00  0.00     0.162 A 
HETATM    5  C   UNL     1      24.288  42.777  49.185  1.00  0.00     0.081 A 
HETATM    6  C   UNL     1      24.599  42.273  47.880  1.00  0.00     0.124 A 
HETATM    7  N   UNL     1      24.376  42.774  51.354  1.00  0.00    -0.260 N 
HETATM    8  H   UNL     1      24.563  42.559  52.326  1.00  0.00     0.191 HD
HETATM    9  N   UNL     1      23.597  43.837  51.051  1.00  0.00    -0.177 NA
HETATM   10  C   UNL     1      23.533  43.837  49.709  1.00  0.00     0.068 A 
HETATM   11  C   UNL     1      22.735  44.877  49.018  1.00  0.00     0.073 C 
ENDROOT
BRANCH   2  12
HETATM   12  S   UNL     1      26.904  39.088  49.077  1.00  0.00    -0.082 SA
BRANCH  12  13
HETATM   13  C   UNL     1      28.506  39.851  49.449  1.00  0.00     0.185 C 
BRANCH  13  14
HETATM   14  C   UNL     1      29.220  39.161  50.604  1.00  0.00     0.227 C 
HETATM   15  N   UNL     1      29.134  39.747  51.842  1.00  0.00    -0.360 N 
HETATM   16  H   UNL     1      29.657  39.260  52.563  1.00  0.00     0.162 HD
HETATM   17  O   UNL     1      29.839  38.101  50.494  1.00  0.00    -0.273 OA
BRANCH  15  18
HETATM   18  C   UNL     1      28.447  40.983  52.188  1.00  0.00     0.127 C 
BRANCH  18  19
HETATM   19  C   UNL     1      29.391  42.088  52.674  1.00  0.00     0.058 C 
BRANCH  19  20
HETATM   20  C   UNL     1      28.681  43.327  53.173  1.00  0.00    -0.054 A 
HETATM   21  C   UNL     1      27.590  43.869  52.475  1.00  0.00     0.046 A 
HETATM   22  C   UNL     1      26.946  45.027  52.929  1.00  0.00     0.102 A 
HETATM   23  C   UNL     1      27.373  45.637  54.124  1.00  0.00     0.101 A 
HETATM   24  C   UNL     1      28.442  45.084  54.833  1.00  0.00     0.040 A 
HETATM   25  C   UNL     1      29.091  43.939  54.361  1.00  0.00     0.010 A 
BRANCH  22  26
HETATM   26  O   UNL     1      25.885  45.621  52.290  1.00  0.00    -0.353 OA
HETATM   27  C   UNL     1      26.143  46.274  51.056  1.00  0.00     0.210 C 
ENDBRANCH  22  26
BRANCH  23  28
HETATM   28  O   UNL     1      26.686  46.764  54.504  1.00  0.00    -0.353 OA
HETATM   29  C   UNL     1      27.271  47.586  55.503  1.00  0.00     0.210 C 
ENDBRANCH  23  28
ENDBRANCH  19  20
ENDBRANCH  18  19
ENDBRANCH  15  18
ENDBRANCH  13  14
ENDBRANCH  12  13
ENDBRANCH   2  12
BRANCH   1  30
HETATM   30  C   UNL     1      25.728  40.454  46.594  1.00  0.00     0.051 A 
HETATM   31  C   UNL     1      24.876  39.478  46.032  1.00  0.00    -0.035 A 
HETATM   32  C   UNL     1      23.544  39.117  46.632  1.00  0.00     0.050 C 
HETATM   33  C   UNL     1      25.253  38.851  44.832  1.00  0.00     0.011 A 
HETATM   34  C   UNL     1      26.473  39.149  44.221  1.00  0.00     0.024 A 
HETATM   35  C   UNL     1      27.318  40.093  44.792  1.00  0.00     0.036 A 
HETATM   36  C   UNL     1      26.952  40.748  45.966  1.00  0.00     0.054 A 
HETATM   37 CL   UNL     1      28.836  40.438  44.062  1.00  0.00    -0.084 Cl
ENDBRANCH   1  30
BRANCH   6  38
HETATM   38  N   UNL     1      24.167  42.877  46.791  1.00  0.00    -0.384 N 
HETATM   39  H   UNL     1      23.351  43.470  46.798  1.00  0.00     0.157 HD
HETATM   40  H   UNL     1      24.666  42.756  45.919  1.00  0.00     0.157 HD
ENDBRANCH   6  38
TORSDOF 10
ENDMDL
MODEL 9
REMARK VINA RESULT:      -8.2     10.734     13.782
REMARK  10 active torsions:
REMARK  status: ('A' for Active; 'I' for Inactive)
REMARK    1  A    between atoms: C_3  and  N_4 
REMARK    2  A    between atoms: C_5  and  S_6 
REMARK    3  A    between atoms: S_6  and  C_7 
REMARK    4  A    between atoms: C_7  and  C_8 
REMARK       I    between atoms: C_8  and  N_9 
REMARK    5  A    between atoms: N_9  and  C_10 
REMARK    6  A    between atoms: C_10  and  C_11 
REMARK    7  A    between atoms: C_11  and  C_12 
REMARK    8  A    between atoms: C_14  and  O_15 
REMARK    9  A    between atoms: C_17  and  O_18 
REMARK   10  A    between atoms: C_26  and  N_27 
ROOT
HETATM    1  N   UNL     1      26.366  48.639  39.689  1.00  0.00    -0.275 N 
HETATM    2  C   UNL     1      26.448  48.825  38.284  1.00  0.00     0.177 A 
HETATM    3  N   UNL     1      27.027  49.830  37.673  1.00  0.00    -0.204 NA
HETATM    4  C   UNL     1      27.617  50.709  38.514  1.00  0.00     0.162 A 
HETATM    5  C   UNL     1      27.672  50.700  39.880  1.00  0.00     0.081 A 
HETATM    6  C   UNL     1      27.009  49.621  40.549  1.00  0.00     0.124 A 
HETATM    7  N   UNL     1      28.317  51.815  38.133  1.00  0.00    -0.260 N 
HETATM    8  H   UNL     1      28.496  52.142  37.191  1.00  0.00     0.191 HD
HETATM    9  N   UNL     1      28.807  52.518  39.179  1.00  0.00    -0.177 NA
HETATM   10  C   UNL     1      28.417  51.827  40.263  1.00  0.00     0.068 A 
HETATM   11  C   UNL     1      28.796  52.309  41.610  1.00  0.00     0.073 C 
ENDROOT
BRANCH   2  12
HETATM   12  S   UNL     1      25.667  47.660  37.197  1.00  0.00    -0.082 SA
BRANCH  12  13
HETATM   13  C   UNL     1      27.122  47.022  36.322  1.00  0.00     0.185 C 
BRANCH  13  14
HETATM   14  C   UNL     1      27.587  45.681  36.878  1.00  0.00     0.227 C 
HETATM   15  N   UNL     1      28.632  45.693  37.766  1.00  0.00    -0.360 N 
HETATM   16  H   UNL     1      28.918  44.768  38.074  1.00  0.00     0.162 HD
HETATM   17  O   UNL     1      27.062  44.602  36.597  1.00  0.00    -0.273 OA
BRANCH  15  18
HETATM   18  C   UNL     1      29.379  46.850  38.237  1.00  0.00     0.127 C 
BRANCH  18  19
HETATM   19  C   UNL     1      29.787  46.752  39.712  1.00  0.00     0.058 C 
BRANCH  19  20
HETATM   20  C   UNL     1      30.447  48.002  40.251  1.00  0.00    -0.054 A 
HETATM   21  C   UNL     1      31.119  48.893  39.399  1.00  0.00     0.046 A 
HETATM   22  C   UNL     1      31.744  50.040  39.904  1.00  0.00     0.102 A 
HETATM   23  C   UNL     1      31.668  50.326  41.280  1.00  0.00     0.101 A 
HETATM   24  C   UNL     1      30.978  49.453  42.125  1.00  0.00     0.040 A 
HETATM   25  C   UNL     1      30.373  48.301  41.615  1.00  0.00     0.010 A 
BRANCH  22  26
HETATM   26  O   UNL     1      32.432  50.946  39.133  1.00  0.00    -0.353 OA
HETATM   27  C   UNL     1      31.915  51.238  37.843  1.00  0.00     0.210 C 
ENDBRANCH  22  26
BRANCH  23  28
HETATM   28  O   UNL     1      32.301  51.472  41.694  1.00  0.00    -0.353 OA
HETATM   29  C   UNL     1      32.659  51.568  43.064  1.00  0.00     0.210 C 
ENDBRANCH  23  28
ENDBRANCH  19  20
ENDBRANCH  18  19
ENDBRANCH  15  18
ENDBRANCH  13  14
ENDBRANCH  12  13
ENDBRANCH   2  12
BRANCH   1  30
HETATM   30  C   UNL     1      25.758  47.479  40.258  1.00  0.00     0.051 A 
HETATM   31  C   UNL     1      24.377  47.425  40.550  1.00  0.00    -0.035 A 
HETATM   32  C   UNL     1      23.421  48.524  40.172  1.00  0.00     0.050 C 
HETATM   33  C   UNL     1      23.855  46.275  41.168  1.00  0.00     0.011 A 
HETATM   34  C   UNL     1      24.689  45.218  41.535  1.00  0.00     0.024 A 
HETATM   35  C   UNL     1      26.050  45.288  41.267  1.00  0.00     0.036 A 
HETATM   36  C   UNL     1      26.586  46.404  40.630  1.00  0.00     0.054 A 
HETATM   37 CL   UNL     1      27.086  44.002  41.748  1.00  0.00    -0.084 Cl
ENDBRANCH   1  30
BRANCH   6  38
HETATM   38  N   UNL     1      26.971  49.551  41.866  1.00  0.00    -0.384 N 
HETATM   39  H   UNL     1      26.911  48.670  42.352  1.00  0.00     0.157 HD
HETATM   40  H   UNL     1      27.010  50.401  42.414  1.00  0.00     0.157 HD
ENDBRANCH   6  38
TORSDOF 10
ENDMDL
MODEL 10
REMARK VINA RESULT:      -8.2     11.620     15.013
REMARK  10 active torsions:
REMARK  status: ('A' for Active; 'I' for Inactive)
REMARK    1  A    between atoms: C_3  and  N_4 
REMARK    2  A    between atoms: C_5  and  S_6 
REMARK    3  A    between atoms: S_6  and  C_7 
REMARK    4  A    between atoms: C_7  and  C_8 
REMARK       I    between atoms: C_8  and  N_9 
REMARK    5  A    between atoms: N_9  and  C_10 
REMARK    6  A    between atoms: C_10  and  C_11 
REMARK    7  A    between atoms: C_11  and  C_12 
REMARK    8  A    between atoms: C_14  and  O_15 
REMARK    9  A    between atoms: C_17  and  O_18 
REMARK   10  A    between atoms: C_26  and  N_27 
ROOT
HETATM    1  N   UNL     1      28.581  49.272  39.562  1.00  0.00    -0.275 N 
HETATM    2  C   UNL     1      28.503  50.326  38.615  1.00  0.00     0.177 A 
HETATM    3  N   UNL     1      27.411  50.764  38.037  1.00  0.00    -0.204 NA
HETATM    4  C   UNL     1      26.288  50.141  38.461  1.00  0.00     0.162 A 
HETATM    5  C   UNL     1      26.146  49.130  39.370  1.00  0.00     0.081 A 
HETATM    6  C   UNL     1      27.344  48.628  39.975  1.00  0.00     0.124 A 
HETATM    7  N   UNL     1      25.022  50.433  38.048  1.00  0.00    -0.260 N 
HETATM    8  H   UNL     1      24.735  51.139  37.379  1.00  0.00     0.191 HD
HETATM    9  N   UNL     1      24.082  49.659  38.635  1.00  0.00    -0.177 NA
HETATM   10  C   UNL     1      24.772  48.856  39.461  1.00  0.00     0.068 A 
HETATM   11  C   UNL     1      24.047  47.868  40.291  1.00  0.00     0.073 C 
ENDROOT
BRANCH   2  12
HETATM   12  S   UNL     1      29.989  51.132  38.073  1.00  0.00    -0.082 SA
BRANCH  12  13
HETATM   13  C   UNL     1      29.720  52.786  38.766  1.00  0.00     0.185 C 
BRANCH  13  14
HETATM   14  C   UNL     1      29.992  52.836  40.264  1.00  0.00     0.227 C 
HETATM   15  N   UNL     1      31.302  52.867  40.669  1.00  0.00    -0.360 N 
HETATM   16  H   UNL     1      31.420  52.865  41.678  1.00  0.00     0.162 HD
HETATM   17  O   UNL     1      29.107  52.878  41.122  1.00  0.00    -0.273 OA
BRANCH  15  18
HETATM   18  C   UNL     1      32.488  52.837  39.825  1.00  0.00     0.127 C 
BRANCH  18  19
HETATM   19  C   UNL     1      33.198  51.478  39.822  1.00  0.00     0.058 C 
BRANCH  19  20
HETATM   20  C   UNL     1      34.552  51.491  40.496  1.00  0.00    -0.054 A 
HETATM   21  C   UNL     1      35.490  52.500  40.221  1.00  0.00     0.046 A 
HETATM   22  C   UNL     1      36.750  52.499  40.833  1.00  0.00     0.102 A 
HETATM   23  C   UNL     1      37.070  51.495  41.766  1.00  0.00     0.101 A 
HETATM   24  C   UNL     1      36.128  50.505  42.059  1.00  0.00     0.040 A 
HETATM   25  C   UNL     1      34.880  50.503  41.429  1.00  0.00     0.010 A 
BRANCH  22  26
HETATM   26  O   UNL     1      37.721  53.442  40.601  1.00  0.00    -0.353 OA
HETATM   27  C   UNL     1      37.361  54.807  40.757  1.00  0.00     0.210 C 
ENDBRANCH  22  26
BRANCH  23  28
HETATM   28  O   UNL     1      38.321  51.568  42.326  1.00  0.00    -0.353 OA
HETATM   29  C   UNL     1      38.409  51.914  43.700  1.00  0.00     0.210 C 
ENDBRANCH  23  28
ENDBRANCH  19  20
ENDBRANCH  18  19
ENDBRANCH  15  18
ENDBRANCH  13  14
ENDBRANCH  12  13
ENDBRANCH   2  12
BRANCH   1  30
HETATM   30  C   UNL     1      29.818  48.904  40.176  1.00  0.00     0.051 A 
HETATM   31  C   UNL     1      30.563  47.785  39.745  1.00  0.00    -0.035 A 
HETATM   32  C   UNL     1      30.185  46.970  38.537  1.00  0.00     0.050 C 
HETATM   33  C   UNL     1      31.739  47.442  40.434  1.00  0.00     0.011 A 
HETATM   34  C   UNL     1      32.148  48.163  41.557  1.00  0.00     0.024 A 
HETATM   35  C   UNL     1      31.397  49.249  41.990  1.00  0.00     0.036 A 
HETATM   36  C   UNL     1      30.243  49.625  41.306  1.00  0.00     0.054 A 
HETATM   37 CL   UNL     1      31.878  50.118  43.393  1.00  0.00    -0.084 Cl
ENDBRANCH   1  30
BRANCH   6  38
HETATM   38  N   UNL     1      27.311  47.625  40.830  1.00  0.00    -0.384 N 
HETATM   39  H   UNL     1      27.422  46.667  40.534  1.00  0.00     0.157 HD
HETATM   40  H   UNL     1      27.180  47.811  41.816  1.00  0.00     0.157 HD
ENDBRANCH   6  38
TORSDOF 10
ENDMDL
