MODEL 1
REMARK VINA RESULT:      -9.6      0.000      0.000
REMARK  5 active torsions:
REMARK  status: ('A' for Active; 'I' for Inactive)
REMARK    1  A    between atoms: C_2  and  C_3 
REMARK    2  A    between atoms: C_3  and  C_4 
REMARK       I    between atoms: C_4  and  N_5 
REMARK    3  A    between atoms: N_5  and  C_6 
REMARK    4  A    between atoms: C_13  and  C_14 
REMARK       I    between atoms: C_14  and  N_15 
REMARK    5  A    between atoms: C_22  and  C_23 
ROOT
HETATM    1  C   UNL     1      25.998  47.382  50.035  1.00  0.00     0.035 A 
HETATM    2  C   UNL     1      24.677  47.514  49.581  1.00  0.00     0.046 A 
HETATM    3  C   UNL     1      24.329  48.606  48.759  1.00  0.00     0.030 A 
HETATM    4  C   UNL     1      25.320  49.505  48.384  1.00  0.00     0.063 A 
HETATM    5  N   UNL     1      24.686  50.436  47.609  1.00  0.00    -0.277 N 
HETATM    6  H   UNL     1      25.100  51.245  47.159  1.00  0.00     0.189 HD
HETATM    7  N   UNL     1      23.364  50.242  47.473  1.00  0.00    -0.168 NA
HETATM    8  C   UNL     1      23.127  49.114  48.181  1.00  0.00     0.156 A 
HETATM    9  C   UNL     1      26.652  49.383  48.788  1.00  0.00     0.034 A 
HETATM   10  C   UNL     1      26.965  48.311  49.635  1.00  0.00     0.032 A 
ENDROOT
BRANCH   1  11
HETATM   11  N   UNL     1      26.379  46.407  50.982  1.00  0.00    -0.327 N 
HETATM   12  C   UNL     1      26.841  45.133  50.697  1.00  0.00     0.226 C 
HETATM   13  O   UNL     1      27.413  44.795  49.665  1.00  0.00    -0.273 OA
HETATM   14  H   UNL     1      26.283  46.655  51.959  1.00  0.00     0.169 HD
BRANCH  12  15
HETATM   15  C   UNL     1      26.523  44.129  51.791  1.00  0.00     0.141 C 
BRANCH  15  16
HETATM   16  C   UNL     1      27.496  44.048  52.940  1.00  0.00    -0.049 A 
HETATM   17  C   UNL     1      28.647  43.257  52.801  1.00  0.00     0.008 A 
HETATM   18  C   UNL     1      29.640  43.257  53.783  1.00  0.00     0.017 A 
HETATM   19  C   UNL     1      29.507  44.051  54.929  1.00  0.00     0.047 A 
HETATM   20  C   UNL     1      28.357  44.841  55.071  1.00  0.00     0.017 A 
HETATM   21  C   UNL     1      27.364  44.843  54.086  1.00  0.00     0.008 A 
BRANCH  19  22
HETATM   22  C   UNL     1      30.616  44.103  55.950  1.00  0.00     0.417 C 
HETATM   23  F   UNL     1      30.281  44.785  57.080  1.00  0.00    -0.166 F 
HETATM   24  F   UNL     1      31.014  42.868  56.367  1.00  0.00    -0.166 F 
HETATM   25  F   UNL     1      31.736  44.710  55.466  1.00  0.00    -0.166 F 
ENDBRANCH  19  22
ENDBRANCH  15  16
ENDBRANCH  12  15
ENDBRANCH   1  11
BRANCH   8  26
HETATM   26  C   UNL     1      21.770  48.566  48.316  1.00  0.00     0.270 C 
HETATM   27  N   UNL     1      21.244  48.678  49.574  1.00  0.00    -0.365 N 
HETATM   28  H   UNL     1      21.812  49.094  50.303  1.00  0.00     0.159 HD
HETATM   29  H   UNL     1      20.331  48.297  49.768  1.00  0.00     0.159 HD
HETATM   30  O   UNL     1      21.139  48.029  47.411  1.00  0.00    -0.266 OA
ENDBRANCH   8  26
TORSDOF 5
ENDMDL
MODEL 2
REMARK VINA RESULT:      -9.3      1.627      1.969
REMARK  5 active torsions:
REMARK  status: ('A' for Active; 'I' for Inactive)
REMARK    1  A    between atoms: C_2  and  C_3 
REMARK    2  A    between atoms: C_3  and  C_4 
REMARK       I    between atoms: C_4  and  N_5 
REMARK    3  A    between atoms: N_5  and  C_6 
REMARK    4  A    between atoms: C_13  and  C_14 
REMARK       I    between atoms: C_14  and  N_15 
REMARK    5  A    between atoms: C_22  and  C_23 
ROOT
HETATM    1  C   UNL     1      25.241  47.221  50.728  1.00  0.00     0.035 A 
HETATM    2  C   UNL     1      24.187  47.795  50.002  1.00  0.00     0.046 A 
HETATM    3  C   UNL     1      24.467  48.768  49.020  1.00  0.00     0.030 A 
HETATM    4  C   UNL     1      25.791  49.103  48.767  1.00  0.00     0.063 A 
HETATM    5  N   UNL     1      25.741  50.058  47.789  1.00  0.00    -0.277 N 
HETATM    6  H   UNL     1      26.523  50.533  47.354  1.00  0.00     0.189 HD
HETATM    7  N   UNL     1      24.499  50.397  47.404  1.00  0.00    -0.168 NA
HETATM    8  C   UNL     1      23.699  49.609  48.159  1.00  0.00     0.156 A 
HETATM    9  C   UNL     1      26.867  48.525  49.446  1.00  0.00     0.034 A 
HETATM   10  C   UNL     1      26.561  47.588  50.443  1.00  0.00     0.032 A 
ENDROOT
BRANCH   1  11
HETATM   11  N   UNL     1      25.023  46.361  51.825  1.00  0.00    -0.327 N 
HETATM   12  C   UNL     1      25.440  46.581  53.127  1.00  0.00     0.226 C 
HETATM   13  O   UNL     1      25.641  47.679  53.637  1.00  0.00    -0.273 OA
HETATM   14  H   UNL     1      24.536  45.493  51.637  1.00  0.00     0.169 HD
BRANCH  12  15
HETATM   15  C   UNL     1      25.691  45.294  53.894  1.00  0.00     0.141 C 
BRANCH  15  16
HETATM   16  C   UNL     1      27.105  45.043  54.354  1.00  0.00    -0.049 A 
HETATM   17  C   UNL     1      27.676  45.909  55.299  1.00  0.00     0.008 A 
HETATM   18  C   UNL     1      28.930  45.640  55.852  1.00  0.00     0.017 A 
HETATM   19  C   UNL     1      29.643  44.495  55.476  1.00  0.00     0.047 A 
HETATM   20  C   UNL     1      29.075  43.628  54.531  1.00  0.00     0.017 A 
HETATM   21  C   UNL     1      27.818  43.897  53.978  1.00  0.00     0.008 A 
BRANCH  19  22
HETATM   22  C   UNL     1      30.962  44.172  56.132  1.00  0.00     0.417 C 
HETATM   23  F   UNL     1      30.959  44.369  57.480  1.00  0.00    -0.166 F 
HETATM   24  F   UNL     1      31.343  42.876  55.948  1.00  0.00    -0.166 F 
HETATM   25  F   UNL     1      31.983  44.931  55.645  1.00  0.00    -0.166 F 
ENDBRANCH  19  22
ENDBRANCH  15  16
ENDBRANCH  12  15
ENDBRANCH   1  11
BRANCH   8  26
HETATM   26  C   UNL     1      22.235  49.694  48.068  1.00  0.00     0.270 C 
HETATM   27  N   UNL     1      21.630  48.535  47.662  1.00  0.00    -0.365 N 
HETATM   28  H   UNL     1      22.212  47.737  47.439  1.00  0.00     0.159 HD
HETATM   29  H   UNL     1      20.631  48.513  47.538  1.00  0.00     0.159 HD
HETATM   30  O   UNL     1      21.577  50.702  48.305  1.00  0.00    -0.266 OA
ENDBRANCH   8  26
TORSDOF 5
ENDMDL
MODEL 3
REMARK VINA RESULT:      -9.3      2.647      3.377
REMARK  5 active torsions:
REMARK  status: ('A' for Active; 'I' for Inactive)
REMARK    1  A    between atoms: C_2  and  C_3 
REMARK    2  A    between atoms: C_3  and  C_4 
REMARK       I    between atoms: C_4  and  N_5 
REMARK    3  A    between atoms: N_5  and  C_6 
REMARK    4  A    between atoms: C_13  and  C_14 
REMARK       I    between atoms: C_14  and  N_15 
REMARK    5  A    between atoms: C_22  and  C_23 
ROOT
HETATM    1  C   UNL     1      26.585  44.975  50.539  1.00  0.00     0.035 A 
HETATM    2  C   UNL     1      25.657  44.478  49.612  1.00  0.00     0.046 A 
HETATM    3  C   UNL     1      24.482  45.212  49.341  1.00  0.00     0.030 A 
HETATM    4  C   UNL     1      24.296  46.435  49.972  1.00  0.00     0.063 A 
HETATM    5  N   UNL     1      23.089  46.893  49.521  1.00  0.00    -0.277 N 
HETATM    6  H   UNL     1      22.629  47.762  49.769  1.00  0.00     0.189 HD
HETATM    7  N   UNL     1      22.457  46.061  48.676  1.00  0.00    -0.168 NA
HETATM    8  C   UNL     1      23.307  45.014  48.556  1.00  0.00     0.156 A 
HETATM    9  C   UNL     1      25.217  46.976  50.873  1.00  0.00     0.034 A 
HETATM   10  C   UNL     1      26.357  46.211  51.154  1.00  0.00     0.032 A 
ENDROOT
BRANCH   1  11
HETATM   11  N   UNL     1      27.698  44.223  50.971  1.00  0.00    -0.327 N 
HETATM   12  C   UNL     1      27.795  43.523  52.162  1.00  0.00     0.226 C 
HETATM   13  O   UNL     1      26.852  43.063  52.798  1.00  0.00    -0.273 OA
HETATM   14  H   UNL     1      28.509  44.216  50.364  1.00  0.00     0.169 HD
BRANCH  12  15
HETATM   15  C   UNL     1      29.223  43.410  52.668  1.00  0.00     0.141 C 
BRANCH  15  16
HETATM   16  C   UNL     1      29.475  43.847  54.089  1.00  0.00    -0.049 A 
HETATM   17  C   UNL     1      30.509  43.234  54.814  1.00  0.00     0.008 A 
HETATM   18  C   UNL     1      30.866  43.697  56.083  1.00  0.00     0.017 A 
HETATM   19  C   UNL     1      30.199  44.786  56.657  1.00  0.00     0.047 A 
HETATM   20  C   UNL     1      29.165  45.399  55.934  1.00  0.00     0.017 A 
HETATM   21  C   UNL     1      28.809  44.937  54.662  1.00  0.00     0.008 A 
BRANCH  19  22
HETATM   22  C   UNL     1      30.639  45.328  57.994  1.00  0.00     0.417 C 
HETATM   23  F   UNL     1      29.703  45.182  58.972  1.00  0.00    -0.166 F 
HETATM   24  F   UNL     1      31.766  44.724  58.467  1.00  0.00    -0.166 F 
HETATM   25  F   UNL     1      30.925  46.659  57.944  1.00  0.00    -0.166 F 
ENDBRANCH  19  22
ENDBRANCH  15  16
ENDBRANCH  12  15
ENDBRANCH   1  11
BRANCH   8  26
HETATM   26  C   UNL     1      22.970  43.847  47.729  1.00  0.00     0.270 C 
HETATM   27  N   UNL     1      23.664  43.775  46.552  1.00  0.00    -0.365 N 
HETATM   28  H   UNL     1      24.319  44.515  46.329  1.00  0.00     0.159 HD
HETATM   29  H   UNL     1      23.471  43.026  45.906  1.00  0.00     0.159 HD
HETATM   30  O   UNL     1      22.133  42.999  48.023  1.00  0.00    -0.266 OA
ENDBRANCH   8  26
TORSDOF 5
ENDMDL
MODEL 4
REMARK VINA RESULT:      -9.2      4.061      5.700
REMARK  5 active torsions:
REMARK  status: ('A' for Active; 'I' for Inactive)
REMARK    1  A    between atoms: C_2  and  C_3 
REMARK    2  A    between atoms: C_3  and  C_4 
REMARK       I    between atoms: C_4  and  N_5 
REMARK    3  A    between atoms: N_5  and  C_6 
REMARK    4  A    between atoms: C_13  and  C_14 
REMARK       I    between atoms: C_14  and  N_15 
REMARK    5  A    between atoms: C_22  and  C_23 
ROOT
HETATM    1  C   UNL     1      27.634  41.352  51.030  1.00  0.00     0.035 A 
HETATM    2  C   UNL     1      26.595  42.290  51.125  1.00  0.00     0.046 A 
HETATM    3  C   UNL     1      25.436  42.126  50.337  1.00  0.00     0.030 A 
HETATM    4  C   UNL     1      25.336  41.010  49.516  1.00  0.00     0.063 A 
HETATM    5  N   UNL     1      24.128  41.131  48.888  1.00  0.00    -0.277 N 
HETATM    6  H   UNL     1      23.718  40.494  48.214  1.00  0.00     0.189 HD
HETATM    7  N   UNL     1      23.444  42.244  49.204  1.00  0.00    -0.168 NA
HETATM    8  C   UNL     1      24.242  42.872  50.099  1.00  0.00     0.156 A 
HETATM    9  C   UNL     1      26.336  40.038  49.425  1.00  0.00     0.034 A 
HETATM   10  C   UNL     1      27.494  40.243  50.188  1.00  0.00     0.032 A 
ENDROOT
BRANCH   1  11
HETATM   11  N   UNL     1      28.880  41.537  51.668  1.00  0.00    -0.327 N 
HETATM   12  C   UNL     1      29.074  41.798  53.014  1.00  0.00     0.226 C 
HETATM   13  O   UNL     1      28.313  41.476  53.921  1.00  0.00    -0.273 OA
HETATM   14  H   UNL     1      29.705  41.497  51.082  1.00  0.00     0.169 HD
BRANCH  12  15
HETATM   15  C   UNL     1      30.337  42.596  53.286  1.00  0.00     0.141 C 
BRANCH  15  16
HETATM   16  C   UNL     1      30.322  43.498  54.495  1.00  0.00    -0.049 A 
HETATM   17  C   UNL     1      29.350  44.507  54.579  1.00  0.00     0.008 A 
HETATM   18  C   UNL     1      29.213  45.276  55.736  1.00  0.00     0.017 A 
HETATM   19  C   UNL     1      30.045  45.055  56.840  1.00  0.00     0.047 A 
HETATM   20  C   UNL     1      31.018  44.048  56.759  1.00  0.00     0.017 A 
HETATM   21  C   UNL     1      31.153  43.275  55.600  1.00  0.00     0.008 A 
BRANCH  19  22
HETATM   22  C   UNL     1      29.843  45.838  58.113  1.00  0.00     0.417 C 
HETATM   23  F   UNL     1      29.837  45.061  59.232  1.00  0.00    -0.166 F 
HETATM   24  F   UNL     1      30.810  46.776  58.319  1.00  0.00    -0.166 F 
HETATM   25  F   UNL     1      28.661  46.516  58.122  1.00  0.00    -0.166 F 
ENDBRANCH  19  22
ENDBRANCH  15  16
ENDBRANCH  12  15
ENDBRANCH   1  11
BRANCH   8  26
HETATM   26  C   UNL     1      23.870  44.170  50.679  1.00  0.00     0.270 C 
HETATM   27  N   UNL     1      23.521  45.116  49.754  1.00  0.00    -0.365 N 
HETATM   28  H   UNL     1      23.564  44.874  48.772  1.00  0.00     0.159 HD
HETATM   29  H   UNL     1      23.285  46.047  50.060  1.00  0.00     0.159 HD
HETATM   30  O   UNL     1      23.878  44.428  51.878  1.00  0.00    -0.266 OA
ENDBRANCH   8  26
TORSDOF 5
ENDMDL
MODEL 5
REMARK VINA RESULT:      -9.2      2.750      4.429
REMARK  5 active torsions:
REMARK  status: ('A' for Active; 'I' for Inactive)
REMARK    1  A    between atoms: C_2  and  C_3 
REMARK    2  A    between atoms: C_3  and  C_4 
REMARK       I    between atoms: C_4  and  N_5 
REMARK    3  A    between atoms: N_5  and  C_6 
REMARK    4  A    between atoms: C_13  and  C_14 
REMARK       I    between atoms: C_14  and  N_15 
REMARK    5  A    between atoms: C_22  and  C_23 
ROOT
HETATM    1  C   UNL     1      26.944  43.024  50.957  1.00  0.00     0.035 A 
HETATM    2  C   UNL     1      26.439  44.332  51.000  1.00  0.00     0.046 A 
HETATM    3  C   UNL     1      25.208  44.623  50.375  1.00  0.00     0.030 A 
HETATM    4  C   UNL     1      24.504  43.591  49.768  1.00  0.00     0.063 A 
HETATM    5  N   UNL     1      23.378  44.175  49.257  1.00  0.00    -0.277 N 
HETATM    6  H   UNL     1      22.629  43.723  48.746  1.00  0.00     0.189 HD
HETATM    7  N   UNL     1      23.301  45.503  49.451  1.00  0.00    -0.168 NA
HETATM    8  C   UNL     1      24.428  45.795  50.140  1.00  0.00     0.156 A 
HETATM    9  C   UNL     1      24.960  42.271  49.738  1.00  0.00     0.034 A 
HETATM   10  C   UNL     1      26.204  42.014  50.332  1.00  0.00     0.032 A 
ENDROOT
BRANCH   1  11
HETATM   11  N   UNL     1      28.236  42.696  51.422  1.00  0.00    -0.327 N 
HETATM   12  C   UNL     1      28.547  42.199  52.677  1.00  0.00     0.226 C 
HETATM   13  O   UNL     1      27.792  41.554  53.397  1.00  0.00    -0.273 OA
HETATM   14  H   UNL     1      29.007  42.862  50.787  1.00  0.00     0.169 HD
BRANCH  12  15
HETATM   15  C   UNL     1      29.945  42.579  53.134  1.00  0.00     0.141 C 
BRANCH  15  16
HETATM   16  C   UNL     1      30.044  43.480  54.339  1.00  0.00    -0.049 A 
HETATM   17  C   UNL     1      29.098  44.504  54.500  1.00  0.00     0.008 A 
HETATM   18  C   UNL     1      29.068  45.276  55.663  1.00  0.00     0.017 A 
HETATM   19  C   UNL     1      29.984  45.041  56.697  1.00  0.00     0.047 A 
HETATM   20  C   UNL     1      30.931  44.019  56.537  1.00  0.00     0.017 A 
HETATM   21  C   UNL     1      30.959  43.244  55.372  1.00  0.00     0.008 A 
BRANCH  19  22
HETATM   22  C   UNL     1      29.899  45.828  57.981  1.00  0.00     0.417 C 
HETATM   23  F   UNL     1      29.919  45.047  59.096  1.00  0.00    -0.166 F 
HETATM   24  F   UNL     1      30.925  46.713  58.130  1.00  0.00    -0.166 F 
HETATM   25  F   UNL     1      28.757  46.566  58.061  1.00  0.00    -0.166 F 
ENDBRANCH  19  22
ENDBRANCH  15  16
ENDBRANCH  12  15
ENDBRANCH   1  11
BRANCH   8  26
HETATM   26  C   UNL     1      24.751  47.175  50.529  1.00  0.00     0.270 C 
HETATM   27  N   UNL     1      24.498  48.105  49.557  1.00  0.00    -0.365 N 
HETATM   28  H   UNL     1      24.142  47.787  48.663  1.00  0.00     0.159 HD
HETATM   29  H   UNL     1      24.723  49.073  49.724  1.00  0.00     0.159 HD
HETATM   30  O   UNL     1      25.225  47.505  51.612  1.00  0.00    -0.266 OA
ENDBRANCH   8  26
TORSDOF 5
ENDMDL
MODEL 6
REMARK VINA RESULT:      -9.1      2.099      3.103
REMARK  5 active torsions:
REMARK  status: ('A' for Active; 'I' for Inactive)
REMARK    1  A    between atoms: C_2  and  C_3 
REMARK    2  A    between atoms: C_3  and  C_4 
REMARK       I    between atoms: C_4  and  N_5 
REMARK    3  A    between atoms: N_5  and  C_6 
REMARK    4  A    between atoms: C_13  and  C_14 
REMARK       I    between atoms: C_14  and  N_15 
REMARK    5  A    between atoms: C_22  and  C_23 
ROOT
HETATM    1  C   UNL     1      25.486  46.290  51.535  1.00  0.00     0.035 A 
HETATM    2  C   UNL     1      25.116  47.470  50.873  1.00  0.00     0.046 A 
HETATM    3  C   UNL     1      24.186  47.410  49.813  1.00  0.00     0.030 A 
HETATM    4  C   UNL     1      23.626  46.183  49.481  1.00  0.00     0.063 A 
HETATM    5  N   UNL     1      22.785  46.443  48.434  1.00  0.00    -0.277 N 
HETATM    6  H   UNL     1      22.205  45.779  47.933  1.00  0.00     0.189 HD
HETATM    7  N   UNL     1      22.771  47.725  48.034  1.00  0.00    -0.168 NA
HETATM    8  C   UNL     1      23.635  48.337  48.877  1.00  0.00     0.156 A 
HETATM    9  C   UNL     1      23.944  44.995  50.144  1.00  0.00     0.034 A 
HETATM   10  C   UNL     1      24.899  45.074  51.167  1.00  0.00     0.032 A 
ENDROOT
BRANCH   1  11
HETATM   11  N   UNL     1      26.521  46.254  52.495  1.00  0.00    -0.327 N 
HETATM   12  C   UNL     1      26.358  46.291  53.869  1.00  0.00     0.226 C 
HETATM   13  O   UNL     1      25.363  45.914  54.481  1.00  0.00    -0.273 OA
HETATM   14  H   UNL     1      27.470  46.221  52.143  1.00  0.00     0.169 HD
BRANCH  12  15
HETATM   15  C   UNL     1      27.542  46.912  54.589  1.00  0.00     0.141 C 
BRANCH  15  16
HETATM   16  C   UNL     1      28.475  45.965  55.302  1.00  0.00    -0.049 A 
HETATM   17  C   UNL     1      28.935  44.826  54.623  1.00  0.00     0.008 A 
HETATM   18  C   UNL     1      29.902  43.994  55.193  1.00  0.00     0.017 A 
HETATM   19  C   UNL     1      30.435  44.283  56.455  1.00  0.00     0.047 A 
HETATM   20  C   UNL     1      29.976  45.421  57.135  1.00  0.00     0.017 A 
HETATM   21  C   UNL     1      29.009  46.255  56.563  1.00  0.00     0.008 A 
BRANCH  19  22
HETATM   22  C   UNL     1      31.532  43.424  57.031  1.00  0.00     0.417 C 
HETATM   23  F   UNL     1      32.236  44.037  58.023  1.00  0.00    -0.166 F 
HETATM   24  F   UNL     1      31.068  42.261  57.571  1.00  0.00    -0.166 F 
HETATM   25  F   UNL     1      32.449  43.057  56.093  1.00  0.00    -0.166 F 
ENDBRANCH  19  22
ENDBRANCH  15  16
ENDBRANCH  12  15
ENDBRANCH   1  11
BRANCH   8  26
HETATM   26  C   UNL     1      23.939  49.770  48.755  1.00  0.00     0.270 C 
HETATM   27  N   UNL     1      24.989  50.050  47.923  1.00  0.00    -0.365 N 
HETATM   28  H   UNL     1      25.479  49.280  47.484  1.00  0.00     0.159 HD
HETATM   29  H   UNL     1      25.290  51.005  47.807  1.00  0.00     0.159 HD
HETATM   30  O   UNL     1      23.343  50.664  49.345  1.00  0.00    -0.266 OA
ENDBRANCH   8  26
TORSDOF 5
ENDMDL
MODEL 7
REMARK VINA RESULT:      -8.9      2.038      3.174
REMARK  5 active torsions:
REMARK  status: ('A' for Active; 'I' for Inactive)
REMARK    1  A    between atoms: C_2  and  C_3 
REMARK    2  A    between atoms: C_3  and  C_4 
REMARK       I    between atoms: C_4  and  N_5 
REMARK    3  A    between atoms: N_5  and  C_6 
REMARK    4  A    between atoms: C_13  and  C_14 
REMARK       I    between atoms: C_14  and  N_15 
REMARK    5  A    between atoms: C_22  and  C_23 
ROOT
HETATM    1  C   UNL     1      26.570  45.343  50.708  1.00  0.00     0.035 A 
HETATM    2  C   UNL     1      26.667  46.596  50.084  1.00  0.00     0.046 A 
HETATM    3  C   UNL     1      25.491  47.289  49.728  1.00  0.00     0.030 A 
HETATM    4  C   UNL     1      24.260  46.727  50.046  1.00  0.00     0.063 A 
HETATM    5  N   UNL     1      23.329  47.613  49.578  1.00  0.00    -0.277 N 
HETATM    6  H   UNL     1      22.320  47.531  49.635  1.00  0.00     0.189 HD
HETATM    7  N   UNL     1      23.844  48.686  48.955  1.00  0.00    -0.168 NA
HETATM    8  C   UNL     1      25.182  48.499  49.038  1.00  0.00     0.156 A 
HETATM    9  C   UNL     1      24.128  45.500  50.699  1.00  0.00     0.034 A 
HETATM   10  C   UNL     1      25.311  44.812  51.008  1.00  0.00     0.032 A 
ENDROOT
BRANCH   1  11
HETATM   11  N   UNL     1      27.698  44.529  50.949  1.00  0.00    -0.327 N 
HETATM   12  C   UNL     1      27.733  43.406  51.759  1.00  0.00     0.226 C 
HETATM   13  O   UNL     1      26.776  42.685  52.021  1.00  0.00    -0.273 OA
HETATM   14  H   UNL     1      28.566  44.806  50.506  1.00  0.00     0.169 HD
BRANCH  12  15
HETATM   15  C   UNL     1      29.103  43.157  52.366  1.00  0.00     0.141 C 
BRANCH  15  16
HETATM   16  C   UNL     1      29.325  43.661  53.770  1.00  0.00    -0.049 A 
HETATM   17  C   UNL     1      30.422  43.177  54.500  1.00  0.00     0.008 A 
HETATM   18  C   UNL     1      30.744  43.712  55.749  1.00  0.00     0.017 A 
HETATM   19  C   UNL     1      29.977  44.748  56.298  1.00  0.00     0.047 A 
HETATM   20  C   UNL     1      28.880  45.233  55.571  1.00  0.00     0.017 A 
HETATM   21  C   UNL     1      28.559  44.697  54.318  1.00  0.00     0.008 A 
BRANCH  19  22
HETATM   22  C   UNL     1      30.375  45.372  57.612  1.00  0.00     0.417 C 
HETATM   23  F   UNL     1      31.132  44.553  58.394  1.00  0.00    -0.166 F 
HETATM   24  F   UNL     1      31.102  46.515  57.460  1.00  0.00    -0.166 F 
HETATM   25  F   UNL     1      29.295  45.718  58.368  1.00  0.00    -0.166 F 
ENDBRANCH  19  22
ENDBRANCH  15  16
ENDBRANCH  12  15
ENDBRANCH   1  11
BRANCH   8  26
HETATM   26  C   UNL     1      26.126  49.451  48.437  1.00  0.00     0.270 C 
HETATM   27  N   UNL     1      27.328  49.532  49.086  1.00  0.00    -0.365 N 
HETATM   28  H   UNL     1      27.471  48.969  49.916  1.00  0.00     0.159 HD
HETATM   29  H   UNL     1      28.024  50.186  48.764  1.00  0.00     0.159 HD
HETATM   30  O   UNL     1      25.889  50.146  47.454  1.00  0.00    -0.266 OA
ENDBRANCH   8  26
TORSDOF 5
ENDMDL
MODEL 8
REMARK VINA RESULT:      -8.8      1.728      2.544
REMARK  5 active torsions:
REMARK  status: ('A' for Active; 'I' for Inactive)
REMARK    1  A    between atoms: C_2  and  C_3 
REMARK    2  A    between atoms: C_3  and  C_4 
REMARK       I    between atoms: C_4  and  N_5 
REMARK    3  A    between atoms: N_5  and  C_6 
REMARK    4  A    between atoms: C_13  and  C_14 
REMARK       I    between atoms: C_14  and  N_15 
REMARK    5  A    between atoms: C_22  and  C_23 
ROOT
HETATM    1  C   UNL     1      24.518  45.225  50.133  1.00  0.00     0.035 A 
HETATM    2  C   UNL     1      24.517  46.614  49.937  1.00  0.00     0.046 A 
HETATM    3  C   UNL     1      23.586  47.191  49.048  1.00  0.00     0.030 A 
HETATM    4  C   UNL     1      22.660  46.367  48.420  1.00  0.00     0.063 A 
HETATM    5  N   UNL     1      21.913  47.200  47.633  1.00  0.00    -0.277 N 
HETATM    6  H   UNL     1      21.140  46.944  47.030  1.00  0.00     0.189 HD
HETATM    7  N   UNL     1      22.291  48.489  47.668  1.00  0.00    -0.168 NA
HETATM    8  C   UNL     1      23.327  48.499  48.539  1.00  0.00     0.156 A 
HETATM    9  C   UNL     1      22.609  44.986  48.621  1.00  0.00     0.034 A 
HETATM   10  C   UNL     1      23.569  44.431  49.479  1.00  0.00     0.032 A 
ENDROOT
BRANCH   1  11
HETATM   11  N   UNL     1      25.516  44.567  50.883  1.00  0.00    -0.327 N 
HETATM   12  C   UNL     1      26.831  44.373  50.494  1.00  0.00     0.226 C 
HETATM   13  O   UNL     1      27.456  45.082  49.711  1.00  0.00    -0.273 OA
HETATM   14  H   UNL     1      25.238  44.183  51.778  1.00  0.00     0.169 HD
BRANCH  12  15
HETATM   15  C   UNL     1      27.450  43.127  51.102  1.00  0.00     0.141 C 
BRANCH  15  16
HETATM   16  C   UNL     1      28.172  43.299  52.415  1.00  0.00    -0.049 A 
HETATM   17  C   UNL     1      29.421  42.682  52.590  1.00  0.00     0.008 A 
HETATM   18  C   UNL     1      30.185  42.922  53.734  1.00  0.00     0.017 A 
HETATM   19  C   UNL     1      29.720  43.788  54.731  1.00  0.00     0.047 A 
HETATM   20  C   UNL     1      28.472  44.405  54.560  1.00  0.00     0.017 A 
HETATM   21  C   UNL     1      27.708  44.166  53.412  1.00  0.00     0.008 A 
BRANCH  19  22
HETATM   22  C   UNL     1      30.583  44.101  55.928  1.00  0.00     0.417 C 
HETATM   23  F   UNL     1      29.998  44.961  56.807  1.00  0.00    -0.166 F 
HETATM   24  F   UNL     1      30.907  42.994  56.654  1.00  0.00    -0.166 F 
HETATM   25  F   UNL     1      31.768  44.674  55.576  1.00  0.00    -0.166 F 
ENDBRANCH  19  22
ENDBRANCH  15  16
ENDBRANCH  12  15
ENDBRANCH   1  11
BRANCH   8  26
HETATM   26  C   UNL     1      24.061  49.736  48.840  1.00  0.00     0.270 C 
HETATM   27  N   UNL     1      25.334  49.768  48.337  1.00  0.00    -0.365 N 
HETATM   28  H   UNL     1      25.677  48.960  47.833  1.00  0.00     0.159 HD
HETATM   29  H   UNL     1      25.923  50.564  48.526  1.00  0.00     0.159 HD
HETATM   30  O   UNL     1      23.616  50.671  49.497  1.00  0.00    -0.266 OA
ENDBRANCH   8  26
TORSDOF 5
ENDMDL
MODEL 9
REMARK VINA RESULT:      -8.8      4.412      6.250
REMARK  5 active torsions:
REMARK  status: ('A' for Active; 'I' for Inactive)
REMARK    1  A    between atoms: C_2  and  C_3 
REMARK    2  A    between atoms: C_3  and  C_4 
REMARK       I    between atoms: C_4  and  N_5 
REMARK    3  A    between atoms: N_5  and  C_6 
REMARK    4  A    between atoms: C_13  and  C_14 
REMARK       I    between atoms: C_14  and  N_15 
REMARK    5  A    between atoms: C_22  and  C_23 
ROOT
HETATM    1  C   UNL     1      25.773  44.502  52.678  1.00  0.00     0.035 A 
HETATM    2  C   UNL     1      26.716  43.482  52.488  1.00  0.00     0.046 A 
HETATM    3  C   UNL     1      26.469  42.475  51.530  1.00  0.00     0.030 A 
HETATM    4  C   UNL     1      25.310  42.547  50.767  1.00  0.00     0.063 A 
HETATM    5  N   UNL     1      25.349  41.451  49.950  1.00  0.00    -0.277 N 
HETATM    6  H   UNL     1      24.664  41.179  49.254  1.00  0.00     0.189 HD
HETATM    7  N   UNL     1      26.415  40.655  50.135  1.00  0.00    -0.168 NA
HETATM    8  C   UNL     1      27.117  41.275  51.112  1.00  0.00     0.156 A 
HETATM    9  C   UNL     1      24.368  43.569  50.906  1.00  0.00     0.034 A 
HETATM   10  C   UNL     1      24.617  44.536  51.890  1.00  0.00     0.032 A 
ENDROOT
BRANCH   1  11
HETATM   11  N   UNL     1      25.881  45.448  53.721  1.00  0.00    -0.327 N 
HETATM   12  C   UNL     1      26.490  46.688  53.635  1.00  0.00     0.226 C 
HETATM   13  O   UNL     1      26.620  47.350  52.610  1.00  0.00    -0.273 OA
HETATM   14  H   UNL     1      25.498  45.183  54.621  1.00  0.00     0.169 HD
BRANCH  12  15
HETATM   15  C   UNL     1      27.057  47.163  54.961  1.00  0.00     0.141 C 
BRANCH  15  16
HETATM   16  C   UNL     1      28.079  46.272  55.621  1.00  0.00    -0.049 A 
HETATM   17  C   UNL     1      28.754  45.320  54.841  1.00  0.00     0.008 A 
HETATM   18  C   UNL     1      29.801  44.566  55.377  1.00  0.00     0.017 A 
HETATM   19  C   UNL     1      30.200  44.748  56.707  1.00  0.00     0.047 A 
HETATM   20  C   UNL     1      29.527  45.699  57.488  1.00  0.00     0.017 A 
HETATM   21  C   UNL     1      28.479  46.455  56.950  1.00  0.00     0.008 A 
BRANCH  19  22
HETATM   22  C   UNL     1      31.380  43.986  57.257  1.00  0.00     0.417 C 
HETATM   23  F   UNL     1      31.096  42.685  57.547  1.00  0.00    -0.166 F 
HETATM   24  F   UNL     1      32.438  43.951  56.398  1.00  0.00    -0.166 F 
HETATM   25  F   UNL     1      31.856  44.531  58.411  1.00  0.00    -0.166 F 
ENDBRANCH  19  22
ENDBRANCH  15  16
ENDBRANCH  12  15
ENDBRANCH   1  11
BRANCH   8  26
HETATM   26  C   UNL     1      28.361  40.700  51.643  1.00  0.00     0.270 C 
HETATM   27  N   UNL     1      28.859  39.662  50.903  1.00  0.00    -0.365 N 
HETATM   28  H   UNL     1      28.344  39.358  50.085  1.00  0.00     0.159 HD
HETATM   29  H   UNL     1      29.691  39.185  51.212  1.00  0.00     0.159 HD
HETATM   30  O   UNL     1      28.924  41.074  52.667  1.00  0.00    -0.266 OA
ENDBRANCH   8  26
TORSDOF 5
ENDMDL
MODEL 10
REMARK VINA RESULT:      -8.8      6.411      7.733
REMARK  5 active torsions:
REMARK  status: ('A' for Active; 'I' for Inactive)
REMARK    1  A    between atoms: C_2  and  C_3 
REMARK    2  A    between atoms: C_3  and  C_4 
REMARK       I    between atoms: C_4  and  N_5 
REMARK    3  A    between atoms: N_5  and  C_6 
REMARK    4  A    between atoms: C_13  and  C_14 
REMARK       I    between atoms: C_14  and  N_15 
REMARK    5  A    between atoms: C_22  and  C_23 
ROOT
HETATM    1  C   UNL     1      28.882  39.819  51.026  1.00  0.00     0.035 A 
HETATM    2  C   UNL     1      27.846  39.982  50.094  1.00  0.00     0.046 A 
HETATM    3  C   UNL     1      27.478  38.901  49.265  1.00  0.00     0.030 A 
HETATM    4  C   UNL     1      28.128  37.683  49.425  1.00  0.00     0.063 A 
HETATM    5  N   UNL     1      27.567  36.852  48.495  1.00  0.00    -0.277 N 
HETATM    6  H   UNL     1      27.795  35.880  48.323  1.00  0.00     0.189 HD
HETATM    7  N   UNL     1      26.633  37.430  47.721  1.00  0.00    -0.168 NA
HETATM    8  C   UNL     1      26.567  38.700  48.185  1.00  0.00     0.156 A 
HETATM    9  C   UNL     1      29.138  37.476  50.367  1.00  0.00     0.034 A 
HETATM   10  C   UNL     1      29.512  38.575  51.152  1.00  0.00     0.032 A 
ENDROOT
BRANCH   1  11
HETATM   11  N   UNL     1      29.404  40.896  51.774  1.00  0.00    -0.327 N 
HETATM   12  C   UNL     1      28.695  41.690  52.660  1.00  0.00     0.226 C 
HETATM   13  O   UNL     1      27.690  41.350  53.277  1.00  0.00    -0.273 OA
HETATM   14  H   UNL     1      30.380  41.122  51.631  1.00  0.00     0.169 HD
BRANCH  12  15
HETATM   15  C   UNL     1      29.257  43.096  52.775  1.00  0.00     0.141 C 
BRANCH  15  16
HETATM   16  C   UNL     1      29.515  43.612  54.168  1.00  0.00    -0.049 A 
HETATM   17  C   UNL     1      30.563  43.054  54.916  1.00  0.00     0.008 A 
HETATM   18  C   UNL     1      30.924  43.588  56.155  1.00  0.00     0.017 A 
HETATM   19  C   UNL     1      30.246  44.697  56.676  1.00  0.00     0.047 A 
HETATM   20  C   UNL     1      29.197  45.256  55.931  1.00  0.00     0.017 A 
HETATM   21  C   UNL     1      28.838  44.721  54.689  1.00  0.00     0.008 A 
BRANCH  19  22
HETATM   22  C   UNL     1      30.689  45.316  57.978  1.00  0.00     0.417 C 
HETATM   23  F   UNL     1      29.771  45.192  58.976  1.00  0.00    -0.166 F 
HETATM   24  F   UNL     1      31.839  44.767  58.463  1.00  0.00    -0.166 F 
HETATM   25  F   UNL     1      30.936  46.650  57.860  1.00  0.00    -0.166 F 
ENDBRANCH  19  22
ENDBRANCH  15  16
ENDBRANCH  12  15
ENDBRANCH   1  11
BRANCH   8  26
HETATM   26  C   UNL     1      25.671  39.692  47.575  1.00  0.00     0.270 C 
HETATM   27  N   UNL     1      24.378  39.267  47.436  1.00  0.00    -0.365 N 
HETATM   28  H   UNL     1      24.141  38.327  47.730  1.00  0.00     0.159 HD
HETATM   29  H   UNL     1      23.701  39.870  46.995  1.00  0.00     0.159 HD
HETATM   30  O   UNL     1      26.017  40.805  47.193  1.00  0.00    -0.266 OA
ENDBRANCH   8  26
TORSDOF 5
ENDMDL
