MODEL 1
REMARK VINA RESULT:      -9.1      0.000      0.000
REMARK  8 active torsions:
REMARK  status: ('A' for Active; 'I' for Inactive)
REMARK    1  A    between atoms: C_6  and  N_7 
REMARK       I    between atoms: N_7  and  C_8 
REMARK    2  A    between atoms: C_8  and  C_9 
REMARK    3  A    between atoms: C_10  and  N_11 
REMARK       I    between atoms: N_11  and  C_12 
REMARK    4  A    between atoms: C_12  and  C_13 
REMARK    5  A    between atoms: C_13  and  N_14 
REMARK    6  A    between atoms: N_14  and  C_17 
REMARK    7  A    between atoms: C_17  and  C_18 
REMARK    8  A    between atoms: C_30  and  C_31 
ROOT
HETATM    1  C   UNL     1      22.812  46.555  48.495  1.00  0.00     0.073 A 
HETATM    2  C   UNL     1      22.497  45.297  48.018  1.00  0.00     0.093 A 
HETATM    3  S   UNL     1      23.669  44.123  48.412  1.00  0.00    -0.075 SA
HETATM    4  C   UNL     1      24.617  45.258  49.238  1.00  0.00    -0.008 A 
HETATM    5  C   UNL     1      24.086  46.529  49.189  1.00  0.00    -0.026 A 
HETATM    6  C   UNL     1      24.805  47.706  49.785  1.00  0.00     0.041 C 
HETATM    7  C   UNL     1      26.240  47.367  50.235  1.00  0.00     0.010 C 
HETATM    8  C   UNL     1      26.451  45.948  50.841  1.00  0.00    -0.002 C 
HETATM    9  C   UNL     1      25.928  44.879  49.848  1.00  0.00     0.052 C 
ENDROOT
BRANCH   2  10
HETATM   10  N   UNL     1      21.484  44.732  47.275  1.00  0.00    -0.319 N 
HETATM   11  C   UNL     1      20.169  44.655  47.658  1.00  0.00     0.248 C 
HETATM   12  O   UNL     1      19.698  44.860  48.773  1.00  0.00    -0.271 OA
HETATM   13  H   UNL     1      21.811  44.260  46.436  1.00  0.00     0.169 HD
BRANCH  11  14
HETATM   14  C   UNL     1      19.224  44.214  46.546  1.00  0.00     0.335 C 
BRANCH  14  15
HETATM   15  N   UNL     1      18.189  45.269  46.260  1.00  0.00    -0.063 N 
HETATM   16  H   UNL     1      17.692  45.065  45.386  1.00  0.00     0.278 HD
HETATM   17  H   UNL     1      17.486  45.207  47.019  1.00  0.00     0.278 HD
BRANCH  15  18
HETATM   18  C   UNL     1      18.689  46.676  46.247  1.00  0.00     0.272 C 
BRANCH  18  19
HETATM   19  C   UNL     1      17.678  47.599  46.850  1.00  0.00    -0.015 A 
HETATM   20  C   UNL     1      16.775  47.148  47.806  1.00  0.00     0.125 A 
HETATM   21  N   UNL     1      15.793  47.911  48.328  1.00  0.00    -0.273 NA
HETATM   22  C   UNL     1      15.708  49.192  47.907  1.00  0.00     0.116 A 
HETATM   23  C   UNL     1      16.560  49.741  46.966  1.00  0.00     0.020 A 
HETATM   24  C   UNL     1      17.556  48.931  46.427  1.00  0.00     0.012 A 
ENDBRANCH  18  19
ENDBRANCH  15  18
ENDBRANCH  14  15
ENDBRANCH  11  14
ENDBRANCH   2  10
BRANCH   1  25
HETATM   25  C   UNL     1      22.028  47.768  48.263  1.00  0.00     0.259 C 
HETATM   26  N   UNL     1      21.517  48.282  49.442  1.00  0.00    -0.322 N 
HETATM   27  H   UNL     1      21.436  47.598  50.183  1.00  0.00     0.169 HD
HETATM   28  O   UNL     1      21.827  48.175  47.125  1.00  0.00    -0.267 OA
BRANCH  26  29
HETATM   29  C   UNL     1      20.630  49.377  49.512  1.00  0.00     0.041 A 
HETATM   30  C   UNL     1      20.970  50.692  49.160  1.00  0.00    -0.035 A 
HETATM   31  C   UNL     1      19.977  51.691  49.229  1.00  0.00     0.015 A 
HETATM   32  C   UNL     1      22.357  51.117  48.766  1.00  0.00     0.050 C 
HETATM   33  C   UNL     1      18.686  51.409  49.691  1.00  0.00    -0.061 A 
HETATM   34  C   UNL     1      17.637  52.481  49.755  1.00  0.00     0.048 C 
HETATM   35  C   UNL     1      18.381  50.108  50.091  1.00  0.00     0.009 A 
HETATM   36  C   UNL     1      19.350  49.106  50.017  1.00  0.00     0.030 A 
ENDBRANCH  26  29
ENDBRANCH   1  25
BRANCH   8  37
HETATM   37  C   UNL     1      26.028  45.771  52.353  1.00  0.00    -0.047 C 
HETATM   38  C   UNL     1      25.731  47.086  53.088  1.00  0.00     0.015 C 
HETATM   39  C   UNL     1      24.773  44.876  52.477  1.00  0.00     0.015 C 
HETATM   40  C   UNL     1      27.165  45.049  53.116  1.00  0.00     0.015 C 
ENDBRANCH   8  37
TORSDOF 8
ENDMDL
MODEL 2
REMARK VINA RESULT:      -8.5      4.769      8.704
REMARK  8 active torsions:
REMARK  status: ('A' for Active; 'I' for Inactive)
REMARK    1  A    between atoms: C_6  and  N_7 
REMARK       I    between atoms: N_7  and  C_8 
REMARK    2  A    between atoms: C_8  and  C_9 
REMARK    3  A    between atoms: C_10  and  N_11 
REMARK       I    between atoms: N_11  and  C_12 
REMARK    4  A    between atoms: C_12  and  C_13 
REMARK    5  A    between atoms: C_13  and  N_14 
REMARK    6  A    between atoms: N_14  and  C_17 
REMARK    7  A    between atoms: C_17  and  C_18 
REMARK    8  A    between atoms: C_30  and  C_31 
ROOT
HETATM    1  C   UNL     1      26.626  42.449  49.328  1.00  0.00     0.073 A 
HETATM    2  C   UNL     1      25.478  42.673  48.591  1.00  0.00     0.093 A 
HETATM    3  S   UNL     1      25.134  41.413  47.495  1.00  0.00    -0.075 SA
HETATM    4  C   UNL     1      26.496  40.533  47.984  1.00  0.00    -0.008 A 
HETATM    5  C   UNL     1      27.240  41.194  48.938  1.00  0.00    -0.026 A 
HETATM    6  C   UNL     1      28.535  40.633  49.453  1.00  0.00     0.041 C 
HETATM    7  C   UNL     1      29.014  39.402  48.659  1.00  0.00     0.010 C 
HETATM    8  C   UNL     1      27.902  38.434  48.157  1.00  0.00    -0.002 C 
HETATM    9  C   UNL     1      26.853  39.232  47.339  1.00  0.00     0.052 C 
ENDROOT
BRANCH   2  10
HETATM   10  N   UNL     1      24.535  43.671  48.485  1.00  0.00    -0.319 N 
HETATM   11  C   UNL     1      23.790  44.169  49.523  1.00  0.00     0.248 C 
HETATM   12  O   UNL     1      23.659  43.697  50.648  1.00  0.00    -0.271 OA
HETATM   13  H   UNL     1      24.345  43.950  47.526  1.00  0.00     0.169 HD
BRANCH  11  14
HETATM   14  C   UNL     1      23.011  45.433  49.177  1.00  0.00     0.335 C 
BRANCH  14  15
HETATM   15  N   UNL     1      23.473  46.601  50.006  1.00  0.00    -0.063 N 
HETATM   16  H   UNL     1      23.167  47.488  49.590  1.00  0.00     0.278 HD
HETATM   17  H   UNL     1      22.991  46.524  50.920  1.00  0.00     0.278 HD
BRANCH  15  18
HETATM   18  C   UNL     1      24.938  46.650  50.291  1.00  0.00     0.272 C 
BRANCH  18  19
HETATM   19  C   UNL     1      25.556  47.857  49.659  1.00  0.00    -0.015 A 
HETATM   20  C   UNL     1      24.777  48.798  48.994  1.00  0.00     0.125 A 
HETATM   21  N   UNL     1      25.284  49.862  48.340  1.00  0.00    -0.273 NA
HETATM   22  C   UNL     1      26.625  50.026  48.360  1.00  0.00     0.116 A 
HETATM   23  C   UNL     1      27.488  49.154  48.997  1.00  0.00     0.020 A 
HETATM   24  C   UNL     1      26.946  48.051  49.652  1.00  0.00     0.012 A 
ENDBRANCH  18  19
ENDBRANCH  15  18
ENDBRANCH  14  15
ENDBRANCH  11  14
ENDBRANCH   2  10
BRANCH   1  25
HETATM   25  C   UNL     1      27.202  43.378  50.298  1.00  0.00     0.259 C 
HETATM   26  N   UNL     1      27.158  42.869  51.584  1.00  0.00    -0.322 N 
HETATM   27  H   UNL     1      26.448  42.160  51.718  1.00  0.00     0.169 HD
HETATM   28  O   UNL     1      27.586  44.489  49.952  1.00  0.00    -0.267 OA
BRANCH  26  29
HETATM   29  C   UNL     1      27.535  43.589  52.738  1.00  0.00     0.041 A 
HETATM   30  C   UNL     1      28.796  43.496  53.348  1.00  0.00    -0.035 A 
HETATM   31  C   UNL     1      29.066  44.306  54.470  1.00  0.00     0.015 A 
HETATM   32  C   UNL     1      29.865  42.535  52.911  1.00  0.00     0.050 C 
HETATM   33  C   UNL     1      28.092  45.151  55.016  1.00  0.00    -0.061 A 
HETATM   34  C   UNL     1      28.395  46.012  56.208  1.00  0.00     0.048 C 
HETATM   35  C   UNL     1      26.827  45.189  54.431  1.00  0.00     0.009 A 
HETATM   36  C   UNL     1      26.547  44.402  53.312  1.00  0.00     0.030 A 
ENDBRANCH  26  29
ENDBRANCH   1  25
BRANCH   8  37
HETATM   37  C   UNL     1      27.336  37.417  49.224  1.00  0.00    -0.047 C 
HETATM   38  C   UNL     1      28.376  36.912  50.235  1.00  0.00     0.015 C 
HETATM   39  C   UNL     1      26.173  38.044  50.028  1.00  0.00     0.015 C 
HETATM   40  C   UNL     1      26.754  36.184  48.490  1.00  0.00     0.015 C 
ENDBRANCH   8  37
TORSDOF 8
ENDMDL
MODEL 3
REMARK VINA RESULT:      -8.2      4.613      9.163
REMARK  8 active torsions:
REMARK  status: ('A' for Active; 'I' for Inactive)
REMARK    1  A    between atoms: C_6  and  N_7 
REMARK       I    between atoms: N_7  and  C_8 
REMARK    2  A    between atoms: C_8  and  C_9 
REMARK    3  A    between atoms: C_10  and  N_11 
REMARK       I    between atoms: N_11  and  C_12 
REMARK    4  A    between atoms: C_12  and  C_13 
REMARK    5  A    between atoms: C_13  and  N_14 
REMARK    6  A    between atoms: N_14  and  C_17 
REMARK    7  A    between atoms: C_17  and  C_18 
REMARK    8  A    between atoms: C_30  and  C_31 
ROOT
HETATM    1  C   UNL     1      26.416  42.619  50.493  1.00  0.00     0.073 A 
HETATM    2  C   UNL     1      25.500  43.651  50.569  1.00  0.00     0.093 A 
HETATM    3  S   UNL     1      25.387  44.326  52.131  1.00  0.00    -0.075 SA
HETATM    4  C   UNL     1      26.562  43.269  52.740  1.00  0.00    -0.008 A 
HETATM    5  C   UNL     1      27.016  42.377  51.792  1.00  0.00    -0.026 A 
HETATM    6  C   UNL     1      28.000  41.296  52.136  1.00  0.00     0.041 C 
HETATM    7  C   UNL     1      28.252  41.175  53.652  1.00  0.00     0.010 C 
HETATM    8  C   UNL     1      28.263  42.509  54.455  1.00  0.00    -0.002 C 
HETATM    9  C   UNL     1      26.948  43.285  54.185  1.00  0.00     0.052 C 
ENDROOT
BRANCH   2  10
HETATM   10  N   UNL     1      24.622  44.277  49.713  1.00  0.00    -0.319 N 
HETATM   11  C   UNL     1      23.255  44.242  49.817  1.00  0.00     0.248 C 
HETATM   12  O   UNL     1      22.573  43.502  50.520  1.00  0.00    -0.271 OA
HETATM   13  H   UNL     1      25.072  44.694  48.904  1.00  0.00     0.169 HD
BRANCH  11  14
HETATM   14  C   UNL     1      22.537  45.222  48.895  1.00  0.00     0.335 C 
BRANCH  14  15
HETATM   15  N   UNL     1      23.439  46.363  48.506  1.00  0.00    -0.063 N 
HETATM   16  H   UNL     1      24.370  46.020  48.245  1.00  0.00     0.278 HD
HETATM   17  H   UNL     1      23.032  46.784  47.653  1.00  0.00     0.278 HD
BRANCH  15  18
HETATM   18  C   UNL     1      23.563  47.459  49.513  1.00  0.00     0.272 C 
BRANCH  18  19
HETATM   19  C   UNL     1      24.790  48.275  49.253  1.00  0.00    -0.015 A 
HETATM   20  C   UNL     1      24.746  49.395  48.430  1.00  0.00     0.125 A 
HETATM   21  N   UNL     1      25.831  50.123  48.099  1.00  0.00    -0.273 NA
HETATM   22  C   UNL     1      27.019  49.747  48.621  1.00  0.00     0.116 A 
HETATM   23  C   UNL     1      27.170  48.654  49.455  1.00  0.00     0.020 A 
HETATM   24  C   UNL     1      26.040  47.905  49.772  1.00  0.00     0.012 A 
ENDBRANCH  18  19
ENDBRANCH  15  18
ENDBRANCH  14  15
ENDBRANCH  11  14
ENDBRANCH   2  10
BRANCH   1  25
HETATM   25  C   UNL     1      26.684  41.814  49.303  1.00  0.00     0.259 C 
HETATM   26  N   UNL     1      26.155  40.540  49.414  1.00  0.00    -0.322 N 
HETATM   27  H   UNL     1      26.008  40.242  50.370  1.00  0.00     0.169 HD
HETATM   28  O   UNL     1      27.371  42.256  48.389  1.00  0.00    -0.267 OA
BRANCH  26  29
HETATM   29  C   UNL     1      26.357  39.510  48.471  1.00  0.00     0.041 A 
HETATM   30  C   UNL     1      27.444  38.622  48.493  1.00  0.00    -0.035 A 
HETATM   31  C   UNL     1      27.506  37.603  47.521  1.00  0.00     0.015 A 
HETATM   32  C   UNL     1      28.587  38.727  49.463  1.00  0.00     0.050 C 
HETATM   33  C   UNL     1      26.543  37.495  46.509  1.00  0.00    -0.061 A 
HETATM   34  C   UNL     1      26.619  36.403  45.483  1.00  0.00     0.048 C 
HETATM   35  C   UNL     1      25.500  38.421  46.469  1.00  0.00     0.009 A 
HETATM   36  C   UNL     1      25.419  39.428  47.432  1.00  0.00     0.030 A 
ENDBRANCH  26  29
ENDBRANCH   1  25
BRANCH   8  37
HETATM   37  C   UNL     1      29.601  43.347  54.387  1.00  0.00    -0.047 C 
HETATM   38  C   UNL     1      30.611  43.022  55.498  1.00  0.00     0.015 C 
HETATM   39  C   UNL     1      30.317  43.141  53.033  1.00  0.00     0.015 C 
HETATM   40  C   UNL     1      29.259  44.853  54.486  1.00  0.00     0.015 C 
ENDBRANCH   8  37
TORSDOF 8
ENDMDL
MODEL 4
REMARK VINA RESULT:      -8.1      3.252      7.020
REMARK  8 active torsions:
REMARK  status: ('A' for Active; 'I' for Inactive)
REMARK    1  A    between atoms: C_6  and  N_7 
REMARK       I    between atoms: N_7  and  C_8 
REMARK    2  A    between atoms: C_8  and  C_9 
REMARK    3  A    between atoms: C_10  and  N_11 
REMARK       I    between atoms: N_11  and  C_12 
REMARK    4  A    between atoms: C_12  and  C_13 
REMARK    5  A    between atoms: C_13  and  N_14 
REMARK    6  A    between atoms: N_14  and  C_17 
REMARK    7  A    between atoms: C_17  and  C_18 
REMARK    8  A    between atoms: C_30  and  C_31 
ROOT
HETATM    1  C   UNL     1      26.398  45.099  51.303  1.00  0.00     0.073 A 
HETATM    2  C   UNL     1      26.101  46.432  51.518  1.00  0.00     0.093 A 
HETATM    3  S   UNL     1      26.413  46.932  53.119  1.00  0.00    -0.075 SA
HETATM    4  C   UNL     1      26.961  45.391  53.559  1.00  0.00    -0.008 A 
HETATM    5  C   UNL     1      26.876  44.482  52.526  1.00  0.00    -0.026 A 
HETATM    6  C   UNL     1      27.231  43.035  52.720  1.00  0.00     0.041 C 
HETATM    7  C   UNL     1      27.474  42.670  54.197  1.00  0.00     0.010 C 
HETATM    8  C   UNL     1      28.173  43.757  55.067  1.00  0.00    -0.002 C 
HETATM    9  C   UNL     1      27.385  45.088  54.961  1.00  0.00     0.052 C 
ENDROOT
BRANCH   2  10
HETATM   10  N   UNL     1      25.591  47.476  50.781  1.00  0.00    -0.319 N 
HETATM   11  C   UNL     1      26.150  47.987  49.638  1.00  0.00     0.248 C 
HETATM   12  O   UNL     1      27.275  47.776  49.193  1.00  0.00    -0.271 OA
HETATM   13  H   UNL     1      24.795  47.931  51.220  1.00  0.00     0.169 HD
BRANCH  11  14
HETATM   14  C   UNL     1      25.250  48.963  48.889  1.00  0.00     0.335 C 
BRANCH  14  15
HETATM   15  N   UNL     1      23.803  48.754  49.247  1.00  0.00    -0.063 N 
HETATM   16  H   UNL     1      23.600  47.757  49.381  1.00  0.00     0.278 HD
HETATM   17  H   UNL     1      23.657  49.209  50.166  1.00  0.00     0.278 HD
BRANCH  15  18
HETATM   18  C   UNL     1      22.813  49.355  48.305  1.00  0.00     0.272 C 
BRANCH  18  19
HETATM   19  C   UNL     1      21.521  49.635  49.007  1.00  0.00    -0.015 A 
HETATM   20  C   UNL     1      20.621  48.613  49.287  1.00  0.00     0.125 A 
HETATM   21  N   UNL     1      19.411  48.814  49.848  1.00  0.00    -0.273 NA
HETATM   22  C   UNL     1      19.077  50.082  50.172  1.00  0.00     0.116 A 
HETATM   23  C   UNL     1      19.902  51.168  49.943  1.00  0.00     0.020 A 
HETATM   24  C   UNL     1      21.140  50.941  49.348  1.00  0.00     0.012 A 
ENDBRANCH  18  19
ENDBRANCH  15  18
ENDBRANCH  14  15
ENDBRANCH  11  14
ENDBRANCH   2  10
BRANCH   1  25
HETATM   25  C   UNL     1      26.179  44.376  50.051  1.00  0.00     0.259 C 
HETATM   26  N   UNL     1      24.907  43.835  49.986  1.00  0.00    -0.322 N 
HETATM   27  H   UNL     1      24.478  43.694  50.892  1.00  0.00     0.169 HD
HETATM   28  O   UNL     1      27.086  44.241  49.238  1.00  0.00    -0.267 OA
BRANCH  26  29
HETATM   29  C   UNL     1      24.454  42.991  48.951  1.00  0.00     0.041 A 
HETATM   30  C   UNL     1      24.711  41.612  48.887  1.00  0.00    -0.035 A 
HETATM   31  C   UNL     1      24.160  40.869  47.823  1.00  0.00     0.015 A 
HETATM   32  C   UNL     1      25.595  40.883  49.860  1.00  0.00     0.050 C 
HETATM   33  C   UNL     1      23.416  41.483  46.808  1.00  0.00    -0.061 A 
HETATM   34  C   UNL     1      22.831  40.678  45.684  1.00  0.00     0.048 C 
HETATM   35  C   UNL     1      23.217  42.862  46.857  1.00  0.00     0.009 A 
HETATM   36  C   UNL     1      23.746  43.610  47.910  1.00  0.00     0.030 A 
ENDBRANCH  26  29
ENDBRANCH   1  25
BRANCH   8  37
HETATM   37  C   UNL     1      29.743  43.855  54.923  1.00  0.00    -0.047 C 
HETATM   38  C   UNL     1      30.280  43.455  53.540  1.00  0.00     0.015 C 
HETATM   39  C   UNL     1      30.239  45.290  55.217  1.00  0.00     0.015 C 
HETATM   40  C   UNL     1      30.406  42.932  55.973  1.00  0.00     0.015 C 
ENDBRANCH   8  37
TORSDOF 8
ENDMDL
MODEL 5
REMARK VINA RESULT:      -8.1      3.488      9.459
REMARK  8 active torsions:
REMARK  status: ('A' for Active; 'I' for Inactive)
REMARK    1  A    between atoms: C_6  and  N_7 
REMARK       I    between atoms: N_7  and  C_8 
REMARK    2  A    between atoms: C_8  and  C_9 
REMARK    3  A    between atoms: C_10  and  N_11 
REMARK       I    between atoms: N_11  and  C_12 
REMARK    4  A    between atoms: C_12  and  C_13 
REMARK    5  A    between atoms: C_13  and  N_14 
REMARK    6  A    between atoms: N_14  and  C_17 
REMARK    7  A    between atoms: C_17  and  C_18 
REMARK    8  A    between atoms: C_30  and  C_31 
ROOT
HETATM    1  C   UNL     1      22.869  46.051  48.966  1.00  0.00     0.073 A 
HETATM    2  C   UNL     1      24.106  46.233  49.557  1.00  0.00     0.093 A 
HETATM    3  S   UNL     1      24.607  47.862  49.563  1.00  0.00    -0.075 SA
HETATM    4  C   UNL     1      23.186  48.367  48.792  1.00  0.00    -0.008 A 
HETATM    5  C   UNL     1      22.347  47.317  48.486  1.00  0.00    -0.026 A 
HETATM    6  C   UNL     1      21.069  47.527  47.726  1.00  0.00     0.041 C 
HETATM    7  C   UNL     1      20.933  48.956  47.164  1.00  0.00     0.010 C 
HETATM    8  C   UNL     1      21.494  50.101  48.058  1.00  0.00    -0.002 C 
HETATM    9  C   UNL     1      22.971  49.799  48.419  1.00  0.00     0.052 C 
ENDROOT
BRANCH   2  10
HETATM   10  N   UNL     1      25.069  45.433  50.130  1.00  0.00    -0.319 N 
HETATM   11  C   UNL     1      24.851  44.533  51.142  1.00  0.00     0.248 C 
HETATM   12  O   UNL     1      23.856  44.428  51.854  1.00  0.00    -0.271 OA
HETATM   13  H   UNL     1      26.011  45.641  49.812  1.00  0.00     0.169 HD
BRANCH  11  14
HETATM   14  C   UNL     1      26.030  43.605  51.411  1.00  0.00     0.335 C 
BRANCH  14  15
HETATM   15  N   UNL     1      26.275  43.449  52.888  1.00  0.00    -0.063 N 
HETATM   16  H   UNL     1      25.428  43.122  53.366  1.00  0.00     0.278 HD
HETATM   17  H   UNL     1      26.980  42.698  52.994  1.00  0.00     0.278 HD
BRANCH  15  18
HETATM   18  C   UNL     1      26.819  44.654  53.582  1.00  0.00     0.272 C 
BRANCH  18  19
HETATM   19  C   UNL     1      28.113  44.331  54.261  1.00  0.00    -0.015 A 
HETATM   20  C   UNL     1      28.661  45.191  55.206  1.00  0.00     0.125 A 
HETATM   21  N   UNL     1      29.858  44.991  55.794  1.00  0.00    -0.273 NA
HETATM   22  C   UNL     1      30.543  43.877  55.453  1.00  0.00     0.116 A 
HETATM   23  C   UNL     1      30.084  42.956  54.530  1.00  0.00     0.020 A 
HETATM   24  C   UNL     1      28.854  43.188  53.922  1.00  0.00     0.012 A 
ENDBRANCH  18  19
ENDBRANCH  15  18
ENDBRANCH  14  15
ENDBRANCH  11  14
ENDBRANCH   2  10
BRANCH   1  25
HETATM   25  C   UNL     1      22.211  44.762  48.763  1.00  0.00     0.259 C 
HETATM   26  N   UNL     1      22.798  44.041  47.738  1.00  0.00    -0.322 N 
HETATM   27  H   UNL     1      23.304  44.614  47.075  1.00  0.00     0.169 HD
HETATM   28  O   UNL     1      21.215  44.459  49.409  1.00  0.00    -0.267 OA
BRANCH  26  29
HETATM   29  C   UNL     1      22.303  42.816  47.243  1.00  0.00     0.041 A 
HETATM   30  C   UNL     1      22.754  41.555  47.664  1.00  0.00    -0.035 A 
HETATM   31  C   UNL     1      22.144  40.404  47.127  1.00  0.00     0.015 A 
HETATM   32  C   UNL     1      23.898  41.355  48.618  1.00  0.00     0.050 C 
HETATM   33  C   UNL     1      21.145  40.491  46.150  1.00  0.00    -0.061 A 
HETATM   34  C   UNL     1      20.501  39.257  45.590  1.00  0.00     0.048 C 
HETATM   35  C   UNL     1      20.749  41.751  45.701  1.00  0.00     0.009 A 
HETATM   36  C   UNL     1      21.335  42.901  46.232  1.00  0.00     0.030 A 
ENDBRANCH  26  29
ENDBRANCH   1  25
BRANCH   8  37
HETATM   37  C   UNL     1      20.563  50.572  49.244  1.00  0.00    -0.047 C 
HETATM   38  C   UNL     1      19.550  49.517  49.715  1.00  0.00     0.015 C 
HETATM   39  C   UNL     1      21.400  50.994  50.474  1.00  0.00     0.015 C 
HETATM   40  C   UNL     1      19.768  51.824  48.798  1.00  0.00     0.015 C 
ENDBRANCH   8  37
TORSDOF 8
ENDMDL
MODEL 6
REMARK VINA RESULT:      -7.8      2.482      8.327
REMARK  8 active torsions:
REMARK  status: ('A' for Active; 'I' for Inactive)
REMARK    1  A    between atoms: C_6  and  N_7 
REMARK       I    between atoms: N_7  and  C_8 
REMARK    2  A    between atoms: C_8  and  C_9 
REMARK    3  A    between atoms: C_10  and  N_11 
REMARK       I    between atoms: N_11  and  C_12 
REMARK    4  A    between atoms: C_12  and  C_13 
REMARK    5  A    between atoms: C_13  and  N_14 
REMARK    6  A    between atoms: N_14  and  C_17 
REMARK    7  A    between atoms: C_17  and  C_18 
REMARK    8  A    between atoms: C_30  and  C_31 
ROOT
HETATM    1  C   UNL     1      19.625  49.031  49.117  1.00  0.00     0.073 A 
HETATM    2  C   UNL     1      19.150  47.733  49.133  1.00  0.00     0.093 A 
HETATM    3  S   UNL     1      17.472  47.635  48.851  1.00  0.00    -0.075 SA
HETATM    4  C   UNL     1      17.339  49.316  48.688  1.00  0.00    -0.008 A 
HETATM    5  C   UNL     1      18.539  49.965  48.885  1.00  0.00    -0.026 A 
HETATM    6  C   UNL     1      18.635  51.464  48.870  1.00  0.00     0.041 C 
HETATM    7  C   UNL     1      17.256  52.152  48.832  1.00  0.00     0.010 C 
HETATM    8  C   UNL     1      16.158  51.443  47.986  1.00  0.00    -0.002 C 
HETATM    9  C   UNL     1      16.015  49.972  48.455  1.00  0.00     0.052 C 
ENDROOT
BRANCH   2  10
HETATM   10  N   UNL     1      19.674  46.477  49.344  1.00  0.00    -0.319 N 
HETATM   11  C   UNL     1      20.527  45.822  48.492  1.00  0.00     0.248 C 
HETATM   12  O   UNL     1      20.799  46.112  47.331  1.00  0.00    -0.271 OA
HETATM   13  H   UNL     1      19.285  46.006  50.156  1.00  0.00     0.169 HD
BRANCH  11  14
HETATM   14  C   UNL     1      21.150  44.563  49.085  1.00  0.00     0.335 C 
BRANCH  14  15
HETATM   15  N   UNL     1      22.504  44.853  49.676  1.00  0.00    -0.063 N 
HETATM   16  H   UNL     1      22.899  45.713  49.280  1.00  0.00     0.278 HD
HETATM   17  H   UNL     1      22.354  45.035  50.684  1.00  0.00     0.278 HD
BRANCH  15  18
HETATM   18  C   UNL     1      23.499  43.743  49.581  1.00  0.00     0.272 C 
BRANCH  18  19
HETATM   19  C   UNL     1      24.520  43.858  50.669  1.00  0.00    -0.015 A 
HETATM   20  C   UNL     1      25.557  42.938  50.780  1.00  0.00     0.125 A 
HETATM   21  N   UNL     1      26.460  42.945  51.781  1.00  0.00    -0.273 NA
HETATM   22  C   UNL     1      26.353  43.920  52.711  1.00  0.00     0.116 A 
HETATM   23  C   UNL     1      25.364  44.886  52.689  1.00  0.00     0.020 A 
HETATM   24  C   UNL     1      24.432  44.852  51.656  1.00  0.00     0.012 A 
ENDBRANCH  18  19
ENDBRANCH  15  18
ENDBRANCH  14  15
ENDBRANCH  11  14
ENDBRANCH   2  10
BRANCH   1  25
HETATM   25  C   UNL     1      21.006  49.429  49.386  1.00  0.00     0.259 C 
HETATM   26  N   UNL     1      21.907  48.699  48.631  1.00  0.00    -0.322 N 
HETATM   27  H   UNL     1      21.546  47.808  48.316  1.00  0.00     0.169 HD
HETATM   28  O   UNL     1      21.261  50.262  50.248  1.00  0.00    -0.267 OA
BRANCH  26  29
HETATM   29  C   UNL     1      23.309  48.785  48.764  1.00  0.00     0.041 A 
HETATM   30  C   UNL     1      24.081  49.863  48.301  1.00  0.00    -0.035 A 
HETATM   31  C   UNL     1      25.470  49.852  48.539  1.00  0.00     0.015 A 
HETATM   32  C   UNL     1      23.520  51.010  47.508  1.00  0.00     0.050 C 
HETATM   33  C   UNL     1      26.097  48.772  49.172  1.00  0.00    -0.061 A 
HETATM   34  C   UNL     1      27.577  48.776  49.423  1.00  0.00     0.048 C 
HETATM   35  C   UNL     1      25.323  47.684  49.576  1.00  0.00     0.009 A 
HETATM   36  C   UNL     1      23.944  47.685  49.358  1.00  0.00     0.030 A 
ENDBRANCH  26  29
ENDBRANCH   1  25
BRANCH   8  37
HETATM   37  C   UNL     1      16.223  51.681  46.426  1.00  0.00    -0.047 C 
HETATM   38  C   UNL     1      17.637  51.929  45.880  1.00  0.00     0.015 C 
HETATM   39  C   UNL     1      15.631  50.478  45.655  1.00  0.00     0.015 C 
HETATM   40  C   UNL     1      15.355  52.911  46.065  1.00  0.00     0.015 C 
ENDBRANCH   8  37
TORSDOF 8
ENDMDL
MODEL 7
REMARK VINA RESULT:      -7.8      4.192      7.587
REMARK  8 active torsions:
REMARK  status: ('A' for Active; 'I' for Inactive)
REMARK    1  A    between atoms: C_6  and  N_7 
REMARK       I    between atoms: N_7  and  C_8 
REMARK    2  A    between atoms: C_8  and  C_9 
REMARK    3  A    between atoms: C_10  and  N_11 
REMARK       I    between atoms: N_11  and  C_12 
REMARK    4  A    between atoms: C_12  and  C_13 
REMARK    5  A    between atoms: C_13  and  N_14 
REMARK    6  A    between atoms: N_14  and  C_17 
REMARK    7  A    between atoms: C_17  and  C_18 
REMARK    8  A    between atoms: C_30  and  C_31 
ROOT
HETATM    1  C   UNL     1      26.147  42.455  49.100  1.00  0.00     0.073 A 
HETATM    2  C   UNL     1      24.886  42.508  48.535  1.00  0.00     0.093 A 
HETATM    3  S   UNL     1      24.552  41.173  47.528  1.00  0.00    -0.075 SA
HETATM    4  C   UNL     1      26.070  40.487  47.830  1.00  0.00    -0.008 A 
HETATM    5  C   UNL     1      26.853  41.270  48.650  1.00  0.00    -0.026 A 
HETATM    6  C   UNL     1      28.269  40.892  48.981  1.00  0.00     0.041 C 
HETATM    7  C   UNL     1      28.782  39.700  48.151  1.00  0.00     0.010 C 
HETATM    8  C   UNL     1      27.741  38.584  47.837  1.00  0.00    -0.002 C 
HETATM    9  C   UNL     1      26.494  39.215  47.166  1.00  0.00     0.052 C 
ENDROOT
BRANCH   2  10
HETATM   10  N   UNL     1      23.819  43.378  48.548  1.00  0.00    -0.319 N 
HETATM   11  C   UNL     1      22.970  43.573  49.607  1.00  0.00     0.248 C 
HETATM   12  O   UNL     1      22.861  42.888  50.619  1.00  0.00    -0.271 OA
HETATM   13  H   UNL     1      23.630  43.803  47.644  1.00  0.00     0.169 HD
BRANCH  11  14
HETATM   14  C   UNL     1      22.038  44.769  49.443  1.00  0.00     0.335 C 
BRANCH  14  15
HETATM   15  N   UNL     1      22.780  45.970  48.922  1.00  0.00    -0.063 N 
HETATM   16  H   UNL     1      23.208  46.497  49.692  1.00  0.00     0.278 HD
HETATM   17  H   UNL     1      23.559  45.609  48.344  1.00  0.00     0.278 HD
BRANCH  15  18
HETATM   18  C   UNL     1      21.987  46.891  48.053  1.00  0.00     0.272 C 
BRANCH  18  19
HETATM   19  C   UNL     1      22.329  48.317  48.349  1.00  0.00    -0.015 A 
HETATM   20  C   UNL     1      23.402  48.642  49.171  1.00  0.00     0.125 A 
HETATM   21  N   UNL     1      23.712  49.903  49.534  1.00  0.00    -0.273 NA
HETATM   22  C   UNL     1      22.943  50.900  49.046  1.00  0.00     0.116 A 
HETATM   23  C   UNL     1      21.858  50.685  48.215  1.00  0.00     0.020 A 
HETATM   24  C   UNL     1      21.544  49.375  47.866  1.00  0.00     0.012 A 
ENDBRANCH  18  19
ENDBRANCH  15  18
ENDBRANCH  14  15
ENDBRANCH  11  14
ENDBRANCH   2  10
BRANCH   1  25
HETATM   25  C   UNL     1      26.733  43.484  49.956  1.00  0.00     0.259 C 
HETATM   26  N   UNL     1      26.565  43.192  51.299  1.00  0.00    -0.322 N 
HETATM   27  H   UNL     1      25.793  42.566  51.486  1.00  0.00     0.169 HD
HETATM   28  O   UNL     1      27.227  44.496  49.473  1.00  0.00    -0.267 OA
BRANCH  26  29
HETATM   29  C   UNL     1      26.925  44.059  52.352  1.00  0.00     0.041 A 
HETATM   30  C   UNL     1      26.187  45.192  52.729  1.00  0.00    -0.035 A 
HETATM   31  C   UNL     1      26.628  45.951  53.832  1.00  0.00     0.015 A 
HETATM   32  C   UNL     1      24.978  45.685  51.984  1.00  0.00     0.050 C 
HETATM   33  C   UNL     1      27.806  45.632  54.518  1.00  0.00    -0.061 A 
HETATM   34  C   UNL     1      28.260  46.446  55.694  1.00  0.00     0.048 C 
HETATM   35  C   UNL     1      28.556  44.535  54.096  1.00  0.00     0.009 A 
HETATM   36  C   UNL     1      28.127  43.766  53.012  1.00  0.00     0.030 A 
ENDBRANCH  26  29
ENDBRANCH   1  25
BRANCH   8  37
HETATM   37  C   UNL     1      27.467  37.547  48.997  1.00  0.00    -0.047 C 
HETATM   38  C   UNL     1      28.684  37.252  49.887  1.00  0.00     0.015 C 
HETATM   39  C   UNL     1      26.324  38.034  49.918  1.00  0.00     0.015 C 
HETATM   40  C   UNL     1      26.999  36.208  48.378  1.00  0.00     0.015 C 
ENDBRANCH   8  37
TORSDOF 8
ENDMDL
MODEL 8
REMARK VINA RESULT:      -7.7      4.540      8.520
REMARK  8 active torsions:
REMARK  status: ('A' for Active; 'I' for Inactive)
REMARK    1  A    between atoms: C_6  and  N_7 
REMARK       I    between atoms: N_7  and  C_8 
REMARK    2  A    between atoms: C_8  and  C_9 
REMARK    3  A    between atoms: C_10  and  N_11 
REMARK       I    between atoms: N_11  and  C_12 
REMARK    4  A    between atoms: C_12  and  C_13 
REMARK    5  A    between atoms: C_13  and  N_14 
REMARK    6  A    between atoms: N_14  and  C_17 
REMARK    7  A    between atoms: C_17  and  C_18 
REMARK    8  A    between atoms: C_30  and  C_31 
ROOT
HETATM    1  C   UNL     1      26.340  42.471  50.393  1.00  0.00     0.073 A 
HETATM    2  C   UNL     1      25.388  43.470  50.458  1.00  0.00     0.093 A 
HETATM    3  S   UNL     1      25.246  44.153  52.014  1.00  0.00    -0.075 SA
HETATM    4  C   UNL     1      26.456  43.144  52.635  1.00  0.00    -0.008 A 
HETATM    5  C   UNL     1      26.945  42.262  51.695  1.00  0.00    -0.026 A 
HETATM    6  C   UNL     1      27.967  41.219  52.051  1.00  0.00     0.041 C 
HETATM    7  C   UNL     1      28.218  41.120  53.569  1.00  0.00     0.010 C 
HETATM    8  C   UNL     1      28.179  42.460  54.360  1.00  0.00    -0.002 C 
HETATM    9  C   UNL     1      26.837  43.186  54.080  1.00  0.00     0.052 C 
ENDROOT
BRANCH   2  10
HETATM   10  N   UNL     1      24.490  44.057  49.595  1.00  0.00    -0.319 N 
HETATM   11  C   UNL     1      23.193  43.654  49.407  1.00  0.00     0.248 C 
HETATM   12  O   UNL     1      22.668  42.609  49.783  1.00  0.00    -0.271 OA
HETATM   13  H   UNL     1      24.905  44.771  49.002  1.00  0.00     0.169 HD
BRANCH  11  14
HETATM   14  C   UNL     1      22.352  44.628  48.590  1.00  0.00     0.335 C 
BRANCH  14  15
HETATM   15  N   UNL     1      22.287  45.979  49.251  1.00  0.00    -0.063 N 
HETATM   16  H   UNL     1      21.349  46.157  49.626  1.00  0.00     0.278 HD
HETATM   17  H   UNL     1      22.926  45.941  50.065  1.00  0.00     0.278 HD
BRANCH  15  18
HETATM   18  C   UNL     1      22.728  47.131  48.409  1.00  0.00     0.272 C 
BRANCH  18  19
HETATM   19  C   UNL     1      22.135  48.409  48.914  1.00  0.00    -0.015 A 
HETATM   20  C   UNL     1      20.766  48.532  49.120  1.00  0.00     0.125 A 
HETATM   21  N   UNL     1      20.166  49.679  49.500  1.00  0.00    -0.273 NA
HETATM   22  C   UNL     1      20.955  50.754  49.712  1.00  0.00     0.116 A 
HETATM   23  C   UNL     1      22.327  50.736  49.543  1.00  0.00     0.020 A 
HETATM   24  C   UNL     1      22.925  49.547  49.134  1.00  0.00     0.012 A 
ENDBRANCH  18  19
ENDBRANCH  15  18
ENDBRANCH  14  15
ENDBRANCH  11  14
ENDBRANCH   2  10
BRANCH   1  25
HETATM   25  C   UNL     1      26.641  41.666  49.210  1.00  0.00     0.259 C 
HETATM   26  N   UNL     1      26.086  40.401  49.295  1.00  0.00    -0.322 N 
HETATM   27  H   UNL     1      25.897  40.102  50.243  1.00  0.00     0.169 HD
HETATM   28  O   UNL     1      27.371  42.100  48.326  1.00  0.00    -0.267 OA
BRANCH  26  29
HETATM   29  C   UNL     1      26.307  39.372  48.356  1.00  0.00     0.041 A 
HETATM   30  C   UNL     1      25.501  39.145  47.229  1.00  0.00    -0.035 A 
HETATM   31  C   UNL     1      25.856  38.112  46.338  1.00  0.00     0.015 A 
HETATM   32  C   UNL     1      24.236  39.906  46.943  1.00  0.00     0.050 C 
HETATM   33  C   UNL     1      26.955  37.279  46.582  1.00  0.00    -0.061 A 
HETATM   34  C   UNL     1      27.325  36.187  45.623  1.00  0.00     0.048 C 
HETATM   35  C   UNL     1      27.713  37.483  47.736  1.00  0.00     0.009 A 
HETATM   36  C   UNL     1      27.380  38.509  48.622  1.00  0.00     0.030 A 
ENDBRANCH  26  29
ENDBRANCH   1  25
BRANCH   8  37
HETATM   37  C   UNL     1      29.486  43.345  54.290  1.00  0.00    -0.047 C 
HETATM   38  C   UNL     1      30.509  43.058  55.399  1.00  0.00     0.015 C 
HETATM   39  C   UNL     1      30.207  43.164  52.934  1.00  0.00     0.015 C 
HETATM   40  C   UNL     1      29.091  44.839  54.386  1.00  0.00     0.015 C 
ENDBRANCH   8  37
TORSDOF 8
ENDMDL
MODEL 9
REMARK VINA RESULT:      -7.6      1.344      2.016
REMARK  8 active torsions:
REMARK  status: ('A' for Active; 'I' for Inactive)
REMARK    1  A    between atoms: C_6  and  N_7 
REMARK       I    between atoms: N_7  and  C_8 
REMARK    2  A    between atoms: C_8  and  C_9 
REMARK    3  A    between atoms: C_10  and  N_11 
REMARK       I    between atoms: N_11  and  C_12 
REMARK    4  A    between atoms: C_12  and  C_13 
REMARK    5  A    between atoms: C_13  and  N_14 
REMARK    6  A    between atoms: N_14  and  C_17 
REMARK    7  A    between atoms: C_17  and  C_18 
REMARK    8  A    between atoms: C_30  and  C_31 
ROOT
HETATM    1  C   UNL     1      22.949  46.928  48.647  1.00  0.00     0.073 A 
HETATM    2  C   UNL     1      22.550  45.731  48.082  1.00  0.00     0.093 A 
HETATM    3  S   UNL     1      23.631  44.451  48.403  1.00  0.00    -0.075 SA
HETATM    4  C   UNL     1      24.648  45.457  49.311  1.00  0.00    -0.008 A 
HETATM    5  C   UNL     1      24.210  46.763  49.345  1.00  0.00    -0.026 A 
HETATM    6  C   UNL     1      25.005  47.842  50.025  1.00  0.00     0.041 C 
HETATM    7  C   UNL     1      26.406  47.370  50.460  1.00  0.00     0.010 C 
HETATM    8  C   UNL     1      26.509  45.902  50.969  1.00  0.00    -0.002 C 
HETATM    9  C   UNL     1      25.923  44.943  49.901  1.00  0.00     0.052 C 
ENDROOT
BRANCH   2  10
HETATM   10  N   UNL     1      21.509  45.292  47.296  1.00  0.00    -0.319 N 
HETATM   11  C   UNL     1      21.579  45.058  45.947  1.00  0.00     0.248 C 
HETATM   12  O   UNL     1      22.470  45.392  45.172  1.00  0.00    -0.271 OA
HETATM   13  H   UNL     1      20.619  45.253  47.786  1.00  0.00     0.169 HD
BRANCH  11  14
HETATM   14  C   UNL     1      20.361  44.340  45.377  1.00  0.00     0.335 C 
BRANCH  14  15
HETATM   15  N   UNL     1      19.825  45.053  44.165  1.00  0.00    -0.063 N 
HETATM   16  H   UNL     1      20.339  44.776  43.321  1.00  0.00     0.278 HD
HETATM   17  H   UNL     1      18.851  44.726  44.036  1.00  0.00     0.278 HD
BRANCH  15  18
HETATM   18  C   UNL     1      19.771  46.542  44.265  1.00  0.00     0.272 C 
BRANCH  18  19
HETATM   19  C   UNL     1      18.641  46.970  45.148  1.00  0.00    -0.015 A 
HETATM   20  C   UNL     1      17.331  46.603  44.863  1.00  0.00     0.125 A 
HETATM   21  N   UNL     1      16.265  47.021  45.577  1.00  0.00    -0.273 NA
HETATM   22  C   UNL     1      16.500  47.821  46.639  1.00  0.00     0.116 A 
HETATM   23  C   UNL     1      17.765  48.238  47.012  1.00  0.00     0.020 A 
HETATM   24  C   UNL     1      18.850  47.810  46.252  1.00  0.00     0.012 A 
ENDBRANCH  18  19
ENDBRANCH  15  18
ENDBRANCH  14  15
ENDBRANCH  11  14
ENDBRANCH   2  10
BRANCH   1  25
HETATM   25  C   UNL     1      22.257  48.206  48.493  1.00  0.00     0.259 C 
HETATM   26  N   UNL     1      21.235  48.351  49.415  1.00  0.00    -0.322 N 
HETATM   27  H   UNL     1      20.887  47.473  49.779  1.00  0.00     0.169 HD
HETATM   28  O   UNL     1      22.551  48.973  47.584  1.00  0.00    -0.267 OA
BRANCH  26  29
HETATM   29  C   UNL     1      20.325  49.429  49.431  1.00  0.00     0.041 A 
HETATM   30  C   UNL     1      19.123  49.437  50.156  1.00  0.00    -0.035 A 
HETATM   31  C   UNL     1      18.323  50.597  50.127  1.00  0.00     0.015 A 
HETATM   32  C   UNL     1      18.604  48.253  50.921  1.00  0.00     0.050 C 
HETATM   33  C   UNL     1      18.671  51.710  49.352  1.00  0.00    -0.061 A 
HETATM   34  C   UNL     1      17.812  52.940  49.334  1.00  0.00     0.048 C 
HETATM   35  C   UNL     1      19.841  51.663  48.593  1.00  0.00     0.009 A 
HETATM   36  C   UNL     1      20.650  50.526  48.620  1.00  0.00     0.030 A 
ENDBRANCH  26  29
ENDBRANCH   1  25
BRANCH   8  37
HETATM   37  C   UNL     1      26.057  45.654  52.462  1.00  0.00    -0.047 C 
HETATM   38  C   UNL     1      24.806  44.774  52.609  1.00  0.00     0.015 C 
HETATM   39  C   UNL     1      27.188  44.993  53.283  1.00  0.00     0.015 C 
HETATM   40  C   UNL     1      25.758  47.016  53.134  1.00  0.00     0.015 C 
ENDBRANCH   8  37
TORSDOF 8
ENDMDL
MODEL 10
REMARK VINA RESULT:      -7.6     22.697     23.920
REMARK  8 active torsions:
REMARK  status: ('A' for Active; 'I' for Inactive)
REMARK    1  A    between atoms: C_6  and  N_7 
REMARK       I    between atoms: N_7  and  C_8 
REMARK    2  A    between atoms: C_8  and  C_9 
REMARK    3  A    between atoms: C_10  and  N_11 
REMARK       I    between atoms: N_11  and  C_12 
REMARK    4  A    between atoms: C_12  and  C_13 
REMARK    5  A    between atoms: C_13  and  N_14 
REMARK    6  A    between atoms: N_14  and  C_17 
REMARK    7  A    between atoms: C_17  and  C_18 
REMARK    8  A    between atoms: C_30  and  C_31 
ROOT
HETATM    1  C   UNL     1      36.772  45.348  66.368  1.00  0.00     0.073 A 
HETATM    2  C   UNL     1      35.643  44.724  66.866  1.00  0.00     0.093 A 
HETATM    3  S   UNL     1      35.181  43.360  65.953  1.00  0.00    -0.075 SA
HETATM    4  C   UNL     1      36.478  43.559  64.883  1.00  0.00    -0.008 A 
HETATM    5  C   UNL     1      37.241  44.670  65.174  1.00  0.00    -0.026 A 
HETATM    6  C   UNL     1      38.393  45.083  64.304  1.00  0.00     0.041 C 
HETATM    7  C   UNL     1      38.470  44.281  62.990  1.00  0.00     0.010 C 
HETATM    8  C   UNL     1      38.074  42.777  63.079  1.00  0.00    -0.002 C 
HETATM    9  C   UNL     1      36.663  42.652  63.709  1.00  0.00     0.052 C 
ENDROOT
BRANCH   2  10
HETATM   10  N   UNL     1      34.763  44.926  67.904  1.00  0.00    -0.319 N 
HETATM   11  C   UNL     1      34.999  44.605  69.217  1.00  0.00     0.248 C 
HETATM   12  O   UNL     1      35.900  43.906  69.669  1.00  0.00    -0.271 OA
HETATM   13  H   UNL     1      33.846  45.245  67.603  1.00  0.00     0.169 HD
BRANCH  11  14
HETATM   14  C   UNL     1      33.966  45.167  70.188  1.00  0.00     0.335 C 
BRANCH  14  15
HETATM   15  N   UNL     1      32.569  44.784  69.779  1.00  0.00    -0.063 N 
HETATM   16  H   UNL     1      31.874  45.349  70.280  1.00  0.00     0.278 HD
HETATM   17  H   UNL     1      32.477  45.027  68.777  1.00  0.00     0.278 HD
BRANCH  15  18
HETATM   18  C   UNL     1      32.234  43.334  69.906  1.00  0.00     0.272 C 
BRANCH  18  19
HETATM   19  C   UNL     1      30.897  43.158  70.554  1.00  0.00    -0.015 A 
HETATM   20  C   UNL     1      30.353  41.893  70.744  1.00  0.00     0.125 A 
HETATM   21  N   UNL     1      29.122  41.676  71.251  1.00  0.00    -0.273 NA
HETATM   22  C   UNL     1      28.398  42.756  71.614  1.00  0.00     0.116 A 
HETATM   23  C   UNL     1      28.849  44.056  71.475  1.00  0.00     0.020 A 
HETATM   24  C   UNL     1      30.115  44.259  70.933  1.00  0.00     0.012 A 
ENDBRANCH  18  19
ENDBRANCH  15  18
ENDBRANCH  14  15
ENDBRANCH  11  14
ENDBRANCH   2  10
BRANCH   1  25
HETATM   25  C   UNL     1      37.367  46.571  66.904  1.00  0.00     0.259 C 
HETATM   26  N   UNL     1      36.708  47.702  66.454  1.00  0.00    -0.322 N 
HETATM   27  H   UNL     1      36.200  47.560  65.590  1.00  0.00     0.169 HD
HETATM   28  O   UNL     1      38.375  46.526  67.598  1.00  0.00    -0.267 OA
BRANCH  26  29
HETATM   29  C   UNL     1      37.130  49.023  66.712  1.00  0.00     0.041 A 
HETATM   30  C   UNL     1      37.944  49.774  65.851  1.00  0.00    -0.035 A 
HETATM   31  C   UNL     1      38.256  51.104  66.201  1.00  0.00     0.015 A 
HETATM   32  C   UNL     1      38.559  49.224  64.594  1.00  0.00     0.050 C 
HETATM   33  C   UNL     1      37.820  51.666  67.407  1.00  0.00    -0.061 A 
HETATM   34  C   UNL     1      38.155  53.084  67.765  1.00  0.00     0.048 C 
HETATM   35  C   UNL     1      37.058  50.887  68.278  1.00  0.00     0.009 A 
HETATM   36  C   UNL     1      36.731  49.572  67.940  1.00  0.00     0.030 A 
ENDBRANCH  26  29
ENDBRANCH   1  25
BRANCH   8  37
HETATM   37  C   UNL     1      39.183  41.802  63.639  1.00  0.00    -0.047 C 
HETATM   38  C   UNL     1      39.430  40.557  62.773  1.00  0.00     0.015 C 
HETATM   39  C   UNL     1      40.536  42.532  63.800  1.00  0.00     0.015 C 
HETATM   40  C   UNL     1      38.768  41.320  65.050  1.00  0.00     0.015 C 
ENDBRANCH   8  37
TORSDOF 8
ENDMDL
