MODEL 1
REMARK VINA RESULT:      -8.6      0.000      0.000
REMARK  10 active torsions:
REMARK  status: ('A' for Active; 'I' for Inactive)
REMARK    1  A    between atoms: C_2  and  C_3 
REMARK    2  A    between atoms: C_3  and  N_4 
REMARK    3  A    between atoms: N_4  and  C_5 
REMARK    4  A    between atoms: C_5  and  N_6 
REMARK    5  A    between atoms: N_6  and  N_7 
REMARK       I    between atoms: N_7  and  C_8 
REMARK    6  A    between atoms: C_8  and  C_9 
REMARK    7  A    between atoms: C_9  and  C_10 
REMARK    8  A    between atoms: C_10  and  C_11 
REMARK    9  A    between atoms: C_13  and  O_14 
REMARK   10  A    between atoms: C_15  and  O_16 
ROOT
HETATM    1  N   UNL     1      27.099  40.888  52.611  1.00  0.00    -0.268 N 
HETATM    2  C   UNL     1      28.260  41.626  52.492  1.00  0.00     0.236 C 
HETATM    3  O   UNL     1      28.786  41.889  51.411  1.00  0.00    -0.272 OA
HETATM    4  H   UNL     1      26.501  40.973  53.428  1.00  0.00     0.190 HD
ENDROOT
BRANCH   1   5
HETATM    5  N   UNL     1      26.468  40.497  51.415  1.00  0.00    -0.274 N 
HETATM    6  H   UNL     1      27.001  39.789  50.913  1.00  0.00     0.189 HD
BRANCH   5   7
HETATM    7  C   UNL     1      25.814  41.431  50.646  1.00  0.00     0.186 C 
HETATM    8  S   UNL     1      25.977  41.606  48.991  1.00  0.00    -0.040 SA
BRANCH   7   9
HETATM    9  N   UNL     1      24.998  42.295  51.315  1.00  0.00    -0.362 N 
HETATM   10  H   UNL     1      24.476  41.881  52.078  1.00  0.00     0.162 HD
BRANCH   9  11
HETATM   11  C   UNL     1      24.702  43.681  50.998  1.00  0.00     0.160 C 
BRANCH  11  12
HETATM   12  C   UNL     1      25.126  44.674  52.056  1.00  0.00    -0.040 A 
HETATM   13  C   UNL     1      25.415  44.307  53.380  1.00  0.00     0.010 A 
HETATM   14  C   UNL     1      25.865  45.256  54.304  1.00  0.00     0.024 A 
HETATM   15  C   UNL     1      26.032  46.581  53.914  1.00  0.00     0.034 A 
HETATM   16  C   UNL     1      25.758  46.966  52.605  1.00  0.00     0.024 A 
HETATM   17 CL   UNL     1      26.590  47.746  55.050  1.00  0.00    -0.084 Cl
HETATM   18  C   UNL     1      25.313  46.017  51.681  1.00  0.00     0.010 A 
ENDBRANCH  11  12
ENDBRANCH   9  11
ENDBRANCH   7   9
ENDBRANCH   5   7
ENDBRANCH   1   5
BRANCH   2  19
HETATM   19  C   UNL     1      28.871  42.053  53.807  1.00  0.00     0.109 C 
BRANCH  19  20
HETATM   20  C   UNL     1      29.236  43.540  53.829  1.00  0.00     0.048 C 
BRANCH  20  21
HETATM   21  C   UNL     1      29.790  44.078  55.133  1.00  0.00    -0.055 A 
HETATM   22  C   UNL     1      30.845  43.450  55.816  1.00  0.00     0.046 A 
HETATM   23  C   UNL     1      31.285  43.963  57.033  1.00  0.00     0.099 A 
HETATM   24  C   UNL     1      30.718  45.120  57.557  1.00  0.00     0.098 A 
HETATM   25  C   UNL     1      29.704  45.777  56.882  1.00  0.00     0.040 A 
HETATM   26  C   UNL     1      29.242  45.258  55.671  1.00  0.00     0.010 A 
BRANCH  23  27
HETATM   27  O   UNL     1      32.271  43.350  57.758  1.00  0.00    -0.358 OA
HETATM   28  H   UNL     1      31.845  42.710  58.355  1.00  0.00     0.218 HD
ENDBRANCH  23  27
BRANCH  24  29
HETATM   29  O   UNL     1      31.155  45.611  58.754  1.00  0.00    -0.358 OA
HETATM   30  H   UNL     1      30.450  46.229  59.033  1.00  0.00     0.218 HD
ENDBRANCH  24  29
ENDBRANCH  20  21
ENDBRANCH  19  20
ENDBRANCH   2  19
TORSDOF 10
ENDMDL
MODEL 2
REMARK VINA RESULT:      -8.0      3.713      7.209
REMARK  10 active torsions:
REMARK  status: ('A' for Active; 'I' for Inactive)
REMARK    1  A    between atoms: C_2  and  C_3 
REMARK    2  A    between atoms: C_3  and  N_4 
REMARK    3  A    between atoms: N_4  and  C_5 
REMARK    4  A    between atoms: C_5  and  N_6 
REMARK    5  A    between atoms: N_6  and  N_7 
REMARK       I    between atoms: N_7  and  C_8 
REMARK    6  A    between atoms: C_8  and  C_9 
REMARK    7  A    between atoms: C_9  and  C_10 
REMARK    8  A    between atoms: C_10  and  C_11 
REMARK    9  A    between atoms: C_13  and  O_14 
REMARK   10  A    between atoms: C_15  and  O_16 
ROOT
HETATM    1  N   UNL     1      26.092  43.450  51.850  1.00  0.00    -0.268 N 
HETATM    2  C   UNL     1      25.398  44.397  52.576  1.00  0.00     0.236 C 
HETATM    3  O   UNL     1      25.085  44.247  53.757  1.00  0.00    -0.272 OA
HETATM    4  H   UNL     1      26.636  43.707  51.030  1.00  0.00     0.190 HD
ENDROOT
BRANCH   1   5
HETATM    5  N   UNL     1      26.518  42.301  52.543  1.00  0.00    -0.274 N 
HETATM    6  H   UNL     1      26.361  42.378  53.548  1.00  0.00     0.189 HD
BRANCH   5   7
HETATM    7  C   UNL     1      27.659  41.645  52.150  1.00  0.00     0.186 C 
HETATM    8  S   UNL     1      27.847  40.808  50.713  1.00  0.00    -0.040 SA
BRANCH   7   9
HETATM    9  N   UNL     1      28.698  41.663  53.033  1.00  0.00    -0.362 N 
HETATM   10  H   UNL     1      28.607  41.016  53.807  1.00  0.00     0.162 HD
BRANCH   9  11
HETATM   11  C   UNL     1      29.838  42.563  53.063  1.00  0.00     0.160 C 
BRANCH  11  12
HETATM   12  C   UNL     1      29.855  43.518  54.234  1.00  0.00    -0.040 A 
HETATM   13  C   UNL     1      28.865  44.490  54.445  1.00  0.00     0.010 A 
HETATM   14  C   UNL     1      28.894  45.308  55.580  1.00  0.00     0.024 A 
HETATM   15  C   UNL     1      29.912  45.161  56.516  1.00  0.00     0.034 A 
HETATM   16  C   UNL     1      30.901  44.199  56.331  1.00  0.00     0.024 A 
HETATM   17 CL   UNL     1      29.944  46.163  57.913  1.00  0.00    -0.084 Cl
HETATM   18  C   UNL     1      30.869  43.380  55.199  1.00  0.00     0.010 A 
ENDBRANCH  11  12
ENDBRANCH   9  11
ENDBRANCH   7   9
ENDBRANCH   5   7
ENDBRANCH   1   5
BRANCH   2  19
HETATM   19  C   UNL     1      25.003  45.627  51.791  1.00  0.00     0.109 C 
BRANCH  19  20
HETATM   20  C   UNL     1      26.213  46.453  51.348  1.00  0.00     0.048 C 
BRANCH  20  21
HETATM   21  C   UNL     1      25.955  47.518  50.301  1.00  0.00    -0.055 A 
HETATM   22  C   UNL     1      24.666  47.799  49.818  1.00  0.00     0.046 A 
HETATM   23  C   UNL     1      24.493  48.758  48.824  1.00  0.00     0.099 A 
HETATM   24  C   UNL     1      25.581  49.471  48.334  1.00  0.00     0.098 A 
HETATM   25  C   UNL     1      26.856  49.238  48.823  1.00  0.00     0.040 A 
HETATM   26  C   UNL     1      27.042  48.264  49.806  1.00  0.00     0.010 A 
BRANCH  23  27
HETATM   27  O   UNL     1      23.263  49.022  48.286  1.00  0.00    -0.358 OA
HETATM   28  H   UNL     1      23.330  48.909  47.322  1.00  0.00     0.218 HD
ENDBRANCH  23  27
BRANCH  24  29
HETATM   29  O   UNL     1      25.399  50.406  47.356  1.00  0.00    -0.358 OA
HETATM   30  H   UNL     1      25.277  49.879  46.540  1.00  0.00     0.218 HD
ENDBRANCH  24  29
ENDBRANCH  20  21
ENDBRANCH  19  20
ENDBRANCH   2  19
TORSDOF 10
ENDMDL
MODEL 3
REMARK VINA RESULT:      -8.0      0.927      1.796
REMARK  10 active torsions:
REMARK  status: ('A' for Active; 'I' for Inactive)
REMARK    1  A    between atoms: C_2  and  C_3 
REMARK    2  A    between atoms: C_3  and  N_4 
REMARK    3  A    between atoms: N_4  and  C_5 
REMARK    4  A    between atoms: C_5  and  N_6 
REMARK    5  A    between atoms: N_6  and  N_7 
REMARK       I    between atoms: N_7  and  C_8 
REMARK    6  A    between atoms: C_8  and  C_9 
REMARK    7  A    between atoms: C_9  and  C_10 
REMARK    8  A    between atoms: C_10  and  C_11 
REMARK    9  A    between atoms: C_13  and  O_14 
REMARK   10  A    between atoms: C_15  and  O_16 
ROOT
HETATM    1  N   UNL     1      27.898  41.819  51.668  1.00  0.00    -0.268 N 
HETATM    2  C   UNL     1      28.329  41.659  52.970  1.00  0.00     0.236 C 
HETATM    3  O   UNL     1      27.675  41.068  53.829  1.00  0.00    -0.272 OA
HETATM    4  H   UNL     1      28.557  41.981  50.910  1.00  0.00     0.190 HD
ENDROOT
BRANCH   1   5
HETATM    5  N   UNL     1      26.685  41.196  51.316  1.00  0.00    -0.274 N 
HETATM    6  H   UNL     1      26.743  40.181  51.377  1.00  0.00     0.189 HD
BRANCH   5   7
HETATM    7  C   UNL     1      25.923  41.707  50.293  1.00  0.00     0.186 C 
HETATM    8  S   UNL     1      25.351  40.835  48.985  1.00  0.00    -0.040 SA
BRANCH   7   9
HETATM    9  N   UNL     1      25.652  43.042  50.354  1.00  0.00    -0.362 N 
HETATM   10  H   UNL     1      26.279  43.627  49.815  1.00  0.00     0.162 HD
BRANCH   9  11
HETATM   11  C   UNL     1      24.668  43.724  51.177  1.00  0.00     0.160 C 
BRANCH  11  12
HETATM   12  C   UNL     1      25.247  44.713  52.161  1.00  0.00    -0.040 A 
HETATM   13  C   UNL     1      25.345  46.089  51.899  1.00  0.00     0.010 A 
HETATM   14  C   UNL     1      25.831  46.970  52.871  1.00  0.00     0.024 A 
HETATM   15  C   UNL     1      26.222  46.486  54.115  1.00  0.00     0.034 A 
HETATM   16  C   UNL     1      26.127  45.128  54.399  1.00  0.00     0.024 A 
HETATM   17 CL   UNL     1      26.814  47.572  55.310  1.00  0.00    -0.084 Cl
HETATM   18  C   UNL     1      25.638  44.248  53.430  1.00  0.00     0.010 A 
ENDBRANCH  11  12
ENDBRANCH   9  11
ENDBRANCH   7   9
ENDBRANCH   5   7
ENDBRANCH   1   5
BRANCH   2  19
HETATM   19  C   UNL     1      29.656  42.314  53.279  1.00  0.00     0.109 C 
BRANCH  19  20
HETATM   20  C   UNL     1      29.499  43.762  53.752  1.00  0.00     0.048 C 
BRANCH  20  21
HETATM   21  C   UNL     1      30.016  44.075  55.141  1.00  0.00    -0.055 A 
HETATM   22  C   UNL     1      29.498  45.126  55.916  1.00  0.00     0.046 A 
HETATM   23  C   UNL     1      30.041  45.397  57.168  1.00  0.00     0.099 A 
HETATM   24  C   UNL     1      31.066  44.609  57.679  1.00  0.00     0.098 A 
HETATM   25  C   UNL     1      31.567  43.544  56.949  1.00  0.00     0.040 A 
HETATM   26  C   UNL     1      31.041  43.277  55.683  1.00  0.00     0.010 A 
BRANCH  23  27
HETATM   27  O   UNL     1      29.604  46.446  57.931  1.00  0.00    -0.358 OA
HETATM   28  H   UNL     1      29.364  46.097  58.807  1.00  0.00     0.218 HD
ENDBRANCH  23  27
BRANCH  24  29
HETATM   29  O   UNL     1      31.594  44.888  58.906  1.00  0.00    -0.358 OA
HETATM   30  H   UNL     1      32.254  44.179  59.051  1.00  0.00     0.218 HD
ENDBRANCH  24  29
ENDBRANCH  20  21
ENDBRANCH  19  20
ENDBRANCH   2  19
TORSDOF 10
ENDMDL
MODEL 4
REMARK VINA RESULT:      -7.9      2.264      2.791
REMARK  10 active torsions:
REMARK  status: ('A' for Active; 'I' for Inactive)
REMARK    1  A    between atoms: C_2  and  C_3 
REMARK    2  A    between atoms: C_3  and  N_4 
REMARK    3  A    between atoms: N_4  and  C_5 
REMARK    4  A    between atoms: C_5  and  N_6 
REMARK    5  A    between atoms: N_6  and  N_7 
REMARK       I    between atoms: N_7  and  C_8 
REMARK    6  A    between atoms: C_8  and  C_9 
REMARK    7  A    between atoms: C_9  and  C_10 
REMARK    8  A    between atoms: C_10  and  C_11 
REMARK    9  A    between atoms: C_13  and  O_14 
REMARK   10  A    between atoms: C_15  and  O_16 
ROOT
HETATM    1  N   UNL     1      26.739  42.739  52.825  1.00  0.00    -0.268 N 
HETATM    2  C   UNL     1      27.793  41.853  52.729  1.00  0.00     0.236 C 
HETATM    3  O   UNL     1      27.815  40.912  51.935  1.00  0.00    -0.272 OA
HETATM    4  H   UNL     1      26.867  43.674  53.203  1.00  0.00     0.190 HD
ENDROOT
BRANCH   1   5
HETATM    5  N   UNL     1      25.686  42.579  51.904  1.00  0.00    -0.274 N 
HETATM    6  H   UNL     1      25.470  41.597  51.734  1.00  0.00     0.189 HD
BRANCH   5   7
HETATM    7  C   UNL     1      25.583  43.424  50.825  1.00  0.00     0.186 C 
HETATM    8  S   UNL     1      26.544  43.368  49.457  1.00  0.00    -0.040 SA
BRANCH   7   9
HETATM    9  N   UNL     1      24.636  44.401  50.915  1.00  0.00    -0.362 N 
HETATM   10  H   UNL     1      23.805  44.239  50.360  1.00  0.00     0.162 HD
BRANCH   9  11
HETATM   11  C   UNL     1      24.722  45.677  51.604  1.00  0.00     0.160 C 
BRANCH  11  12
HETATM   12  C   UNL     1      25.118  46.841  50.725  1.00  0.00    -0.040 A 
HETATM   13  C   UNL     1      26.450  47.239  50.534  1.00  0.00     0.010 A 
HETATM   14  C   UNL     1      26.767  48.284  49.659  1.00  0.00     0.024 A 
HETATM   15  C   UNL     1      25.755  48.941  48.967  1.00  0.00     0.034 A 
HETATM   16  C   UNL     1      24.428  48.559  49.136  1.00  0.00     0.024 A 
HETATM   17 CL   UNL     1      26.146  50.223  47.888  1.00  0.00    -0.084 Cl
HETATM   18  C   UNL     1      24.112  47.512  50.006  1.00  0.00     0.010 A 
ENDBRANCH  11  12
ENDBRANCH   9  11
ENDBRANCH   7   9
ENDBRANCH   5   7
ENDBRANCH   1   5
BRANCH   2  19
HETATM   19  C   UNL     1      28.913  42.098  53.715  1.00  0.00     0.109 C 
BRANCH  19  20
HETATM   20  C   UNL     1      29.288  43.578  53.819  1.00  0.00     0.048 C 
BRANCH  20  21
HETATM   21  C   UNL     1      29.872  44.034  55.140  1.00  0.00    -0.055 A 
HETATM   22  C   UNL     1      30.902  43.331  55.788  1.00  0.00     0.046 A 
HETATM   23  C   UNL     1      31.371  43.771  57.022  1.00  0.00     0.099 A 
HETATM   24  C   UNL     1      30.857  44.926  57.602  1.00  0.00     0.098 A 
HETATM   25  C   UNL     1      29.869  45.656  56.964  1.00  0.00     0.040 A 
HETATM   26  C   UNL     1      29.378  45.211  55.734  1.00  0.00     0.010 A 
BRANCH  23  27
HETATM   27  O   UNL     1      32.333  43.085  57.713  1.00  0.00    -0.358 OA
HETATM   28  H   UNL     1      33.180  43.215  57.251  1.00  0.00     0.218 HD
ENDBRANCH  23  27
BRANCH  24  29
HETATM   29  O   UNL     1      31.321  45.344  58.815  1.00  0.00    -0.358 OA
HETATM   30  H   UNL     1      31.307  46.321  58.755  1.00  0.00     0.218 HD
ENDBRANCH  24  29
ENDBRANCH  20  21
ENDBRANCH  19  20
ENDBRANCH   2  19
TORSDOF 10
ENDMDL
MODEL 5
REMARK VINA RESULT:      -7.8      4.440      5.209
REMARK  10 active torsions:
REMARK  status: ('A' for Active; 'I' for Inactive)
REMARK    1  A    between atoms: C_2  and  C_3 
REMARK    2  A    between atoms: C_3  and  N_4 
REMARK    3  A    between atoms: N_4  and  C_5 
REMARK    4  A    between atoms: C_5  and  N_6 
REMARK    5  A    between atoms: N_6  and  N_7 
REMARK       I    between atoms: N_7  and  C_8 
REMARK    6  A    between atoms: C_8  and  C_9 
REMARK    7  A    between atoms: C_9  and  C_10 
REMARK    8  A    between atoms: C_10  and  C_11 
REMARK    9  A    between atoms: C_13  and  O_14 
REMARK   10  A    between atoms: C_15  and  O_16 
ROOT
HETATM    1  N   UNL     1      25.711  45.726  52.415  1.00  0.00    -0.268 N 
HETATM    2  C   UNL     1      26.825  44.924  52.566  1.00  0.00     0.236 C 
HETATM    3  O   UNL     1      27.291  44.237  51.658  1.00  0.00    -0.272 OA
HETATM    4  H   UNL     1      25.548  46.524  53.023  1.00  0.00     0.190 HD
ENDROOT
BRANCH   1   5
HETATM    5  N   UNL     1      25.150  45.800  51.125  1.00  0.00    -0.274 N 
HETATM    6  H   UNL     1      25.354  44.971  50.569  1.00  0.00     0.189 HD
BRANCH   5   7
HETATM    7  C   UNL     1      25.130  46.999  50.454  1.00  0.00     0.186 C 
HETATM    8  S   UNL     1      26.476  47.798  49.862  1.00  0.00    -0.040 SA
BRANCH   7   9
HETATM    9  N   UNL     1      23.907  47.581  50.299  1.00  0.00    -0.362 N 
HETATM   10  H   UNL     1      23.501  47.947  51.152  1.00  0.00     0.162 HD
BRANCH   9  11
HETATM   11  C   UNL     1      23.079  47.632  49.107  1.00  0.00     0.160 C 
BRANCH  11  12
HETATM   12  C   UNL     1      22.201  48.858  49.001  1.00  0.00    -0.040 A 
HETATM   13  C   UNL     1      22.706  50.143  48.751  1.00  0.00     0.010 A 
HETATM   14  C   UNL     1      21.844  51.234  48.600  1.00  0.00     0.024 A 
HETATM   15  C   UNL     1      20.469  51.051  48.695  1.00  0.00     0.034 A 
HETATM   16  C   UNL     1      19.945  49.785  48.935  1.00  0.00     0.024 A 
HETATM   17 CL   UNL     1      19.410  52.393  48.503  1.00  0.00    -0.084 Cl
HETATM   18  C   UNL     1      20.806  48.694  49.082  1.00  0.00     0.010 A 
ENDBRANCH  11  12
ENDBRANCH   9  11
ENDBRANCH   7   9
ENDBRANCH   5   7
ENDBRANCH   1   5
BRANCH   2  19
HETATM   19  C   UNL     1      27.408  44.915  53.961  1.00  0.00     0.109 C 
BRANCH  19  20
HETATM   20  C   UNL     1      28.824  44.335  54.001  1.00  0.00     0.048 C 
BRANCH  20  21
HETATM   21  C   UNL     1      29.589  44.513  55.296  1.00  0.00    -0.055 A 
HETATM   22  C   UNL     1      30.601  43.625  55.699  1.00  0.00     0.046 A 
HETATM   23  C   UNL     1      31.240  43.813  56.921  1.00  0.00     0.099 A 
HETATM   24  C   UNL     1      30.916  44.898  57.729  1.00  0.00     0.098 A 
HETATM   25  C   UNL     1      29.950  45.807  57.334  1.00  0.00     0.040 A 
HETATM   26  C   UNL     1      29.288  45.616  56.119  1.00  0.00     0.010 A 
BRANCH  23  27
HETATM   27  O   UNL     1      32.191  42.940  57.377  1.00  0.00    -0.358 OA
HETATM   28  H   UNL     1      32.603  42.519  56.602  1.00  0.00     0.218 HD
ENDBRANCH  23  27
BRANCH  24  29
HETATM   29  O   UNL     1      31.547  45.068  58.927  1.00  0.00    -0.358 OA
HETATM   30  H   UNL     1      32.221  45.755  58.749  1.00  0.00     0.218 HD
ENDBRANCH  24  29
ENDBRANCH  20  21
ENDBRANCH  19  20
ENDBRANCH   2  19
TORSDOF 10
ENDMDL
MODEL 6
REMARK VINA RESULT:      -7.7     13.441     14.808
REMARK  10 active torsions:
REMARK  status: ('A' for Active; 'I' for Inactive)
REMARK    1  A    between atoms: C_2  and  C_3 
REMARK    2  A    between atoms: C_3  and  N_4 
REMARK    3  A    between atoms: N_4  and  C_5 
REMARK    4  A    between atoms: C_5  and  N_6 
REMARK    5  A    between atoms: N_6  and  N_7 
REMARK       I    between atoms: N_7  and  C_8 
REMARK    6  A    between atoms: C_8  and  C_9 
REMARK    7  A    between atoms: C_9  and  C_10 
REMARK    8  A    between atoms: C_10  and  C_11 
REMARK    9  A    between atoms: C_13  and  O_14 
REMARK   10  A    between atoms: C_15  and  O_16 
ROOT
HETATM    1  N   UNL     1      27.033  48.942  41.617  1.00  0.00    -0.268 N 
HETATM    2  C   UNL     1      28.291  48.422  41.381  1.00  0.00     0.236 C 
HETATM    3  O   UNL     1      28.491  47.431  40.679  1.00  0.00    -0.272 OA
HETATM    4  H   UNL     1      26.905  49.915  41.883  1.00  0.00     0.190 HD
ENDROOT
BRANCH   1   5
HETATM    5  N   UNL     1      25.955  48.332  40.946  1.00  0.00    -0.274 N 
HETATM    6  H   UNL     1      25.972  47.317  41.034  1.00  0.00     0.189 HD
BRANCH   5   7
HETATM    7  C   UNL     1      25.523  48.835  39.742  1.00  0.00     0.186 C 
HETATM    8  S   UNL     1      24.586  48.009  38.629  1.00  0.00    -0.040 SA
BRANCH   7   9
HETATM    9  N   UNL     1      25.932  50.100  39.438  1.00  0.00    -0.362 N 
HETATM   10  H   UNL     1      25.463  50.833  39.955  1.00  0.00     0.162 HD
BRANCH   9  11
HETATM   11  C   UNL     1      26.855  50.521  38.398  1.00  0.00     0.160 C 
BRANCH  11  12
HETATM   12  C   UNL     1      28.102  51.209  38.903  1.00  0.00    -0.040 A 
HETATM   13  C   UNL     1      28.110  52.059  40.019  1.00  0.00     0.010 A 
HETATM   14  C   UNL     1      29.304  52.620  40.483  1.00  0.00     0.024 A 
HETATM   15  C   UNL     1      30.503  52.336  39.837  1.00  0.00     0.034 A 
HETATM   16  C   UNL     1      30.520  51.491  38.732  1.00  0.00     0.024 A 
HETATM   17 CL   UNL     1      31.971  53.023  40.412  1.00  0.00    -0.084 Cl
HETATM   18  C   UNL     1      29.327  50.927  38.271  1.00  0.00     0.010 A 
ENDBRANCH  11  12
ENDBRANCH   9  11
ENDBRANCH   7   9
ENDBRANCH   5   7
ENDBRANCH   1   5
BRANCH   2  19
HETATM   19  C   UNL     1      29.412  49.141  42.094  1.00  0.00     0.109 C 
BRANCH  19  20
HETATM   20  C   UNL     1      30.783  48.843  41.482  1.00  0.00     0.048 C 
BRANCH  20  21
HETATM   21  C   UNL     1      31.938  49.692  41.971  1.00  0.00    -0.055 A 
HETATM   22  C   UNL     1      31.854  50.476  43.134  1.00  0.00     0.046 A 
HETATM   23  C   UNL     1      32.932  51.271  43.513  1.00  0.00     0.099 A 
HETATM   24  C   UNL     1      34.109  51.265  42.772  1.00  0.00     0.098 A 
HETATM   25  C   UNL     1      34.228  50.471  41.644  1.00  0.00     0.040 A 
HETATM   26  C   UNL     1      33.145  49.685  41.245  1.00  0.00     0.010 A 
BRANCH  23  27
HETATM   27  O   UNL     1      32.871  52.092  44.606  1.00  0.00    -0.358 OA
HETATM   28  H   UNL     1      31.958  52.420  44.681  1.00  0.00     0.218 HD
ENDBRANCH  23  27
BRANCH  24  29
HETATM   29  O   UNL     1      35.157  52.053  43.151  1.00  0.00    -0.358 OA
HETATM   30  H   UNL     1      35.775  52.012  42.394  1.00  0.00     0.218 HD
ENDBRANCH  24  29
ENDBRANCH  20  21
ENDBRANCH  19  20
ENDBRANCH   2  19
TORSDOF 10
ENDMDL
MODEL 7
REMARK VINA RESULT:      -7.6     14.014     15.826
REMARK  10 active torsions:
REMARK  status: ('A' for Active; 'I' for Inactive)
REMARK    1  A    between atoms: C_2  and  C_3 
REMARK    2  A    between atoms: C_3  and  N_4 
REMARK    3  A    between atoms: N_4  and  C_5 
REMARK    4  A    between atoms: C_5  and  N_6 
REMARK    5  A    between atoms: N_6  and  N_7 
REMARK       I    between atoms: N_7  and  C_8 
REMARK    6  A    between atoms: C_8  and  C_9 
REMARK    7  A    between atoms: C_9  and  C_10 
REMARK    8  A    between atoms: C_10  and  C_11 
REMARK    9  A    between atoms: C_13  and  O_14 
REMARK   10  A    between atoms: C_15  and  O_16 
ROOT
HETATM    1  N   UNL     1      26.107  50.177  39.604  1.00  0.00    -0.268 N 
HETATM    2  C   UNL     1      26.745  50.313  38.386  1.00  0.00     0.236 C 
HETATM    3  O   UNL     1      26.574  49.538  37.445  1.00  0.00    -0.272 OA
HETATM    4  H   UNL     1      25.975  50.973  40.223  1.00  0.00     0.190 HD
ENDROOT
BRANCH   1   5
HETATM    5  N   UNL     1      25.163  49.138  39.716  1.00  0.00    -0.274 N 
HETATM    6  H   UNL     1      24.206  49.488  39.740  1.00  0.00     0.189 HD
BRANCH   5   7
HETATM    7  C   UNL     1      25.435  48.046  40.506  1.00  0.00     0.186 C 
HETATM    8  S   UNL     1      24.368  46.800  40.833  1.00  0.00    -0.040 SA
BRANCH   7   9
HETATM    9  N   UNL     1      26.669  48.017  41.086  1.00  0.00    -0.362 N 
HETATM   10  H   UNL     1      26.782  48.642  41.875  1.00  0.00     0.162 HD
BRANCH   9  11
HETATM   11  C   UNL     1      27.853  47.301  40.645  1.00  0.00     0.160 C 
BRANCH  11  12
HETATM   12  C   UNL     1      29.160  47.995  40.953  1.00  0.00    -0.040 A 
HETATM   13  C   UNL     1      29.303  48.938  41.983  1.00  0.00     0.010 A 
HETATM   14  C   UNL     1      30.550  49.504  42.267  1.00  0.00     0.024 A 
HETATM   15  C   UNL     1      31.667  49.132  41.526  1.00  0.00     0.034 A 
HETATM   16  C   UNL     1      31.550  48.195  40.505  1.00  0.00     0.024 A 
HETATM   17 CL   UNL     1      33.201  49.825  41.881  1.00  0.00    -0.084 Cl
HETATM   18  C   UNL     1      30.305  47.626  40.224  1.00  0.00     0.010 A 
ENDBRANCH  11  12
ENDBRANCH   9  11
ENDBRANCH   7   9
ENDBRANCH   5   7
ENDBRANCH   1   5
BRANCH   2  19
HETATM   19  C   UNL     1      27.715  51.469  38.310  1.00  0.00     0.109 C 
BRANCH  19  20
HETATM   20  C   UNL     1      28.322  51.814  39.673  1.00  0.00     0.048 C 
BRANCH  20  21
HETATM   21  C   UNL     1      29.815  52.077  39.697  1.00  0.00    -0.055 A 
HETATM   22  C   UNL     1      30.698  51.473  38.788  1.00  0.00     0.046 A 
HETATM   23  C   UNL     1      32.065  51.716  38.884  1.00  0.00     0.099 A 
HETATM   24  C   UNL     1      32.561  52.587  39.849  1.00  0.00     0.098 A 
HETATM   25  C   UNL     1      31.705  53.223  40.731  1.00  0.00     0.040 A 
HETATM   26  C   UNL     1      30.333  52.970  40.654  1.00  0.00     0.010 A 
BRANCH  23  27
HETATM   27  O   UNL     1      32.966  51.104  38.055  1.00  0.00    -0.358 OA
HETATM   28  H   UNL     1      32.733  51.339  37.139  1.00  0.00     0.218 HD
ENDBRANCH  23  27
BRANCH  24  29
HETATM   29  O   UNL     1      33.904  52.814  39.937  1.00  0.00    -0.358 OA
HETATM   30  H   UNL     1      34.014  53.279  40.790  1.00  0.00     0.218 HD
ENDBRANCH  24  29
ENDBRANCH  20  21
ENDBRANCH  19  20
ENDBRANCH   2  19
TORSDOF 10
ENDMDL
MODEL 8
REMARK VINA RESULT:      -7.6      2.137      2.488
REMARK  10 active torsions:
REMARK  status: ('A' for Active; 'I' for Inactive)
REMARK    1  A    between atoms: C_2  and  C_3 
REMARK    2  A    between atoms: C_3  and  N_4 
REMARK    3  A    between atoms: N_4  and  C_5 
REMARK    4  A    between atoms: C_5  and  N_6 
REMARK    5  A    between atoms: N_6  and  N_7 
REMARK       I    between atoms: N_7  and  C_8 
REMARK    6  A    between atoms: C_8  and  C_9 
REMARK    7  A    between atoms: C_9  and  C_10 
REMARK    8  A    between atoms: C_10  and  C_11 
REMARK    9  A    between atoms: C_13  and  O_14 
REMARK   10  A    between atoms: C_15  and  O_16 
ROOT
HETATM    1  N   UNL     1      26.793  41.450  52.219  1.00  0.00    -0.268 N 
HETATM    2  C   UNL     1      28.062  41.539  52.757  1.00  0.00     0.236 C 
HETATM    3  O   UNL     1      28.850  40.594  52.789  1.00  0.00    -0.272 OA
HETATM    4  H   UNL     1      26.303  42.275  51.884  1.00  0.00     0.190 HD
ENDROOT
BRANCH   1   5
HETATM    5  N   UNL     1      26.441  40.228  51.615  1.00  0.00    -0.274 N 
HETATM    6  H   UNL     1      26.830  39.428  52.112  1.00  0.00     0.189 HD
BRANCH   5   7
HETATM    7  C   UNL     1      26.385  40.130  50.245  1.00  0.00     0.186 C 
HETATM    8  S   UNL     1      26.906  38.818  49.347  1.00  0.00    -0.040 SA
BRANCH   7   9
HETATM    9  N   UNL     1      25.893  41.217  49.585  1.00  0.00    -0.362 N 
HETATM   10  H   UNL     1      24.896  41.192  49.412  1.00  0.00     0.162 HD
BRANCH   9  11
HETATM   11  C   UNL     1      26.629  42.327  49.006  1.00  0.00     0.160 C 
BRANCH  11  12
HETATM   12  C   UNL     1      26.005  43.685  49.235  1.00  0.00    -0.040 A 
HETATM   13  C   UNL     1      24.656  43.964  48.965  1.00  0.00     0.010 A 
HETATM   14  C   UNL     1      24.113  45.220  49.255  1.00  0.00     0.024 A 
HETATM   15  C   UNL     1      24.912  46.209  49.819  1.00  0.00     0.034 A 
HETATM   16  C   UNL     1      26.250  45.952  50.101  1.00  0.00     0.024 A 
HETATM   17 CL   UNL     1      24.241  47.751  50.180  1.00  0.00    -0.084 Cl
HETATM   18  C   UNL     1      26.792  44.696  49.816  1.00  0.00     0.010 A 
ENDBRANCH  11  12
ENDBRANCH   9  11
ENDBRANCH   7   9
ENDBRANCH   5   7
ENDBRANCH   1   5
BRANCH   2  19
HETATM   19  C   UNL     1      28.399  42.886  53.355  1.00  0.00     0.109 C 
BRANCH  19  20
HETATM   20  C   UNL     1      29.845  42.963  53.849  1.00  0.00     0.048 C 
BRANCH  20  21
HETATM   21  C   UNL     1      30.092  43.808  55.082  1.00  0.00    -0.055 A 
HETATM   22  C   UNL     1      31.074  43.482  56.032  1.00  0.00     0.046 A 
HETATM   23  C   UNL     1      31.227  44.271  57.169  1.00  0.00     0.099 A 
HETATM   24  C   UNL     1      30.444  45.405  57.352  1.00  0.00     0.098 A 
HETATM   25  C   UNL     1      29.496  45.768  56.410  1.00  0.00     0.040 A 
HETATM   26  C   UNL     1      29.322  44.971  55.276  1.00  0.00     0.010 A 
BRANCH  23  27
HETATM   27  O   UNL     1      32.133  43.957  58.146  1.00  0.00    -0.358 OA
HETATM   28  H   UNL     1      32.944  43.644  57.709  1.00  0.00     0.218 HD
ENDBRANCH  23  27
BRANCH  24  29
HETATM   29  O   UNL     1      30.600  46.168  58.473  1.00  0.00    -0.358 OA
HETATM   30  H   UNL     1      30.390  47.077  58.177  1.00  0.00     0.218 HD
ENDBRANCH  24  29
ENDBRANCH  20  21
ENDBRANCH  19  20
ENDBRANCH   2  19
TORSDOF 10
ENDMDL
MODEL 9
REMARK VINA RESULT:      -7.5     13.550     15.393
REMARK  10 active torsions:
REMARK  status: ('A' for Active; 'I' for Inactive)
REMARK    1  A    between atoms: C_2  and  C_3 
REMARK    2  A    between atoms: C_3  and  N_4 
REMARK    3  A    between atoms: N_4  and  C_5 
REMARK    4  A    between atoms: C_5  and  N_6 
REMARK    5  A    between atoms: N_6  and  N_7 
REMARK       I    between atoms: N_7  and  C_8 
REMARK    6  A    between atoms: C_8  and  C_9 
REMARK    7  A    between atoms: C_9  and  C_10 
REMARK    8  A    between atoms: C_10  and  C_11 
REMARK    9  A    between atoms: C_13  and  O_14 
REMARK   10  A    between atoms: C_15  and  O_16 
ROOT
HETATM    1  N   UNL     1      27.270  51.686  38.679  1.00  0.00    -0.268 N 
HETATM    2  C   UNL     1      28.606  51.852  38.370  1.00  0.00     0.236 C 
HETATM    3  O   UNL     1      29.211  51.128  37.580  1.00  0.00    -0.272 OA
HETATM    4  H   UNL     1      26.710  52.457  39.032  1.00  0.00     0.190 HD
ENDROOT
BRANCH   1   5
HETATM    5  N   UNL     1      26.575  50.679  37.982  1.00  0.00    -0.274 N 
HETATM    6  H   UNL     1      26.149  51.029  37.126  1.00  0.00     0.189 HD
BRANCH   5   7
HETATM    7  C   UNL     1      25.865  49.729  38.677  1.00  0.00     0.186 C 
HETATM    8  S   UNL     1      24.197  49.596  38.703  1.00  0.00    -0.040 SA
BRANCH   7   9
HETATM    9  N   UNL     1      26.599  48.856  39.424  1.00  0.00    -0.362 N 
HETATM   10  H   UNL     1      26.686  47.928  39.028  1.00  0.00     0.162 HD
BRANCH   9  11
HETATM   11  C   UNL     1      27.160  49.056  40.749  1.00  0.00     0.160 C 
BRANCH  11  12
HETATM   12  C   UNL     1      28.636  48.753  40.860  1.00  0.00    -0.040 A 
HETATM   13  C   UNL     1      29.457  48.516  39.747  1.00  0.00     0.010 A 
HETATM   14  C   UNL     1      30.830  48.303  39.901  1.00  0.00     0.024 A 
HETATM   15  C   UNL     1      31.398  48.326  41.171  1.00  0.00     0.034 A 
HETATM   16  C   UNL     1      30.605  48.566  42.289  1.00  0.00     0.024 A 
HETATM   17 CL   UNL     1      33.088  48.069  41.359  1.00  0.00    -0.084 Cl
HETATM   18  C   UNL     1      29.234  48.783  42.134  1.00  0.00     0.010 A 
ENDBRANCH  11  12
ENDBRANCH   9  11
ENDBRANCH   7   9
ENDBRANCH   5   7
ENDBRANCH   1   5
BRANCH   2  19
HETATM   19  C   UNL     1      29.290  52.973  39.119  1.00  0.00     0.109 C 
BRANCH  19  20
HETATM   20  C   UNL     1      29.263  52.767  40.635  1.00  0.00     0.048 C 
BRANCH  20  21
HETATM   21  C   UNL     1      30.562  52.322  41.277  1.00  0.00    -0.055 A 
HETATM   22  C   UNL     1      30.702  52.178  42.667  1.00  0.00     0.046 A 
HETATM   23  C   UNL     1      31.931  51.808  43.205  1.00  0.00     0.099 A 
HETATM   24  C   UNL     1      33.013  51.537  42.374  1.00  0.00     0.098 A 
HETATM   25  C   UNL     1      32.887  51.636  40.999  1.00  0.00     0.040 A 
HETATM   26  C   UNL     1      31.663  52.025  40.451  1.00  0.00     0.010 A 
BRANCH  23  27
HETATM   27  O   UNL     1      32.125  51.711  44.557  1.00  0.00    -0.358 OA
HETATM   28  H   UNL     1      31.855  50.817  44.832  1.00  0.00     0.218 HD
ENDBRANCH  23  27
BRANCH  24  29
HETATM   29  O   UNL     1      34.214  51.181  42.914  1.00  0.00    -0.358 OA
HETATM   30  H   UNL     1      34.587  52.021  43.249  1.00  0.00     0.218 HD
ENDBRANCH  24  29
ENDBRANCH  20  21
ENDBRANCH  19  20
ENDBRANCH   2  19
TORSDOF 10
ENDMDL
MODEL 10
REMARK VINA RESULT:      -7.4     14.470     16.687
REMARK  10 active torsions:
REMARK  status: ('A' for Active; 'I' for Inactive)
REMARK    1  A    between atoms: C_2  and  C_3 
REMARK    2  A    between atoms: C_3  and  N_4 
REMARK    3  A    between atoms: N_4  and  C_5 
REMARK    4  A    between atoms: C_5  and  N_6 
REMARK    5  A    between atoms: N_6  and  N_7 
REMARK       I    between atoms: N_7  and  C_8 
REMARK    6  A    between atoms: C_8  and  C_9 
REMARK    7  A    between atoms: C_9  and  C_10 
REMARK    8  A    between atoms: C_10  and  C_11 
REMARK    9  A    between atoms: C_13  and  O_14 
REMARK   10  A    between atoms: C_15  and  O_16 
ROOT
HETATM    1  N   UNL     1      34.157  52.387  40.717  1.00  0.00    -0.268 N 
HETATM    2  C   UNL     1      34.060  51.968  39.404  1.00  0.00     0.236 C 
HETATM    3  O   UNL     1      35.033  51.639  38.727  1.00  0.00    -0.272 OA
HETATM    4  H   UNL     1      33.368  52.317  41.354  1.00  0.00     0.190 HD
ENDROOT
BRANCH   1   5
HETATM    5  N   UNL     1      35.436  52.350  41.305  1.00  0.00    -0.274 N 
HETATM    6  H   UNL     1      36.174  52.223  40.613  1.00  0.00     0.189 HD
BRANCH   5   7
HETATM    7  C   UNL     1      35.618  51.724  42.515  1.00  0.00     0.186 C 
HETATM    8  S   UNL     1      36.844  52.059  43.603  1.00  0.00    -0.040 SA
BRANCH   7   9
HETATM    9  N   UNL     1      34.734  50.730  42.815  1.00  0.00    -0.362 N 
HETATM   10  H   UNL     1      35.100  49.791  42.710  1.00  0.00     0.162 HD
BRANCH   9  11
HETATM   11  C   UNL     1      33.325  50.848  43.146  1.00  0.00     0.160 C 
BRANCH  11  12
HETATM   12  C   UNL     1      32.413  49.945  42.348  1.00  0.00    -0.040 A 
HETATM   13  C   UNL     1      32.875  49.086  41.339  1.00  0.00     0.010 A 
HETATM   14  C   UNL     1      31.997  48.225  40.674  1.00  0.00     0.024 A 
HETATM   15  C   UNL     1      30.647  48.212  41.012  1.00  0.00     0.034 A 
HETATM   16  C   UNL     1      30.168  49.050  42.013  1.00  0.00     0.024 A 
HETATM   17 CL   UNL     1      29.569  47.148  40.196  1.00  0.00    -0.084 Cl
HETATM   18  C   UNL     1      31.046  49.908  42.681  1.00  0.00     0.010 A 
ENDBRANCH  11  12
ENDBRANCH   9  11
ENDBRANCH   7   9
ENDBRANCH   5   7
ENDBRANCH   1   5
BRANCH   2  19
HETATM   19  C   UNL     1      32.658  51.990  38.840  1.00  0.00     0.109 C 
BRANCH  19  20
HETATM   20  C   UNL     1      31.632  52.526  39.841  1.00  0.00     0.048 C 
BRANCH  20  21
HETATM   21  C   UNL     1      30.220  51.991  39.709  1.00  0.00    -0.055 A 
HETATM   22  C   UNL     1      29.183  52.389  40.569  1.00  0.00     0.046 A 
HETATM   23  C   UNL     1      27.915  51.832  40.429  1.00  0.00     0.099 A 
HETATM   24  C   UNL     1      27.654  50.916  39.417  1.00  0.00     0.098 A 
HETATM   25  C   UNL     1      28.651  50.538  38.533  1.00  0.00     0.040 A 
HETATM   26  C   UNL     1      29.931  51.077  38.678  1.00  0.00     0.010 A 
BRANCH  23  27
HETATM   27  O   UNL     1      26.892  52.149  41.282  1.00  0.00    -0.358 OA
HETATM   28  H   UNL     1      27.285  52.498  42.101  1.00  0.00     0.218 HD
ENDBRANCH  23  27
BRANCH  24  29
HETATM   29  O   UNL     1      26.408  50.373  39.293  1.00  0.00    -0.358 OA
HETATM   30  H   UNL     1      25.990  50.889  38.575  1.00  0.00     0.218 HD
ENDBRANCH  24  29
ENDBRANCH  20  21
ENDBRANCH  19  20
ENDBRANCH   2  19
TORSDOF 10
ENDMDL
