MODEL 1
REMARK VINA RESULT:      -7.3      0.000      0.000
REMARK  5 active torsions:
REMARK  status: ('A' for Active; 'I' for Inactive)
REMARK    1  A    between atoms: C_2  and  O_3 
REMARK    2  A    between atoms: C_4  and  C_5 
REMARK    3  A    between atoms: C_5  and  O_6 
REMARK    4  A    between atoms: C_9  and  C_10 
REMARK    5  A    between atoms: C_22  and  O_23 
ROOT
HETATM    1  C   UNL     1      32.071  51.422  43.427  1.00  0.00     0.047 C 
HETATM    2  C   UNL     1      31.627  51.583  41.965  1.00  0.00     0.073 C 
HETATM    3  C   UNL     1      31.653  50.240  41.152  1.00  0.00     0.133 C 
HETATM    4  C   UNL     1      31.007  50.292  39.723  1.00  0.00     0.074 C 
HETATM    5  C   UNL     1      30.175  51.512  39.504  1.00  0.00     0.030 A 
HETATM    6  C   UNL     1      29.825  52.396  40.502  1.00  0.00     0.042 A 
HETATM    7  N   UNL     1      29.086  53.386  39.920  1.00  0.00    -0.279 N 
HETATM    8  H   UNL     1      28.658  54.199  40.352  1.00  0.00     0.189 HD
HETATM    9  N   UNL     1      28.989  53.240  38.581  1.00  0.00    -0.149 NA
HETATM   10  C   UNL     1      29.649  52.110  38.359  1.00  0.00     0.190 A 
HETATM   11  C   UNL     1      30.254  52.315  41.918  1.00  0.00     0.097 C 
ENDROOT
BRANCH   4  12
HETATM   12  C   UNL     1      30.115  49.119  39.329  1.00  0.00    -0.047 A 
HETATM   13  C   UNL     1      28.711  49.157  39.465  1.00  0.00     0.027 A 
HETATM   14  C   UNL     1      27.931  48.053  39.121  1.00  0.00     0.011 A 
HETATM   15 BR   UNL     1      26.054  48.135  39.325  1.00  0.00    -0.051 Br
HETATM   16  C   UNL     1      28.524  46.893  38.634  1.00  0.00     0.019 A 
HETATM   17  C   UNL     1      29.911  46.837  38.494  1.00  0.00     0.002 A 
HETATM   18  C   UNL     1      30.699  47.939  38.839  1.00  0.00     0.008 A 
ENDBRANCH   4  12
BRANCH   3  19
HETATM   19  C   UNL     1      31.127  49.082  41.976  1.00  0.00     0.266 C 
HETATM   20  O   UNL     1      30.008  49.021  42.466  1.00  0.00    -0.265 OA
BRANCH  19  21
HETATM   21  O   UNL     1      32.086  48.119  42.083  1.00  0.00    -0.326 OA
HETATM   22  C   UNL     1      33.331  48.450  41.467  1.00  0.00     0.213 C 
ENDBRANCH  19  21
ENDBRANCH   3  19
BRANCH   2  23
HETATM   23  O   UNL     1      32.636  52.455  41.394  1.00  0.00    -0.389 OA
HETATM   24  H   UNL     1      32.930  52.074  40.547  1.00  0.00     0.210 HD
ENDBRANCH   2  23
BRANCH  10  25
HETATM   25  O   UNL     1      29.742  51.744  37.086  1.00  0.00    -0.343 OA
HETATM   26  H   UNL     1      30.408  52.342  36.707  1.00  0.00     0.219 HD
ENDBRANCH  10  25
TORSDOF 5
ENDMDL
MODEL 2
REMARK VINA RESULT:      -7.1      2.550      3.978
REMARK  5 active torsions:
REMARK  status: ('A' for Active; 'I' for Inactive)
REMARK    1  A    between atoms: C_2  and  O_3 
REMARK    2  A    between atoms: C_4  and  C_5 
REMARK    3  A    between atoms: C_5  and  O_6 
REMARK    4  A    between atoms: C_9  and  C_10 
REMARK    5  A    between atoms: C_22  and  O_23 
ROOT
HETATM    1  C   UNL     1      30.892  53.606  40.962  1.00  0.00     0.047 C 
HETATM    2  C   UNL     1      31.477  52.224  41.291  1.00  0.00     0.073 C 
HETATM    3  C   UNL     1      30.395  51.088  41.356  1.00  0.00     0.133 C 
HETATM    4  C   UNL     1      30.948  49.623  41.471  1.00  0.00     0.074 C 
HETATM    5  C   UNL     1      32.404  49.524  41.157  1.00  0.00     0.030 A 
HETATM    6  C   UNL     1      33.148  50.550  40.617  1.00  0.00     0.042 A 
HETATM    7  N   UNL     1      34.430  50.094  40.494  1.00  0.00    -0.279 N 
HETATM    8  H   UNL     1      35.245  50.577  40.129  1.00  0.00     0.189 HD
HETATM    9  N   UNL     1      34.585  48.847  40.988  1.00  0.00    -0.149 NA
HETATM   10  C   UNL     1      33.357  48.529  41.377  1.00  0.00     0.190 A 
HETATM   11  C   UNL     1      32.651  51.913  40.316  1.00  0.00     0.097 C 
ENDROOT
BRANCH   4  12
HETATM   12  C   UNL     1      30.275  48.565  40.601  1.00  0.00    -0.047 A 
HETATM   13  C   UNL     1      29.150  47.833  41.034  1.00  0.00     0.027 A 
HETATM   14  C   UNL     1      28.580  46.853  40.220  1.00  0.00     0.011 A 
HETATM   15 BR   UNL     1      27.078  45.884  40.837  1.00  0.00    -0.051 Br
HETATM   16  C   UNL     1      29.110  46.582  38.964  1.00  0.00     0.019 A 
HETATM   17  C   UNL     1      30.223  47.295  38.520  1.00  0.00     0.002 A 
HETATM   18  C   UNL     1      30.802  48.277  39.330  1.00  0.00     0.008 A 
ENDBRANCH   4  12
BRANCH   3  19
HETATM   19  C   UNL     1      29.373  51.229  40.247  1.00  0.00     0.266 C 
HETATM   20  O   UNL     1      29.639  51.395  39.065  1.00  0.00    -0.265 OA
BRANCH  19  21
HETATM   21  O   UNL     1      28.115  51.137  40.764  1.00  0.00    -0.326 OA
HETATM   22  C   UNL     1      27.621  52.347  41.339  1.00  0.00     0.213 C 
ENDBRANCH  19  21
ENDBRANCH   3  19
BRANCH   2  23
HETATM   23  O   UNL     1      32.015  52.388  42.627  1.00  0.00    -0.389 OA
HETATM   24  H   UNL     1      31.509  53.086  43.082  1.00  0.00     0.210 HD
ENDBRANCH   2  23
BRANCH  10  25
HETATM   25  O   UNL     1      33.230  47.338  41.949  1.00  0.00    -0.343 OA
HETATM   26  H   UNL     1      32.589  47.478  42.667  1.00  0.00     0.219 HD
ENDBRANCH  10  25
TORSDOF 5
ENDMDL
MODEL 3
REMARK VINA RESULT:      -6.8      3.370      5.833
REMARK  5 active torsions:
REMARK  status: ('A' for Active; 'I' for Inactive)
REMARK    1  A    between atoms: C_2  and  O_3 
REMARK    2  A    between atoms: C_4  and  C_5 
REMARK    3  A    between atoms: C_5  and  O_6 
REMARK    4  A    between atoms: C_9  and  C_10 
REMARK    5  A    between atoms: C_22  and  O_23 
ROOT
HETATM    1  C   UNL     1      28.764  52.720  38.431  1.00  0.00     0.047 C 
HETATM    2  C   UNL     1      29.724  51.584  38.817  1.00  0.00     0.073 C 
HETATM    3  C   UNL     1      31.021  52.084  39.547  1.00  0.00     0.133 C 
HETATM    4  C   UNL     1      31.935  50.966  40.160  1.00  0.00     0.074 C 
HETATM    5  C   UNL     1      31.255  49.639  40.246  1.00  0.00     0.030 A 
HETATM    6  C   UNL     1      29.910  49.447  40.020  1.00  0.00     0.042 A 
HETATM    7  N   UNL     1      29.665  48.111  40.169  1.00  0.00    -0.279 N 
HETATM    8  H   UNL     1      28.785  47.612  40.082  1.00  0.00     0.189 HD
HETATM    9  N   UNL     1      30.788  47.403  40.413  1.00  0.00    -0.149 NA
HETATM   10  C   UNL     1      31.725  48.342  40.455  1.00  0.00     0.190 A 
HETATM   11  C   UNL     1      28.944  50.492  39.608  1.00  0.00     0.097 C 
ENDROOT
BRANCH   4  12
HETATM   12  C   UNL     1      32.493  51.223  41.557  1.00  0.00    -0.047 A 
HETATM   13  C   UNL     1      33.846  51.552  41.783  1.00  0.00     0.027 A 
HETATM   14  C   UNL     1      34.325  51.752  43.078  1.00  0.00     0.011 A 
HETATM   15 BR   UNL     1      36.147  52.180  43.344  1.00  0.00    -0.051 Br
HETATM   16  C   UNL     1      33.475  51.634  44.171  1.00  0.00     0.019 A 
HETATM   17  C   UNL     1      32.135  51.309  43.967  1.00  0.00     0.002 A 
HETATM   18  C   UNL     1      31.647  51.104  42.673  1.00  0.00     0.008 A 
ENDBRANCH   4  12
BRANCH   3  19
HETATM   19  C   UNL     1      30.709  53.179  40.546  1.00  0.00     0.266 C 
HETATM   20  O   UNL     1      29.721  53.211  41.267  1.00  0.00    -0.265 OA
BRANCH  19  21
HETATM   21  O   UNL     1      31.697  54.120  40.525  1.00  0.00    -0.326 OA
HETATM   22  C   UNL     1      31.235  55.466  40.639  1.00  0.00     0.213 C 
ENDBRANCH  19  21
ENDBRANCH   3  19
BRANCH   2  23
HETATM   23  O   UNL     1      30.131  51.030  37.541  1.00  0.00    -0.389 OA
HETATM   24  H   UNL     1      29.715  50.155  37.436  1.00  0.00     0.210 HD
ENDBRANCH   2  23
BRANCH  10  25
HETATM   25  O   UNL     1      32.964  47.905  40.648  1.00  0.00    -0.343 OA
HETATM   26  H   UNL     1      33.449  48.680  40.980  1.00  0.00     0.219 HD
ENDBRANCH  10  25
TORSDOF 5
ENDMDL
MODEL 4
REMARK VINA RESULT:      -6.7     12.927     14.938
REMARK  5 active torsions:
REMARK  status: ('A' for Active; 'I' for Inactive)
REMARK    1  A    between atoms: C_2  and  O_3 
REMARK    2  A    between atoms: C_4  and  C_5 
REMARK    3  A    between atoms: C_5  and  O_6 
REMARK    4  A    between atoms: C_9  and  C_10 
REMARK    5  A    between atoms: C_22  and  O_23 
ROOT
HETATM    1  C   UNL     1      24.518  42.708  48.513  1.00  0.00     0.047 C 
HETATM    2  C   UNL     1      25.811  42.569  49.332  1.00  0.00     0.073 C 
HETATM    3  C   UNL     1      26.111  43.813  50.243  1.00  0.00     0.133 C 
HETATM    4  C   UNL     1      27.291  43.646  51.263  1.00  0.00     0.074 C 
HETATM    5  C   UNL     1      27.713  42.224  51.437  1.00  0.00     0.030 A 
HETATM    6  C   UNL     1      27.018  41.147  50.935  1.00  0.00     0.042 A 
HETATM    7  N   UNL     1      27.716  40.024  51.276  1.00  0.00    -0.279 N 
HETATM    8  H   UNL     1      27.497  39.052  51.078  1.00  0.00     0.189 HD
HETATM    9  N   UNL     1      28.871  40.307  51.916  1.00  0.00    -0.149 NA
HETATM   10  C   UNL     1      28.844  41.632  52.001  1.00  0.00     0.190 A 
HETATM   11  C   UNL     1      25.791  41.219  50.107  1.00  0.00     0.097 C 
ENDROOT
BRANCH   4  12
HETATM   12  C   UNL     1      27.058  44.174  52.675  1.00  0.00    -0.047 A 
HETATM   13  C   UNL     1      27.391  45.490  53.056  1.00  0.00     0.027 A 
HETATM   14  C   UNL     1      27.190  45.927  54.366  1.00  0.00     0.011 A 
HETATM   15 BR   UNL     1      27.657  47.695  54.843  1.00  0.00    -0.051 Br
HETATM   16  C   UNL     1      26.653  45.071  55.321  1.00  0.00     0.019 A 
HETATM   17  C   UNL     1      26.319  43.765  54.963  1.00  0.00     0.002 A 
HETATM   18  C   UNL     1      26.521  43.319  53.653  1.00  0.00     0.008 A 
ENDBRANCH   4  12
BRANCH   3  19
HETATM   19  C   UNL     1      24.851  44.333  50.905  1.00  0.00     0.266 C 
HETATM   20  O   UNL     1      24.026  43.641  51.485  1.00  0.00    -0.265 OA
BRANCH  19  21
HETATM   21  O   UNL     1      24.779  45.687  50.762  1.00  0.00    -0.326 OA
HETATM   22  C   UNL     1      24.147  46.123  49.558  1.00  0.00     0.213 C 
ENDBRANCH  19  21
ENDBRANCH   3  19
BRANCH   2  23
HETATM   23  O   UNL     1      26.851  42.510  48.324  1.00  0.00    -0.389 OA
HETATM   24  H   UNL     1      26.880  41.605  47.962  1.00  0.00     0.210 HD
ENDBRANCH   2  23
BRANCH  10  25
HETATM   25  O   UNL     1      29.906  42.190  52.567  1.00  0.00    -0.343 OA
HETATM   26  H   UNL     1      30.666  41.800  52.102  1.00  0.00     0.219 HD
ENDBRANCH  10  25
TORSDOF 5
ENDMDL
MODEL 5
REMARK VINA RESULT:      -6.7      2.677      4.588
REMARK  5 active torsions:
REMARK  status: ('A' for Active; 'I' for Inactive)
REMARK    1  A    between atoms: C_2  and  O_3 
REMARK    2  A    between atoms: C_4  and  C_5 
REMARK    3  A    between atoms: C_5  and  O_6 
REMARK    4  A    between atoms: C_9  and  C_10 
REMARK    5  A    between atoms: C_22  and  O_23 
ROOT
HETATM    1  C   UNL     1      27.692  47.877  40.798  1.00  0.00     0.047 C 
HETATM    2  C   UNL     1      28.053  49.368  40.721  1.00  0.00     0.073 C 
HETATM    3  C   UNL     1      29.129  49.807  41.777  1.00  0.00     0.133 C 
HETATM    4  C   UNL     1      29.700  51.258  41.610  1.00  0.00     0.074 C 
HETATM    5  C   UNL     1      29.380  51.861  40.282  1.00  0.00     0.030 A 
HETATM    6  C   UNL     1      28.835  51.161  39.229  1.00  0.00     0.042 A 
HETATM    7  N   UNL     1      28.668  52.045  38.202  1.00  0.00    -0.279 N 
HETATM    8  H   UNL     1      28.298  51.878  37.271  1.00  0.00     0.189 HD
HETATM    9  N   UNL     1      29.010  53.306  38.544  1.00  0.00    -0.149 NA
HETATM   10  C   UNL     1      29.434  53.167  39.794  1.00  0.00     0.190 A 
HETATM   11  C   UNL     1      28.430  49.735  39.256  1.00  0.00     0.097 C 
ENDROOT
BRANCH   4  12
HETATM   12  C   UNL     1      31.207  51.427  41.777  1.00  0.00    -0.047 A 
HETATM   13  C   UNL     1      32.090  51.469  40.679  1.00  0.00     0.027 A 
HETATM   14  C   UNL     1      33.466  51.596  40.874  1.00  0.00     0.011 A 
HETATM   15 BR   UNL     1      34.622  51.638  39.379  1.00  0.00    -0.051 Br
HETATM   16  C   UNL     1      33.992  51.686  42.158  1.00  0.00     0.019 A 
HETATM   17  C   UNL     1      33.134  51.646  43.256  1.00  0.00     0.002 A 
HETATM   18  C   UNL     1      31.754  51.516  43.069  1.00  0.00     0.008 A 
ENDBRANCH   4  12
BRANCH   3  19
HETATM   19  C   UNL     1      30.227  48.772  41.913  1.00  0.00     0.266 C 
HETATM   20  O   UNL     1      30.629  48.310  42.972  1.00  0.00    -0.265 OA
BRANCH  19  21
HETATM   21  O   UNL     1      30.694  48.429  40.678  1.00  0.00    -0.326 OA
HETATM   22  C   UNL     1      31.947  47.744  40.688  1.00  0.00     0.213 C 
ENDBRANCH  19  21
ENDBRANCH   3  19
BRANCH   2  23
HETATM   23  O   UNL     1      26.813  50.039  41.062  1.00  0.00    -0.389 OA
HETATM   24  H   UNL     1      26.301  49.462  41.657  1.00  0.00     0.210 HD
ENDBRANCH   2  23
BRANCH  10  25
HETATM   25  O   UNL     1      29.803  54.289  40.400  1.00  0.00    -0.343 OA
HETATM   26  H   UNL     1      30.762  54.193  40.532  1.00  0.00     0.219 HD
ENDBRANCH  10  25
TORSDOF 5
ENDMDL
MODEL 6
REMARK VINA RESULT:      -6.6     25.350     26.840
REMARK  5 active torsions:
REMARK  status: ('A' for Active; 'I' for Inactive)
REMARK    1  A    between atoms: C_2  and  O_3 
REMARK    2  A    between atoms: C_4  and  C_5 
REMARK    3  A    between atoms: C_5  and  O_6 
REMARK    4  A    between atoms: C_9  and  C_10 
REMARK    5  A    between atoms: C_22  and  O_23 
ROOT
HETATM    1  C   UNL     1      35.540  47.527  66.539  1.00  0.00     0.047 C 
HETATM    2  C   UNL     1      37.008  47.122  66.335  1.00  0.00     0.073 C 
HETATM    3  C   UNL     1      37.220  45.569  66.245  1.00  0.00     0.133 C 
HETATM    4  C   UNL     1      38.656  45.098  65.821  1.00  0.00     0.074 C 
HETATM    5  C   UNL     1      39.484  46.198  65.245  1.00  0.00     0.030 A 
HETATM    6  C   UNL     1      38.991  47.442  64.916  1.00  0.00     0.042 A 
HETATM    7  N   UNL     1      40.041  48.177  64.443  1.00  0.00    -0.279 N 
HETATM    8  H   UNL     1      40.046  49.134  64.103  1.00  0.00     0.189 HD
HETATM    9  N   UNL     1      41.212  47.508  64.508  1.00  0.00    -0.149 NA
HETATM   10  C   UNL     1      40.850  46.326  64.991  1.00  0.00     0.190 A 
HETATM   11  C   UNL     1      37.599  47.904  65.125  1.00  0.00     0.097 C 
ENDROOT
BRANCH   4  12
HETATM   12  C   UNL     1      38.734  43.961  64.805  1.00  0.00    -0.047 A 
HETATM   13  C   UNL     1      38.744  42.604  65.187  1.00  0.00     0.027 A 
HETATM   14  C   UNL     1      38.846  41.594  64.230  1.00  0.00     0.011 A 
HETATM   15 BR   UNL     1      38.867  39.785  64.779  1.00  0.00    -0.051 Br
HETATM   16  C   UNL     1      38.936  41.908  62.879  1.00  0.00     0.019 A 
HETATM   17  C   UNL     1      38.928  43.245  62.482  1.00  0.00     0.002 A 
HETATM   18  C   UNL     1      38.829  44.263  63.436  1.00  0.00     0.008 A 
ENDBRANCH   4  12
BRANCH   3  19
HETATM   19  C   UNL     1      36.134  44.906  65.422  1.00  0.00     0.266 C 
HETATM   20  O   UNL     1      35.875  45.174  64.257  1.00  0.00    -0.265 OA
BRANCH  19  21
HETATM   21  O   UNL     1      35.494  43.965  66.173  1.00  0.00    -0.326 OA
HETATM   22  C   UNL     1      35.216  42.746  65.484  1.00  0.00     0.213 C 
ENDBRANCH  19  21
ENDBRANCH   3  19
BRANCH   2  23
HETATM   23  O   UNL     1      37.662  47.579  67.546  1.00  0.00    -0.389 OA
HETATM   24  H   UNL     1      38.620  47.641  67.376  1.00  0.00     0.210 HD
ENDBRANCH   2  23
BRANCH  10  25
HETATM   25  O   UNL     1      41.839  45.465  65.196  1.00  0.00    -0.343 OA
HETATM   26  H   UNL     1      41.492  44.846  65.861  1.00  0.00     0.219 HD
ENDBRANCH  10  25
TORSDOF 5
ENDMDL
MODEL 7
REMARK VINA RESULT:      -6.4     14.400     15.961
REMARK  5 active torsions:
REMARK  status: ('A' for Active; 'I' for Inactive)
REMARK    1  A    between atoms: C_2  and  O_3 
REMARK    2  A    between atoms: C_4  and  C_5 
REMARK    3  A    between atoms: C_5  and  O_6 
REMARK    4  A    between atoms: C_9  and  C_10 
REMARK    5  A    between atoms: C_22  and  O_23 
ROOT
HETATM    1  C   UNL     1      17.459  46.029  48.136  1.00  0.00     0.047 C 
HETATM    2  C   UNL     1      18.140  47.406  48.186  1.00  0.00     0.073 C 
HETATM    3  C   UNL     1      17.444  48.480  47.276  1.00  0.00     0.133 C 
HETATM    4  C   UNL     1      17.953  49.955  47.446  1.00  0.00     0.074 C 
HETATM    5  C   UNL     1      18.772  50.149  48.680  1.00  0.00     0.030 A 
HETATM    6  C   UNL     1      18.897  49.208  49.678  1.00  0.00     0.042 A 
HETATM    7  N   UNL     1      19.733  49.733  50.622  1.00  0.00    -0.279 N 
HETATM    8  H   UNL     1      20.045  49.322  51.496  1.00  0.00     0.189 HD
HETATM    9  N   UNL     1      20.221  50.941  50.266  1.00  0.00    -0.149 NA
HETATM   10  C   UNL     1      19.628  51.167  49.100  1.00  0.00     0.190 A 
HETATM   11  C   UNL     1      18.298  47.853  49.669  1.00  0.00     0.097 C 
ENDROOT
BRANCH   4  12
HETATM   12  C   UNL     1      16.889  51.048  47.492  1.00  0.00    -0.047 A 
HETATM   13  C   UNL     1      16.299  51.480  48.697  1.00  0.00     0.027 A 
HETATM   14  C   UNL     1      15.308  52.462  48.695  1.00  0.00     0.011 A 
HETATM   15 BR   UNL     1      14.531  53.010  50.329  1.00  0.00    -0.051 Br
HETATM   16  C   UNL     1      14.886  53.036  47.501  1.00  0.00     0.019 A 
HETATM   17  C   UNL     1      15.458  52.621  46.299  1.00  0.00     0.002 A 
HETATM   18  C   UNL     1      16.449  51.635  46.293  1.00  0.00     0.008 A 
ENDBRANCH   4  12
BRANCH   3  19
HETATM   19  C   UNL     1      15.934  48.383  47.356  1.00  0.00     0.266 C 
HETATM   20  O   UNL     1      15.282  48.433  48.390  1.00  0.00    -0.265 OA
BRANCH  19  21
HETATM   21  O   UNL     1      15.413  48.236  46.105  1.00  0.00    -0.326 OA
HETATM   22  C   UNL     1      14.072  48.705  45.963  1.00  0.00     0.213 C 
ENDBRANCH  19  21
ENDBRANCH   3  19
BRANCH   2  23
HETATM   23  O   UNL     1      19.457  47.157  47.633  1.00  0.00    -0.389 OA
HETATM   24  H   UNL     1      19.646  46.204  47.699  1.00  0.00     0.210 HD
ENDBRANCH   2  23
BRANCH  10  25
HETATM   25  O   UNL     1      19.969  52.299  48.496  1.00  0.00    -0.343 OA
HETATM   26  H   UNL     1      20.430  52.813  49.180  1.00  0.00     0.219 HD
ENDBRANCH  10  25
TORSDOF 5
ENDMDL
MODEL 8
REMARK VINA RESULT:      -6.1     12.729     14.090
REMARK  5 active torsions:
REMARK  status: ('A' for Active; 'I' for Inactive)
REMARK    1  A    between atoms: C_2  and  O_3 
REMARK    2  A    between atoms: C_4  and  C_5 
REMARK    3  A    between atoms: C_5  and  O_6 
REMARK    4  A    between atoms: C_9  and  C_10 
REMARK    5  A    between atoms: C_22  and  O_23 
ROOT
HETATM    1  C   UNL     1      27.856  45.706  56.130  1.00  0.00     0.047 C 
HETATM    2  C   UNL     1      27.594  45.949  54.636  1.00  0.00     0.073 C 
HETATM    3  C   UNL     1      27.972  44.725  53.728  1.00  0.00     0.133 C 
HETATM    4  C   UNL     1      27.528  44.824  52.226  1.00  0.00     0.074 C 
HETATM    5  C   UNL     1      26.527  45.905  51.985  1.00  0.00     0.030 A 
HETATM    6  C   UNL     1      25.891  46.604  52.987  1.00  0.00     0.042 A 
HETATM    7  N   UNL     1      25.072  47.515  52.383  1.00  0.00    -0.279 N 
HETATM    8  H   UNL     1      24.449  48.194  52.811  1.00  0.00     0.189 HD
HETATM    9  N   UNL     1      25.186  47.501  51.037  1.00  0.00    -0.149 NA
HETATM   10  C   UNL     1      26.062  46.528  50.826  1.00  0.00     0.190 A 
HETATM   11  C   UNL     1      26.130  46.442  54.440  1.00  0.00     0.097 C 
ENDROOT
BRANCH   4  12
HETATM   12  C   UNL     1      26.924  43.568  51.604  1.00  0.00    -0.047 A 
HETATM   13  C   UNL     1      27.717  42.513  51.108  1.00  0.00     0.027 A 
HETATM   14  C   UNL     1      27.127  41.393  50.520  1.00  0.00     0.011 A 
HETATM   15 BR   UNL     1      28.221  40.001  49.857  1.00  0.00    -0.051 Br
HETATM   16  C   UNL     1      25.744  41.297  50.415  1.00  0.00     0.019 A 
HETATM   17  C   UNL     1      24.944  42.332  50.899  1.00  0.00     0.002 A 
HETATM   18  C   UNL     1      25.528  43.458  51.487  1.00  0.00     0.008 A 
ENDBRANCH   4  12
BRANCH   3  19
HETATM   19  C   UNL     1      27.557  43.413  54.362  1.00  0.00     0.266 C 
HETATM   20  O   UNL     1      26.443  43.170  54.806  1.00  0.00    -0.265 OA
BRANCH  19  21
HETATM   21  O   UNL     1      28.608  42.545  54.358  1.00  0.00    -0.326 OA
HETATM   22  C   UNL     1      29.885  43.160  54.528  1.00  0.00     0.213 C 
ENDBRANCH  19  21
ENDBRANCH   3  19
BRANCH   2  23
HETATM   23  O   UNL     1      28.497  47.033  54.301  1.00  0.00    -0.389 OA
HETATM   24  H   UNL     1      28.795  46.915  53.380  1.00  0.00     0.210 HD
ENDBRANCH   2  23
BRANCH  10  25
HETATM   25  O   UNL     1      26.393  46.322  49.557  1.00  0.00    -0.343 OA
HETATM   26  H   UNL     1      26.906  45.496  49.567  1.00  0.00     0.219 HD
ENDBRANCH  10  25
TORSDOF 5
ENDMDL
MODEL 9
REMARK VINA RESULT:      -6.1     12.449     13.993
REMARK  5 active torsions:
REMARK  status: ('A' for Active; 'I' for Inactive)
REMARK    1  A    between atoms: C_2  and  O_3 
REMARK    2  A    between atoms: C_4  and  C_5 
REMARK    3  A    between atoms: C_5  and  O_6 
REMARK    4  A    between atoms: C_9  and  C_10 
REMARK    5  A    between atoms: C_22  and  O_23 
ROOT
HETATM    1  C   UNL     1      23.270  45.283  48.697  1.00  0.00     0.047 C 
HETATM    2  C   UNL     1      21.741  45.430  48.664  1.00  0.00     0.073 C 
HETATM    3  C   UNL     1      21.244  46.872  49.039  1.00  0.00     0.133 C 
HETATM    4  C   UNL     1      19.716  47.148  48.813  1.00  0.00     0.074 C 
HETATM    5  C   UNL     1      19.055  46.112  47.965  1.00  0.00     0.030 A 
HETATM    6  C   UNL     1      19.735  45.136  47.272  1.00  0.00     0.042 A 
HETATM    7  N   UNL     1      18.800  44.370  46.635  1.00  0.00    -0.279 N 
HETATM    8  H   UNL     1      18.939  43.566  46.031  1.00  0.00     0.189 HD
HETATM    9  N   UNL     1      17.537  44.747  46.928  1.00  0.00    -0.149 NA
HETATM   10  C   UNL     1      17.718  45.793  47.725  1.00  0.00     0.190 A 
HETATM   11  C   UNL     1      21.201  44.920  47.296  1.00  0.00     0.097 C 
ENDROOT
BRANCH   4  12
HETATM   12  C   UNL     1      19.346  48.486  48.178  1.00  0.00    -0.047 A 
HETATM   13  C   UNL     1      18.995  49.616  48.944  1.00  0.00     0.027 A 
HETATM   14  C   UNL     1      18.635  50.814  48.324  1.00  0.00     0.011 A 
HETATM   15 BR   UNL     1      18.160  52.307  49.382  1.00  0.00    -0.051 Br
HETATM   16  C   UNL     1      18.619  50.915  46.938  1.00  0.00     0.019 A 
HETATM   17  C   UNL     1      18.962  49.806  46.164  1.00  0.00     0.002 A 
HETATM   18  C   UNL     1      19.321  48.602  46.777  1.00  0.00     0.008 A 
ENDBRANCH   4  12
BRANCH   3  19
HETATM   19  C   UNL     1      22.117  47.941  48.415  1.00  0.00     0.266 C 
HETATM   20  O   UNL     1      22.382  48.023  47.223  1.00  0.00    -0.265 OA
BRANCH  19  21
HETATM   21  O   UNL     1      22.558  48.798  49.379  1.00  0.00    -0.326 OA
HETATM   22  C   UNL     1      22.599  50.168  48.979  1.00  0.00     0.213 C 
ENDBRANCH  19  21
ENDBRANCH   3  19
BRANCH   2  23
HETATM   23  O   UNL     1      21.287  44.530  49.707  1.00  0.00    -0.389 OA
HETATM   24  H   UNL     1      20.418  44.172  49.450  1.00  0.00     0.210 HD
ENDBRANCH   2  23
BRANCH  10  25
HETATM   25  O   UNL     1      16.610  46.347  48.201  1.00  0.00    -0.343 OA
HETATM   26  H   UNL     1      15.988  45.607  48.300  1.00  0.00     0.219 HD
ENDBRANCH  10  25
TORSDOF 5
ENDMDL
MODEL 10
REMARK VINA RESULT:      -6.0     12.316     13.987
REMARK  5 active torsions:
REMARK  status: ('A' for Active; 'I' for Inactive)
REMARK    1  A    between atoms: C_2  and  O_3 
REMARK    2  A    between atoms: C_4  and  C_5 
REMARK    3  A    between atoms: C_5  and  O_6 
REMARK    4  A    between atoms: C_9  and  C_10 
REMARK    5  A    between atoms: C_22  and  O_23 
ROOT
HETATM    1  C   UNL     1      26.380  39.169  46.039  1.00  0.00     0.047 C 
HETATM    2  C   UNL     1      25.503  39.876  47.084  1.00  0.00     0.073 C 
HETATM    3  C   UNL     1      26.242  40.139  48.444  1.00  0.00     0.133 C 
HETATM    4  C   UNL     1      25.479  41.047  49.472  1.00  0.00     0.074 C 
HETATM    5  C   UNL     1      24.336  41.786  48.860  1.00  0.00     0.030 A 
HETATM    6  C   UNL     1      24.093  41.846  47.505  1.00  0.00     0.042 A 
HETATM    7  N   UNL     1      22.959  42.588  47.333  1.00  0.00    -0.279 N 
HETATM    8  H   UNL     1      22.490  42.843  46.469  1.00  0.00     0.189 HD
HETATM    9  N   UNL     1      22.402  42.962  48.505  1.00  0.00    -0.149 NA
HETATM   10  C   UNL     1      23.247  42.470  49.403  1.00  0.00     0.190 A 
HETATM   11  C   UNL     1      24.878  41.155  46.455  1.00  0.00     0.097 C 
ENDROOT
BRANCH   4  12
HETATM   12  C   UNL     1      26.304  42.107  50.196  1.00  0.00    -0.047 A 
HETATM   13  C   UNL     1      26.922  41.867  51.440  1.00  0.00     0.027 A 
HETATM   14  C   UNL     1      27.644  42.872  52.085  1.00  0.00     0.011 A 
HETATM   15 BR   UNL     1      28.451  42.517  53.757  1.00  0.00    -0.051 Br
HETATM   16  C   UNL     1      27.771  44.131  51.508  1.00  0.00     0.019 A 
HETATM   17  C   UNL     1      27.166  44.387  50.278  1.00  0.00     0.002 A 
HETATM   18  C   UNL     1      26.438  43.386  49.628  1.00  0.00     0.008 A 
ENDBRANCH   4  12
BRANCH   3  19
HETATM   19  C   UNL     1      27.668  40.599  48.222  1.00  0.00     0.266 C 
HETATM   20  O   UNL     1      28.013  41.449  47.412  1.00  0.00    -0.265 OA
BRANCH  19  21
HETATM   21  O   UNL     1      28.506  39.928  49.063  1.00  0.00    -0.326 OA
HETATM   22  C   UNL     1      28.493  38.510  48.905  1.00  0.00     0.213 C 
ENDBRANCH  19  21
ENDBRANCH   3  19
BRANCH   2  23
HETATM   23  O   UNL     1      24.442  38.921  47.344  1.00  0.00    -0.389 OA
HETATM   24  H   UNL     1      24.017  39.154  48.189  1.00  0.00     0.210 HD
ENDBRANCH   2  23
BRANCH  10  25
HETATM   25  O   UNL     1      22.910  42.665  50.672  1.00  0.00    -0.343 OA
HETATM   26  H   UNL     1      22.533  43.561  50.691  1.00  0.00     0.219 HD
ENDBRANCH  10  25
TORSDOF 5
ENDMDL
